@<TRIPOS>MOLECULE
3R540
247   249    1
SMALL
USER_CHARGES


@<TRIPOS>ATOM
      1 CA         -0.4577   -9.0680  -50.9118 C.3       0 UNK        -0.1800 
      2 C           0.7529   -9.5931  -50.1532 C.2       0 UNK         0.5000 
      3 O           1.8706   -9.1348  -50.3904 O.2       0 UNK        -0.5000 
      4 N           0.5345  -10.5513  -49.2432 N.am      1 UNK        -0.5000 
      5 CA          1.5757  -11.1833  -48.4208 C.3       1 UNK         0.1400 
      6 C6          1.0750  -12.4872  -47.7568 C.3       23 UNK        -0.0398 
      7 S7          0.5330  -13.7502  -48.9523 S.3       23 UNK        -0.2404 
      8 C8          0.2050  -15.1342  -47.8184 C.3       23 UNK        -0.0205 
      9 C9         -0.3591  -16.3366  -48.5568 C.ar      23 UNK        -0.0193 
     10 C10        -1.7238  -16.3942  -48.8538 C.ar      23 UNK        -0.1150 
     11 C11        -2.2730  -17.5018  -49.5060 C.ar      23 UNK        -0.0193 
     12 C12        -1.4229  -18.5492  -49.8834 C.ar      23 UNK        -0.1150 
     13 C13        -0.0557  -18.5027  -49.6017 C.ar      23 UNK        -0.0193 
     14 C14         0.4720  -17.3957  -48.9317 C.ar      23 UNK        -0.1150 
     15 C15         0.8479  -19.6423  -50.0473 C.3       23 UNK        -0.0205 
     16 S16         1.0511  -20.9134  -48.7600 S.3       23 UNK        -0.2404 
     17 C17        -0.6426  -21.5758  -48.6019 C.3       23 UNK        -0.0398 
     18 CA         -0.6878  -22.8529  -47.7318 C.3       11 UNK         0.1400 
     19 N          -0.2947  -22.5976  -46.3421 N.am      11 UNK        -0.5000 
     20 C          -0.0807  -23.5451  -45.4194 C.2       10 UNK         0.5000 
     21 O          -0.1684  -24.7503  -45.6453 O.2       10 UNK        -0.5000 
     22 CA          0.2206  -23.0713  -43.9886 C.3       10 UNK         0.1400 
     23 CB          1.6822  -22.6205  -43.8436 C.3       10 UNK        -0.1800 
     24 N          -0.6819  -21.9983  -43.5746 N.am      10 UNK        -0.5000 
     25 C          -1.9930  -22.1638  -43.3483 C.2       9 UNK         0.5000 
     26 O          -2.5673  -23.2501  -43.4213 O.2       9 UNK        -0.5000 
     27 CA         -2.8042  -20.8972  -43.0216 C.3       9 UNK         0.1400 
     28 CB         -2.7190  -20.5688  -41.5238 C.3       9 UNK        -0.1800 
     29 N          -2.3666  -19.7369  -43.7966 N.am      9 UNK        -0.5000 
     30 C          -2.5128  -19.6127  -45.1238 C.2       8 UNK         0.5000 
     31 O          -3.0591  -20.4540  -45.8349 O.2       8 UNK        -0.5000 
     32 CA         -1.8911  -18.3630  -45.7707 C.3       8 UNK         0.1400 
     33 CB         -2.8635  -17.1782  -45.6751 C.3       8 UNK        -0.1800 
     34 N          -0.6023  -17.9958  -45.1779 N.am      8 UNK        -0.5000 
     35 C           0.4735  -18.7995  -45.1565 C.2       7 UNK         0.5000 
     36 O           0.4789  -19.9304  -45.6378 O.2       7 UNK        -0.5000 
     37 CA          1.7440  -18.2979  -44.4468 C.3       7 UNK         0.1400 
     38 CB          2.7902  -17.8551  -45.4801 C.3       7 UNK        -0.1800 
     39 N           1.4940  -17.2128  -43.4969 N.am      7 UNK        -0.5000 
     40 C           0.8050  -17.3484  -42.3521 C.2       6 UNK         0.5000 
     41 O           0.3420  -18.4225  -41.9654 O.2       6 UNK        -0.5000 
     42 CA          0.5524  -16.0754  -41.5150 C.3       6 UNK         0.1400 
     43 CB          1.5726  -15.9761  -40.3712 C.3       6 UNK        -0.1800 
     44 N           0.5884  -14.8333  -42.2913 N.am      6 UNK        -0.5000 
     45 C          -0.2224  -14.5392  -43.3173 C.2       5 UNK         0.5000 
     46 O          -1.1477  -15.2646  -43.6805 O.2       5 UNK        -0.5000 
     47 CA          0.0872  -13.2584  -44.1177 C.3       5 UNK         0.1400 
     48 CB         -0.8248  -12.1086  -43.6690 C.3       5 UNK        -0.1800 
     49 N           1.4896  -12.8174  -44.0833 N.am      5 UNK        -0.5000 
     50 C           2.5528  -13.5631  -44.4285 C.2       4 UNK         0.5000 
     51 O           2.4530  -14.7334  -44.7946 O.2       4 UNK        -0.5000 
     52 CA          3.9539  -12.9219  -44.3631 C.3       4 UNK         0.1400 
     53 CB          4.7652  -13.2198  -45.6361 C.3       4 UNK        -0.1800 
     54 N           3.9149  -11.4744  -44.1480 N.am      4 UNK        -0.5000 
     55 C           3.9002  -10.8792  -42.9467 C.2       3 UNK         0.5000 
     56 O           3.9129  -11.4998  -41.8833 O.2       3 UNK        -0.5000 
     57 CA          3.8453   -9.3371  -42.9163 C.3       3 UNK         0.1400 
     58 CB          5.2441   -8.7563  -42.6590 C.3       3 UNK        -0.1800 
     59 N           3.3010   -8.7357  -44.1361 N.am      3 UNK        -0.5000 
     60 C           2.0386   -8.8707  -44.5624 C.2       2 UNK         0.5000 
     61 O           1.1845   -9.5138  -43.9518 O.2       2 UNK        -0.5000 
     62 CA          1.6666   -8.2196  -45.9117 C.3       2 UNK         0.1400 
     63 CB          2.7235   -7.2287  -46.4500 C.3       2 UNK        -0.1800 
     64 N           1.3534   -9.2297  -46.9278 N.am      2 UNK        -0.5000 
     65 C           2.1439  -10.2336  -47.3419 C.2       1 UNK         0.5000 
     66 O           3.2765  -10.4363  -46.9016 O.2       1 UNK        -0.5000 
     67 C          -2.0701  -23.5316  -47.8231 C.2       11 UNK         0.5000 
     68 O          -2.2343  -24.4621  -48.6139 O.2       11 UNK        -0.5000 
     69 N          -3.0294  -23.0937  -46.9952 N.am      12 UNK        -0.5000 
     70 CA         -4.3562  -23.7006  -46.8745 C.3       12 UNK         0.1400 
     71 CB         -5.2472  -22.8352  -45.9723 C.3       12 UNK        -0.1800 
     72 C          -4.3145  -25.1537  -46.3676 C.2       12 UNK         0.5000 
     73 O          -5.1007  -25.9766  -46.8350 O.2       12 UNK        -0.5000 
     74 N          -3.3972  -25.4450  -45.4374 N.am      13 UNK        -0.5000 
     75 CA         -3.1981  -26.7743  -44.8693 C.3       13 UNK         0.1400 
     76 CB         -2.5011  -26.6460  -43.5049 C.3       13 UNK        -0.1800 
     77 C          -2.4078  -27.7045  -45.8068 C.2       13 UNK         0.5000 
     78 O          -2.8856  -28.7933  -46.1273 O.2       13 UNK        -0.5000 
     79 N          -1.2000  -27.2798  -46.1991 N.am      14 UNK        -0.5000 
     80 CA         -0.2115  -28.1276  -46.8660 C.3       14 UNK         0.1400 
     81 CB          1.1968  -27.5859  -46.5747 C.3       14 UNK        -0.1800 
     82 C          -0.4273  -28.2516  -48.3814 C.2       14 UNK         0.5000 
     83 O          -0.1988  -29.3296  -48.9316 O.2       14 UNK        -0.5000 
     84 N          -0.8426  -27.1565  -49.0301 N.am      15 UNK        -0.5000 
     85 CA         -1.0068  -27.0718  -50.4843 C.3       15 UNK         0.1400 
     86 CB         -0.2480  -25.8363  -51.0014 C.3       15 UNK        -0.1800 
     87 C          -2.4861  -27.0268  -50.9031 C.2       15 UNK         0.5000 
     88 O          -2.7663  -26.8257  -52.0845 O.2       15 UNK        -0.5000 
     89 N          -3.4096  -27.1731  -49.9395 N.am      16 UNK        -0.5000 
     90 CA         -4.8680  -27.0934  -50.1006 C.3       16 UNK         0.1400 
     91 CB         -5.3873  -28.2968  -50.9151 C.3       16 UNK        -0.1800 
     92 C          -5.3384  -25.7366  -50.6740 C.2       16 UNK         0.5000 
     93 O          -6.3356  -25.6874  -51.3947 O.2       16 UNK        -0.5000 
     94 N          -4.5755  -24.6720  -50.3755 N.am      17 UNK        -0.5000 
     95 CA         -4.6915  -23.2905  -50.8595 C.3       17 UNK         0.1400 
     96 CB         -6.0769  -22.6911  -50.5464 C.3       17 UNK        -0.1800 
     97 C          -4.3165  -23.0923  -52.3426 C.2       17 UNK         0.5000 
     98 O          -4.2800  -21.9475  -52.7966 O.2       17 UNK        -0.5000 
     99 N          -4.0007  -24.1714  -53.0742 N.am      18 UNK        -0.5000 
    100 CA        -3.7177  -24.1640  -54.5140 C.3       18 UNK         0.1400 
    101 CB        -3.7469  -25.6064  -55.0415 C.3       18 UNK        -0.1800 
    102 C         -2.3938  -23.4724  -54.8937 C.2       18 UNK         0.5000 
    103 O         -2.1891  -23.1662  -56.0685 O.2       18 UNK        -0.5000 
    104 N         -1.5336  -23.2156  -53.8982 N.am      19 UNK        -0.5000 
    105 CA        -0.2859  -22.4622  -54.0274 C.3       19 UNK         0.1400 
    106 CB         0.4942  -22.5604  -52.7071 C.3       19 UNK        -0.1800 
    107 C         -0.4888  -20.9868  -54.4316 C.2       19 UNK         0.5000 
    108 O          0.4114  -20.4098  -55.0432 O.2       19 UNK        -0.5000 
    109 N         -1.6528  -20.4100  -54.0985 N.am      20 UNK        -0.5000 
    110 CA        -2.0301  -19.0421  -54.4680 C.3       20 UNK         0.1400 
    111 CB        -1.8336  -18.1189  -53.2564 C.3       20 UNK        -0.1800 
    112 C         -3.4726  -18.9311  -54.9944 C.2       20 UNK         0.5000 
    113 O         -3.8082  -17.8922  -55.5641 O.2       20 UNK        -0.5000 
    114 N         -4.2985  -19.9706  -54.7895 N.am      21 UNK        -0.5000 
    115 CA        -5.7439  -20.0183  -55.0358 C.3       21 UNK         0.1400 
    116 CB        -6.0720  -19.8706  -56.5367 C.3       21 UNK        -0.1800 
    117 C         -6.4832  -19.0126  -54.1307 C.2       21 UNK         0.5000 
    118 O         -7.1886  -18.1300  -54.6236 O.2       21 UNK        -0.5000 
    119 N         -6.2441  -19.1466  -52.8181 N.am      22 UNK        -0.5000 
    120 CA        -6.7324  -18.2609  -51.7471 C.3       22 UNK         0.1400 
    121 C         -8.2764  -18.0704  -51.7367 C.2       22 UNK         0.5000 
    122 N         -8.7587  -16.8569  -51.5042 N.am      22 UNK        -0.7600 
    123 O         -9.0385  -19.0230  -51.8868 O.2       22 UNK        -0.5000 
    124 C124       -6.2613  -18.7240  -50.3416 C.3       23 UNK        -0.0398 
    125 S125       -4.4845  -19.1309  -50.2333 S.3       23 UNK        -0.2404 
    126 C126       -3.7768  -17.5073  -49.7893 C.3       23 UNK        -0.0205 
    127 H127       -0.3280   -9.2283  -51.9821 H         1 UNK         0.0600 
    128 H128       -0.5744   -7.9983  -50.7378 H         1 UNK         0.0600 
    129 H129       -1.3774   -9.5653  -50.6028 H         1 UNK         0.0600 
    130 H130       -0.4017  -10.9087  -49.1155 H         1 UNK         0.3000 
    131 H131        2.4075  -11.4427  -49.0795 H         1 UNK         0.0600 
    132 H132        0.2462  -12.2717  -47.0813 H         1 UNK         0.0800 
    133 H133        1.8676  -12.9310  -47.1541 H         1 UNK         0.0800 
    134 H134        1.1243  -15.4027  -47.2961 H         1 UNK         0.0800 
    135 H135       -0.5045  -14.8191  -47.0530 H         1 UNK         0.0800 
    136 H136       -2.3640  -15.5721  -48.5657 H         1 UNK         0.1150 
    137 H137       -1.8120  -19.4099  -50.4058 H         1 UNK         0.1150 
    138 H138        1.5286  -17.3579  -48.7069 H         1 UNK         0.1150 
    139 H139        0.4576  -20.0976  -50.9576 H         1 UNK         0.0800 
    140 H140        1.8315  -19.2486  -50.3071 H         1 UNK         0.0800 
    141 H141       -1.0223  -21.7791  -49.6046 H         1 UNK         0.0800 
    142 H142       -1.2848  -20.8047  -48.1729 H         1 UNK         0.0800 
    143 H143        0.0329  -23.5626  -48.1442 H         1 UNK         0.0600 
    144 H144       -0.1449  -21.6234  -46.0865 H         1 UNK         0.3000 
    145 H145        0.0649  -23.9192  -43.3180 H         1 UNK         0.0600 
    146 H146        1.8990  -22.3072  -42.8223 H         1 UNK         0.0600 
    147 H147        2.3633  -23.4375  -44.0845 H         1 UNK         0.0600 
    148 H148        1.9241  -21.7910  -44.5074 H         1 UNK         0.0600 
    149 H149       -0.2987  -21.0648  -43.5447 H         1 UNK         0.3000 
    150 H150       -3.8489  -21.0967  -43.2689 H         1 UNK         0.0600 
    151 H151       -3.0571  -21.4118  -40.9198 H         1 UNK         0.0600 
    152 H152       -3.3480  -19.7152  -41.2709 H         1 UNK         0.0600 
    153 H153       -1.6979  -20.3347  -41.2196 H         1 UNK         0.0600 
    154 H154       -1.8685  -19.0145  -43.2953 H         1 UNK         0.3000 
    155 H155       -1.7158  -18.5864  -46.8243 H         1 UNK         0.0600 
    156 H156       -3.1308  -16.9589  -44.6408 H         1 UNK         0.0600 
    157 H157       -3.7864  -17.3895  -46.2165 H         1 UNK         0.0600 
    158 H158       -2.4337  -16.2731  -46.1024 H         1 UNK         0.0600 
    159 H159       -0.5512  -17.0893  -44.7292 H         1 UNK         0.3000 
    160 H160        2.1582  -19.1400  -43.8885 H         1 UNK         0.0600 
    161 H161        2.4176  -17.0467  -46.1086 H         1 UNK         0.0600 
    162 H162        3.0582  -18.6813  -46.1401 H         1 UNK         0.0600 
    163 H163        3.7054  -17.5119  -44.9976 H         1 UNK         0.0600 
    164 H164        1.8226  -16.2926  -43.7752 H         1 UNK         0.3000 
    165 H165       -0.4449  -16.1656  -41.0798 H         1 UNK         0.0600 
    166 H166        1.3538  -15.1307  -39.7186 H         1 UNK         0.0600 
    167 H167        1.5559  -16.8747  -39.7530 H         1 UNK         0.0600 
    168 H168        2.5889  -15.8560  -40.7489 H         1 UNK         0.0600 
    169 H169        1.3275  -14.1825  -42.0698 H         1 UNK         0.3000 
    170 H170       -0.1529  -13.4872  -45.1550 H         1 UNK         0.0600 
    171 H171       -1.8688  -12.4233  -43.6322 H         1 UNK         0.0600 
    172 H172       -0.5547  -11.7442  -42.6773 H         1 UNK         0.0600 
    173 H173       -0.7693  -11.2709  -44.3638 H         1 UNK         0.0600 
    174 H174        1.6481  -11.8577  -43.8052 H         1 UNK         0.3000 
    175 H175        4.4751  -13.3948  -43.5283 H         1 UNK         0.0600 
    176 H176        4.2689  -12.8488  -46.5322 H         1 UNK         0.0600 
    177 H177        5.7546  -12.7649  -45.5885 H         1 UNK         0.0600 
    178 H178        4.9107  -14.2930  -45.7663 H         1 UNK         0.0600 
    179 H179        3.8594  -10.9013  -44.9844 H         1 UNK         0.3000 
    180 H180        3.1984   -9.0515  -42.0842 H         1 UNK         0.0600 
    181 H181        5.9329   -8.9923  -43.4712 H         1 UNK         0.0600 
    182 H182        5.6715   -9.1578  -41.7391 H         1 UNK         0.0600 
    183 H183        5.2083   -7.6720  -42.5520 H         1 UNK         0.0600 
    184 H184        3.9484   -8.2178  -44.7124 H         1 UNK         0.3000 
    185 H185        0.7482   -7.6580  -45.7348 H         1 UNK         0.0600 
    186 H186        2.9299   -6.4399  -45.7255 H         1 UNK         0.0600 
    187 H187        3.6677   -7.7179  -46.6916 H         1 UNK         0.0600 
    188 H188        2.3680   -6.7418  -47.3583 H         1 UNK         0.0600 
    189 H189        0.4322   -9.1647  -47.3366 H         1 UNK         0.3000 
    190 H190       -2.8538  -22.2757  -46.4177 H         1 UNK         0.3000 
    191 H191       -4.8082  -23.7136  -47.8651 H         1 UNK         0.0600 
    192 H192       -5.3715  -21.8345  -46.3865 H         1 UNK         0.0600 
    193 H193       -6.2426  -23.2699  -45.8722 H         1 UNK         0.0600 
    194 H194       -4.8294  -22.7352  -44.9706 H         1 UNK         0.0600 
    195 H195       -2.8133  -24.7008  -45.0752 H         1 UNK         0.3000 
    196 H196       -4.1758  -27.2296  -44.6968 H         1 UNK         0.0600 
    197 H197       -2.3304  -27.6262  -43.0581 H         1 UNK         0.0600 
    198 H198       -3.1106  -26.0719  -42.8067 H         1 UNK         0.0600 
    199 H199       -1.5344  -26.1478  -43.5865 H         1 UNK         0.0600 
    200 H200       -0.8831  -26.3508  -45.9230 H         1 UNK         0.3000 
    201 H201       -0.2723  -29.1318  -46.4405 H         1 UNK         0.0600 
    202 H202        1.3837  -27.5286  -45.5022 H         1 UNK         0.0600 
    203 H203        1.3401  -26.5888  -46.9930 H         1 UNK         0.0600 
    204 H204        1.9614  -28.2342  -47.0045 H         1 UNK         0.0600 
    205 H205       -1.0510  -26.3140  -48.5076 H         1 UNK         0.3000 
    206 H206       -0.5745  -27.9479  -50.9712 H         1 UNK         0.0600 
    207 H207        0.8000  -25.8642  -50.7032 H         1 UNK         0.0600 
    208 H208       -0.2712  -25.7936  -52.0911 H         1 UNK         0.0600 
    209 H209       -0.6761  -24.9057  -50.6304 H         1 UNK         0.0600 
    210 H210       -3.0779  -27.3124  -48.9957 H         1 UNK         0.3000 
    211 H211       -5.2970  -27.1706  -49.1025 H         1 UNK         0.0600 
    212 H212       -5.0607  -28.2553  -51.9547 H         1 UNK         0.0600 
    213 H213       -6.4775  -28.3272  -50.9166 H         1 UNK         0.0600 
    214 H214       -5.0393  -29.2388  -50.4914 H         1 UNK         0.0600 
    215 H215       -3.7615  -24.8400  -49.7900 H         1 UNK         0.3000 
    216 H216       -3.9563  -22.7166  -50.2937 H         1 UNK         0.0600 
    217 H217       -6.1159  -21.6426  -50.8350 H         1 UNK         0.0600 
    218 H218       -6.3049  -22.7433  -49.4824 H         1 UNK         0.0600 
    219 H219       -6.8773  -23.1933  -51.0888 H         1 UNK         0.0600 
    220 H220       -3.9834  -25.0783  -52.6230 H         1 UNK         0.3000 
    221 H221       -4.5207  -23.6097  -55.0044 H         1 UNK         0.0600 
    222 H222       -2.9229  -26.1979  -54.6418 H         1 UNK         0.0600 
    223 H223       -4.6792  -26.1067  -54.7786 H         1 UNK         0.0600 
    224 H224       -3.6630  -25.6255  -56.1288 H         1 UNK         0.0600 
    225 H225       -1.7848  -23.5277  -52.9727 H         1 UNK         0.3000 
    226 H226        0.3105  -22.9322  -54.8120 H         1 UNK         0.0600 
    227 H227        0.8187  -23.5831  -52.5188 H         1 UNK         0.0600 
    228 H228        1.3914  -21.9402  -52.7300 H         1 UNK         0.0600 
    229 H229       -0.1089  -22.2381  -51.8587 H         1 UNK         0.0600 
    230 H230       -2.3291  -20.9511  -53.5777 H         1 UNK         0.3000 
    231 H231       -1.3882  -18.6848  -55.2757 H         1 UNK         0.0600 
    232 H232       -0.8216  -18.1906  -52.8575 H         1 UNK         0.0600 
    233 H233       -2.5333  -18.3666  -52.4596 H         1 UNK         0.0600 
    234 H234       -2.0045  -17.0760  -53.5255 H         1 UNK         0.0600 
    235 H235       -3.9621  -20.7566  -54.2459 H         1 UNK         0.3000 
    236 H236       -6.0764  -21.0113  -54.7295 H         1 UNK         0.0600 
    237 H237       -7.1360  -20.0280  -56.7159 H         1 UNK         0.0600 
    238 H238       -5.8229  -18.8806  -56.9188 H         1 UNK         0.0600 
    239 H239       -5.5298  -20.6058  -57.1313 H         1 UNK         0.0600 
    240 H240       -5.6308  -19.8924  -52.5186 H         1 UNK         0.3000 
    241 H241       -6.2790  -17.2872  -51.9416 H         1 UNK         0.0600 
    242 H242       -9.7582  -16.7251  -51.4787 H         1 UNK         0.3800 
    243 H243       -8.1540  -16.0609  -51.3712 H         1 UNK         0.3800 
    244 H244       -6.8165  -19.6096  -50.0297 H         1 UNK         0.0800 
    245 H245       -6.4929  -17.9606  -49.5968 H         1 UNK         0.0800 
    246 H246       -4.3007  -17.1346  -48.9079 H         1 UNK         0.0800 
    247 H247       -3.9790  -16.8041  -50.5981 H         1 UNK         0.0800 
@<TRIPOS>BOND
     1    1    2 1    
     2    1  127 1    
     3    1  128 1    
     4    1  129 1    
     5    2    3 2    
     6    2    4 am   BACKBONE|DICT|INTERRES
     7    4    5 1    
     8    4  130 1    
     9    5    6 1    
    10    5   65 1    
    11    5  131 1    
    12    6    7 1    
    13    6  132 1    
    14    6  133 1    
    15    7    8 1    
    16    8    9 1    
    17    8  134 1    
    18    8  135 1    
    19    9   10 ar   
    20    9   14 ar   
    21   10   11 ar   
    22   10  136 1    
    23   11   12 ar   
    24   11  126 1    
    25   12   13 ar   
    26   12  137 1    
    27   13   14 ar   
    28   13   15 1    
    29   14  138 1    
    30   15   16 1    
    31   15  139 1    
    32   15  140 1    
    33   16   17 1    
    34   17   18 1    
    35   17  141 1    
    36   17  142 1    
    37   18   19 1    
    38   18   67 1    
    39   18  143 1    
    40   19   20 am   BACKBONE|DICT|INTERRES
    41   19  144 1    
    42   20   21 2    
    43   20   22 1    
    44   22   23 1    
    45   22   24 1    
    46   22  145 1    
    47   23  146 1    
    48   23  147 1    
    49   23  148 1    
    50   24   25 am   BACKBONE|DICT|INTERRES
    51   24  149 1    
    52   25   26 2    
    53   25   27 1    
    54   27   28 1    
    55   27   29 1    
    56   27  150 1    
    57   28  151 1    
    58   28  152 1    
    59   28  153 1    
    60   29   30 am   BACKBONE|DICT|INTERRES
    61   29  154 1    
    62   30   31 2    
    63   30   32 1    
    64   32   33 1    
    65   32   34 1    
    66   32  155 1    
    67   33  156 1    
    68   33  157 1    
    69   33  158 1    
    70   34   35 am   BACKBONE|DICT|INTERRES
    71   34  159 1    
    72   35   36 2    
    73   35   37 1    
    74   37   38 1    
    75   37   39 1    
    76   37  160 1    
    77   38  161 1    
    78   38  162 1    
    79   38  163 1    
    80   39   40 am   BACKBONE|DICT|INTERRES
    81   39  164 1    
    82   40   41 2    
    83   40   42 1    
    84   42   43 1    
    85   42   44 1    
    86   42  165 1    
    87   43  166 1    
    88   43  167 1    
    89   43  168 1    
    90   44   45 am   BACKBONE|DICT|INTERRES
    91   44  169 1    
    92   45   46 2    
    93   45   47 1    
    94   47   48 1    
    95   47   49 1    
    96   47  170 1    
    97   48  171 1    
    98   48  172 1    
    99   48  173 1    
   100   49   50 am   BACKBONE|DICT|INTERRES
   101   49  174 1    
   102   50   51 2    
   103   50   52 1    
   104   52   53 1    
   105   52   54 1    
   106   52  175 1    
   107   53  176 1    
   108   53  177 1    
   109   53  178 1    
   110   54   55 am   BACKBONE|DICT|INTERRES
   111   54  179 1    
   112   55   56 2    
   113   55   57 1    
   114   57   58 1    
   115   57   59 1    
   116   57  180 1    
   117   58  181 1    
   118   58  182 1    
   119   58  183 1    
   120   59   60 am   BACKBONE|DICT|INTERRES
   121   59  184 1    
   122   60   61 2    
   123   60   62 1    
   124   62   63 1    
   125   62   64 1    
   126   62  185 1    
   127   63  186 1    
   128   63  187 1    
   129   63  188 1    
   130   64   65 am   BACKBONE|DICT|INTERRES
   131   64  189 1    
   132   65   66 2    
   133   67   68 2    
   134   67   69 am   BACKBONE|DICT|INTERRES
   135   69   70 1    
   136   69  190 1    
   137   70   71 1    
   138   70   72 1    
   139   70  191 1    
   140   71  192 1    
   141   71  193 1    
   142   71  194 1    
   143   72   73 2    
   144   72   74 am   BACKBONE|DICT|INTERRES
   145   74   75 1    
   146   74  195 1    
   147   75   76 1    
   148   75   77 1    
   149   75  196 1    
   150   76  197 1    
   151   76  198 1    
   152   76  199 1    
   153   77   78 2    
   154   77   79 am   BACKBONE|DICT|INTERRES
   155   79   80 1    
   156   79  200 1    
   157   80   81 1    
   158   80   82 1    
   159   80  201 1    
   160   81  202 1    
   161   81  203 1    
   162   81  204 1    
   163   82   83 2    
   164   82   84 am   BACKBONE|DICT|INTERRES
   165   84   85 1    
   166   84  205 1    
   167   85   86 1    
   168   85   87 1    
   169   85  206 1    
   170   86  207 1    
   171   86  208 1    
   172   86  209 1    
   173   87   88 2    
   174   87   89 am   BACKBONE|DICT|INTERRES
   175   89   90 1    
   176   89  210 1    
   177   90   91 1    
   178   90   92 1    
   179   90  211 1    
   180   91  212 1    
   181   91  213 1    
   182   91  214 1    
   183   92   93 2    
   184   92   94 am   BACKBONE|DICT|INTERRES
   185   94   95 1    
   186   94  215 1    
   187   95   96 1    
   188   95   97 1    
   189   95  216 1    
   190   96  217 1    
   191   96  218 1    
   192   96  219 1    
   193   97   98 2    
   194   97   99 am   BACKBONE|DICT|INTERRES
   195   99  100 1    
   196   99  220 1    
   197  100  101 1    
   198  100  102 1    
   199  100  221 1    
   200  101  222 1    
   201  101  223 1    
   202  101  224 1    
   203  102  103 2    
   204  102  104 am   BACKBONE|DICT|INTERRES
   205  104  105 1    
   206  104  225 1    
   207  105  106 1    
   208  105  107 1    
   209  105  226 1    
   210  106  227 1    
   211  106  228 1    
   212  106  229 1    
   213  107  108 2    
   214  107  109 am   BACKBONE|DICT|INTERRES
   215  109  110 1    
   216  109  230 1    
   217  110  111 1    
   218  110  112 1    
   219  110  231 1    
   220  111  232 1    
   221  111  233 1    
   222  111  234 1    
   223  112  113 2    
   224  112  114 am   BACKBONE|DICT|INTERRES
   225  114  115 1    
   226  114  235 1    
   227  115  116 1    
   228  115  117 1    
   229  115  236 1    
   230  116  237 1    
   231  116  238 1    
   232  116  239 1    
   233  117  118 2    
   234  117  119 am   BACKBONE|DICT|INTERRES
   235  119  120 1    
   236  119  240 1    
   237  120  121 1    
   238  120  124 1    
   239  120  241 1    
   240  121  122 am   BACKBONE|DICT|INTERRES
   241  121  123 2    
   242  122  242 1    
   243  122  243 1    
   244  124  125 1    
   245  124  244 1    
   246  124  245 1    
   247  125  126 1    
   248  126  246 1    
   249  126  247 1    
@<TRIPOS>SUBSTRUCTURE
     1 UNK         1 GROUP             0       ****    0 ROOT    
