@<TRIPOS>MOLECULE
3R540
247   249    1
SMALL
USER_CHARGES


@<TRIPOS>ATOM
      1 CA         -3.9004  -12.5580  -48.2560 C.3       0 UNK        -0.1800 
      2 C          -2.4613  -12.3111  -47.8253 C.2       0 UNK         0.5000 
      3 O          -2.1640  -11.2659  -47.2464 O.2       0 UNK        -0.5000 
      4 N          -1.5707  -13.2665  -48.1159 N.am      1 UNK        -0.5000 
      5 CA         -0.1555  -13.2572  -47.7322 C.3       1 UNK         0.1400 
      6 C6          0.6483  -14.3805  -48.4345 C.3       23 UNK        -0.0398 
      7 S7          0.6128  -14.2245  -50.2544 S.3       23 UNK        -0.2404 
      8 C8         -0.6558  -15.4512  -50.7054 C.3       23 UNK        -0.0205 
      9 C9         -0.0566  -16.7497  -51.2264 C.ar      23 UNK        -0.0193 
     10 C10        -0.2511  -17.1218  -52.5595 C.ar      23 UNK        -0.1150 
     11 C11         0.2520  -18.3333  -53.0410 C.ar      23 UNK        -0.0193 
     12 C12         0.9680  -19.1705  -52.1813 C.ar      23 UNK        -0.1150 
     13 C13         1.1926  -18.8032  -50.8512 C.ar      23 UNK        -0.0193 
     14 C14         0.6713  -17.5919  -50.3799 C.ar      23 UNK        -0.1150 
     15 C15         2.0461  -19.7002  -49.9583 C.3       23 UNK        -0.0205 
     16 S16         1.3986  -19.8895  -48.2663 S.3       23 UNK        -0.2404 
     17 C17        -0.1014  -20.8881  -48.5430 C.3       23 UNK        -0.0398 
     18 CA         -0.1597  -22.1348  -47.6296 C.3       11 UNK         0.1400 
     19 N          -0.0808  -21.8046  -46.2026 N.am      11 UNK        -0.5000 
     20 C           0.0367  -22.7044  -45.2157 C.2       10 UNK         0.5000 
     21 O           0.1722  -23.9121  -45.4063 O.2       10 UNK        -0.5000 
     22 CA         -0.0868  -22.1756  -43.7762 C.3       10 UNK         0.1400 
     23 CB          1.2656  -21.6761  -43.2458 C.3       10 UNK        -0.1800 
     24 N          -1.0905  -21.1145  -43.6801 N.am      10 UNK        -0.5000 
     25 C          -2.4111  -21.3227  -43.7835 C.2       9 UNK         0.5000 
     26 O          -2.9151  -22.4399  -43.8961 O.2       9 UNK        -0.5000 
     27 CA         -3.3163  -20.0780  -43.8165 C.3       9 UNK         0.1400 
     28 CB         -3.6959  -19.6440  -42.3932 C.3       9 UNK        -0.1800 
     29 N          -2.6950  -18.9600  -44.5290 N.am      9 UNK        -0.5000 
     30 C          -2.5261  -18.9261  -45.8599 C.2       8 UNK         0.5000 
     31 O          -2.9209  -19.8154  -46.6142 O.2       8 UNK        -0.5000 
     32 CA         -1.7544  -17.7301  -46.4564 C.3       8 UNK         0.1400 
     33 CB         -2.7325  -16.6253  -46.8783 C.3       8 UNK        -0.1800 
     34 N          -0.7338  -17.1622  -45.5718 N.am      8 UNK        -0.5000 
     35 C           0.2788  -17.8503  -45.0253 C.2       7 UNK         0.5000 
     36 O           0.4755  -19.0462  -45.2317 O.2       7 UNK        -0.5000 
     37 CA          1.1813  -17.1081  -44.0225 C.3       7 UNK         0.1400 
     38 CB          2.3354  -16.4077  -44.7556 C.3       7 UNK        -0.1800 
     39 N           0.4910  -16.1319  -43.1750 N.am      7 UNK        -0.5000 
     40 C          -0.6246  -16.3258  -42.4603 C.2       6 UNK         0.5000 
     41 O          -1.2535  -17.3849  -42.4412 O.2       6 UNK        -0.5000 
     42 CA         -1.0881  -15.1332  -41.6012 C.3       6 UNK         0.1400 
     43 CB         -2.5752  -15.2341  -41.2191 C.3       6 UNK        -0.1800 
     44 N          -0.2902  -15.0236  -40.3793 N.am      6 UNK        -0.5000 
     45 C           0.9699  -14.5782  -40.3155 C.2       5 UNK         0.5000 
     46 O           1.5918  -14.1436  -41.2923 O.2       5 UNK        -0.5000 
     47 CA          1.6501  -14.6405  -38.9380 C.3       5 UNK         0.1400 
     48 CB          1.8921  -16.0940  -38.4955 C.3       5 UNK        -0.1800 
     49 N           2.9294  -13.9502  -39.0311 N.am      5 UNK        -0.5000 
     50 C           3.4901  -13.1684  -38.1031 C.2       4 UNK         0.5000 
     51 O           3.0350  -13.0151  -36.9689 O.2       4 UNK        -0.5000 
     52 CA          4.7744  -12.4189  -38.5212 C.3       4 UNK         0.1400 
     53 CB          6.0179  -13.1329  -37.9691 C.3       4 UNK        -0.1800 
     54 N           4.9112  -12.2831  -39.9766 N.am      4 UNK        -0.5000 
     55 C           4.1468  -11.4928  -40.7432 C.2       3 UNK         0.5000 
     56 O           3.3040  -10.7172  -40.2890 O.2       3 UNK        -0.5000 
     57 CA          4.2973  -11.6197  -42.2675 C.3       3 UNK         0.1400 
     58 CB          5.4693  -12.5099  -42.7323 C.3       3 UNK        -0.1800 
     59 N           3.0413  -12.1588  -42.7731 N.am      3 UNK        -0.5000 
     60 C           2.4664  -11.8501  -43.9356 C.2       2 UNK         0.5000 
     61 O           2.9573  -11.0964  -44.7807 O.2       2 UNK        -0.5000 
     62 CA          1.0944  -12.4890  -44.1787 C.3       2 UNK         0.1400 
     63 CB         -0.0174  -11.7220  -43.4396 C.3       2 UNK        -0.1800 
     64 N           0.8164  -12.5193  -45.6077 N.am      2 UNK        -0.5000 
     65 C          -0.0141  -13.3790  -46.2026 C.2       1 UNK         0.5000 
     66 O          -0.6367  -14.2589  -45.6008 O.2       1 UNK        -0.5000 
     67 C          -1.4115  -22.9829  -47.9362 C.2       11 UNK         0.5000 
     68 O          -1.3051  -23.9897  -48.6353 O.2       11 UNK        -0.5000 
     69 N          -2.5642  -22.6017  -47.3655 N.am      12 UNK        -0.5000 
     70 CA         -3.8177  -23.3512  -47.4566 C.3       12 UNK         0.1400 
     71 CB         -4.9722  -22.5154  -46.8872 C.3       12 UNK        -0.1800 
     72 C          -3.7461  -24.7369  -46.7925 C.2       12 UNK         0.5000 
     73 O          -4.2298  -25.7052  -47.3784 O.2       12 UNK        -0.5000 
     74 N          -3.0943  -24.8290  -45.6243 N.am      13 UNK        -0.5000 
     75 CA         -2.8175  -26.0912  -44.9288 C.3       13 UNK         0.1400 
     76 CB         -2.2320  -25.7976  -43.5398 C.3       13 UNK        -0.1800 
     77 C          -1.8914  -27.0327  -45.7276 C.2       13 UNK         0.5000 
     78 O          -2.0556  -28.2508  -45.6579 O.2       13 UNK        -0.5000 
     79 N          -0.9713  -26.4505  -46.5080 N.am      14 UNK        -0.5000 
     80 CA         -0.0955  -27.1403  -47.4579 C.3       14 UNK         0.1400 
     81 CB          1.1681  -26.2890  -47.6695 C.3       14 UNK        -0.1800 
     82 C          -0.7786  -27.4662  -48.8067 C.2       14 UNK         0.5000 
     83 O          -0.1192  -28.0196  -49.6876 O.2       14 UNK        -0.5000 
     84 N          -2.0694  -27.1256  -48.9510 N.am      15 UNK        -0.5000 
     85 CA         -2.9269  -27.3206  -50.1258 C.3       15 UNK         0.1400 
     86 CB         -3.0886  -28.8185  -50.4609 C.3       15 UNK        -0.1800 
     87 C          -2.5175  -26.4643  -51.3435 C.2       15 UNK         0.5000 
     88 O          -2.7687  -26.8570  -52.4837 O.2       15 UNK        -0.5000 
     89 N          -1.9284  -25.2929  -51.0798 N.am      16 UNK        -0.5000 
     90 CA         -1.5360  -24.2857  -52.0626 C.3       16 UNK         0.1400 
     91 CB          0.0008  -24.2415  -52.1471 C.3       16 UNK        -0.1800 
     92 C          -2.1521  -22.9334  -51.6618 C.2       16 UNK         0.5000 
     93 O          -1.4503  -21.9239  -51.6129 O.2       16 UNK        -0.5000 
     94 N          -3.4507  -22.9613  -51.3245 N.am      17 UNK        -0.5000 
     95 CA         -4.2593  -21.8317  -50.8621 C.3       17 UNK         0.1400 
     96 CB         -5.7139  -22.3008  -50.6987 C.3       17 UNK        -0.1800 
     97 C          -4.2018  -20.6107  -51.7962 C.2       17 UNK         0.5000 
     98 O          -4.2850  -20.7763  -53.0157 O.2       17 UNK        -0.5000 
     99 N          -4.0847  -19.4231  -51.1854 N.am      18 UNK        -0.5000 
    100 CA        -3.9145  -18.1205  -51.8290 C.3       18 UNK         0.1400 
    101 CB        -3.9268  -17.0282  -50.7483 C.3       18 UNK        -0.1800 
    102 C         -4.9722  -17.8418  -52.9118 C.2       18 UNK         0.5000 
    103 O         -6.1640  -17.7859  -52.6021 O.2       18 UNK        -0.5000 
    104 N         -4.5081  -17.7357  -54.1633 N.am      19 UNK        -0.5000 
    105 CA        -5.2425  -17.5976  -55.4275 C.3       19 UNK         0.1400 
    106 CB        -6.1117  -16.3262  -55.4419 C.3       19 UNK        -0.1800 
    107 C         -6.0634  -18.8405  -55.8305 C.2       19 UNK         0.5000 
    108 O         -6.0990  -19.1774  -57.0141 O.2       19 UNK        -0.5000 
    109 N         -6.6990  -19.4994  -54.8555 N.am      20 UNK        -0.5000 
    110 CA        -7.5782  -20.6542  -55.0259 C.3       20 UNK         0.1400 
    111 CB        -8.2816  -20.9400  -53.6905 C.3       20 UNK        -0.1800 
    112 C         -6.8735  -21.9211  -55.5458 C.2       20 UNK         0.5000 
    113 O         -7.4905  -22.6787  -56.2964 O.2       20 UNK        -0.5000 
    114 N         -5.6143  -22.1373  -55.1445 N.am      21 UNK        -0.5000 
    115 CA        -4.8278  -23.3221  -55.4925 C.3       21 UNK         0.1400 
    116 CB        -4.9970  -24.3955  -54.4014 C.3       21 UNK        -0.1800 
    117 C         -3.3563  -22.9749  -55.7847 C.2       21 UNK         0.5000 
    118 O         -2.4831  -23.8291  -55.6267 O.2       21 UNK        -0.5000 
    119 N         -3.1038  -21.7398  -56.2356 N.am      22 UNK        -0.5000 
    120 CA        -1.7797  -21.2742  -56.6898 C.3       22 UNK         0.1400 
    121 C         -1.4071  -21.7225  -58.1349 C.2       22 UNK         0.5000 
    122 N         -2.3123  -22.3050  -58.9125 N.am      22 UNK        -0.7600 
    123 O         -0.2676  -21.5468  -58.5573 O.2       22 UNK        -0.5000 
    124 C124       -1.6237  -19.7411  -56.5327 C.3       23 UNK        -0.0398 
    125 S125       -1.6877  -19.2301  -54.7854 S.3       23 UNK        -0.2404 
    126 C126        0.0333  -18.7275  -54.4931 C.3       23 UNK        -0.0205 
    127 H127       -4.0160  -13.5215  -48.7537 H         1 UNK         0.0600 
    128 H128       -4.2254  -11.7782  -48.9448 H         1 UNK         0.0600 
    129 H129       -4.5589  -12.5440  -47.3874 H         1 UNK         0.0600 
    130 H130       -1.8855  -14.0958  -48.5925 H         1 UNK         0.3000 
    131 H131        0.2614  -12.2964  -48.0423 H         1 UNK         0.0600 
    132 H132        1.6954  -14.3413  -48.1286 H         1 UNK         0.0800 
    133 H133        0.2872  -15.3653  -48.1334 H         1 UNK         0.0800 
    134 H134       -1.2979  -15.6692  -49.8530 H         1 UNK         0.0800 
    135 H135       -1.3036  -15.0038  -51.4608 H         1 UNK         0.0800 
    136 H136       -0.8073  -16.4765  -53.2249 H         1 UNK         0.1150 
    137 H137        1.3635  -20.1050  -52.5539 H         1 UNK         0.1150 
    138 H138        0.8410  -17.2999  -49.3541 H         1 UNK         0.1150 
    139 H139        2.1649  -20.6904  -50.4013 H         1 UNK         0.0800 
    140 H140        3.0458  -19.2686  -49.8986 H         1 UNK         0.0800 
    141 H141       -0.1235  -21.1949  -49.5880 H         1 UNK         0.0800 
    142 H142       -0.9732  -20.2504  -48.3978 H         1 UNK         0.0800 
    143 H143        0.7091  -22.7543  -47.8624 H         1 UNK         0.0600 
    144 H144       -0.1021  -20.8191  -45.9591 H         1 UNK         0.3000 
    145 H145       -0.4072  -23.0043  -43.1416 H         1 UNK         0.0600 
    146 H146        1.1762  -21.3034  -42.2253 H         1 UNK         0.0600 
    147 H147        1.9968  -22.4852  -43.2337 H         1 UNK         0.0600 
    148 H148        1.6783  -20.8768  -43.8605 H         1 UNK         0.0600 
    149 H149       -0.7467  -20.1637  -43.6649 H         1 UNK         0.3000 
    150 H150       -4.2357  -20.3465  -44.3408 H         1 UNK         0.0600 
    151 H151       -4.2470  -20.4341  -41.8816 H         1 UNK         0.0600 
    152 H152       -4.3311  -18.7582  -42.4051 H         1 UNK         0.0600 
    153 H153       -2.8161  -19.4184  -41.7901 H         1 UNK         0.0600 
    154 H154       -2.2912  -18.2253  -43.9561 H         1 UNK         0.3000 
    155 H155       -1.2426  -18.0883  -47.3512 H         1 UNK         0.0600 
    156 H156       -3.2010  -16.1522  -46.0144 H         1 UNK         0.0600 
    157 H157       -2.2223  -15.8518  -47.4478 H         1 UNK         0.0600 
    158 H158       -3.5286  -17.0214  -47.5100 H         1 UNK         0.0600 
    159 H159       -0.8072  -16.1686  -45.3684 H         1 UNK         0.3000 
    160 H160        1.6077  -17.8605  -43.3563 H         1 UNK         0.0600 
    161 H161        3.0385  -15.9611  -44.0521 H         1 UNK         0.0600 
    162 H162        1.9732  -15.6186  -45.4149 H         1 UNK         0.0600 
    163 H163        2.8948  -17.1157  -45.3688 H         1 UNK         0.0600 
    164 H164        0.9676  -15.2513  -43.0393 H         1 UNK         0.3000 
    165 H165       -0.9603  -14.2250  -42.1928 H         1 UNK         0.0600 
    166 H166       -2.9035  -14.3467  -40.6778 H         1 UNK         0.0600 
    167 H167       -3.2005  -15.3212  -42.1087 H         1 UNK         0.0600 
    168 H168       -2.7751  -16.1033  -40.5910 H         1 UNK         0.0600 
    169 H169       -0.7191  -15.3855  -39.5399 H         1 UNK         0.3000 
    170 H170        1.0033  -14.1356  -38.2175 H         1 UNK         0.0600 
    171 H171        2.4008  -16.1314  -37.5320 H         1 UNK         0.0600 
    172 H172        2.5043  -16.6364  -39.2172 H         1 UNK         0.0600 
    173 H173        0.9532  -16.6376  -38.3851 H         1 UNK         0.0600 
    174 H174        3.3395  -13.9708  -39.9545 H         1 UNK         0.3000 
    175 H175        4.7301  -11.4193  -38.0835 H         1 UNK         0.0600 
    176 H176        6.9275  -12.5792  -38.2029 H         1 UNK         0.0600 
    177 H177        6.1204  -14.1383  -38.3794 H         1 UNK         0.0600 
    178 H178        5.9654  -13.2253  -36.8834 H         1 UNK         0.0600 
    179 H179        5.5851  -12.8873  -40.4248 H         1 UNK         0.3000 
    180 H180        4.4498  -10.6096  -42.6535 H         1 UNK         0.0600 
    181 H181        5.3462  -13.5468  -42.4170 H         1 UNK         0.0600 
    182 H182        6.4214  -12.1462  -42.3436 H         1 UNK         0.0600 
    183 H183        5.5486  -12.5074  -43.8196 H         1 UNK         0.0600 
    184 H184        2.5386  -12.7730  -42.1354 H         1 UNK         0.3000 
    185 H185        1.1354  -13.5137  -43.8107 H         1 UNK         0.0600 
    186 H186        0.1606  -11.7140  -42.3634 H         1 UNK         0.0600 
    187 H187       -0.0760  -10.6851  -43.7725 H         1 UNK         0.0600 
    188 H188       -0.9934  -12.1790  -43.6031 H         1 UNK         0.0600 
    189 H189        1.3401  -11.8423  -46.1488 H         1 UNK         0.3000 
    190 H190       -2.5932  -21.7284  -46.8477 H         1 UNK         0.3000 
    191 H191       -4.0154  -23.5251  -48.5140 H         1 UNK         0.0600 
    192 H192       -5.0692  -21.5659  -47.4140 H         1 UNK         0.0600 
    193 H193       -5.9218  -23.0420  -46.9889 H         1 UNK         0.0600 
    194 H194       -4.8293  -22.2978  -45.8291 H         1 UNK         0.0600 
    195 H195       -2.7784  -23.9779  -45.1700 H         1 UNK         0.3000 
    196 H196       -3.7699  -26.6073  -44.7910 H         1 UNK         0.0600 
    197 H197       -2.0771  -26.7205  -42.9796 H         1 UNK         0.0600 
    198 H198       -2.9022  -25.1692  -42.9529 H         1 UNK         0.0600 
    199 H199       -1.2697  -25.2908  -43.6064 H         1 UNK         0.0600 
    200 H200       -0.8661  -25.4434  -46.4557 H         1 UNK         0.3000 
    201 H201        0.2123  -28.0913  -47.0188 H         1 UNK         0.0600 
    202 H202        1.6649  -26.0785  -46.7222 H         1 UNK         0.0600 
    203 H203        0.9377  -25.3355  -48.1442 H         1 UNK         0.0600 
    204 H204        1.8887  -26.8049  -48.3049 H         1 UNK         0.0600 
    205 H205       -2.5205  -26.6564  -48.1747 H         1 UNK         0.3000 
    206 H206       -3.9109  -26.9532  -49.8322 H         1 UNK         0.0600 
    207 H207       -3.3822  -29.3901  -49.5804 H         1 UNK         0.0600 
    208 H208       -3.8617  -28.9685  -51.2153 H         1 UNK         0.0600 
    209 H209       -2.1669  -29.2506  -50.8511 H         1 UNK         0.0600 
    210 H210       -1.7628  -25.0272  -50.1103 H         1 UNK         0.3000 
    211 H211       -1.9297  -24.5336  -53.0497 H         1 UNK         0.0600 
    212 H212        0.4460  -23.9629  -51.1909 H         1 UNK         0.0600 
    213 H213        0.3313  -23.5163  -52.8918 H         1 UNK         0.0600 
    214 H214        0.4060  -25.2116  -52.4350 H         1 UNK         0.0600 
    215 H215       -3.9289  -23.8459  -51.3959 H         1 UNK         0.3000 
    216 H216       -3.8720  -21.5370  -49.8852 H         1 UNK         0.0600 
    217 H217       -6.3502  -21.4890  -50.3436 H         1 UNK         0.0600 
    218 H218       -5.7983  -23.1147  -49.9795 H         1 UNK         0.0600 
    219 H219       -6.1272  -22.6520  -51.6450 H         1 UNK         0.0600 
    220 H220       -4.0679  -19.4085  -50.1770 H         1 UNK         0.3000 
    221 H221       -2.9265  -18.1224  -52.2906 H         1 UNK         0.0600 
    222 H222       -4.8795  -16.9960  -50.2181 H         1 UNK         0.0600 
    223 H223       -3.1406  -17.1969  -50.0130 H         1 UNK         0.0600 
    224 H224       -3.7608  -16.0433  -51.1864 H         1 UNK         0.0600 
    225 H225       -3.5159  -17.8951  -54.2882 H         1 UNK         0.3000 
    226 H226       -4.4753  -17.4749  -56.1937 H         1 UNK         0.0600 
    227 H227       -5.5195  -15.4410  -55.2099 H         1 UNK         0.0600 
    228 H228       -6.5553  -16.1718  -56.4263 H         1 UNK         0.0600 
    229 H229       -6.9301  -16.3811  -54.7237 H         1 UNK         0.0600 
    230 H230       -6.6084  -19.1274  -53.9152 H         1 UNK         0.3000 
    231 H231       -8.3403  -20.3822  -55.7590 H         1 UNK         0.0600 
    232 H232       -7.5634  -21.1500  -52.8978 H         1 UNK         0.0600 
    233 H233       -8.9462  -21.8012  -53.7715 H         1 UNK         0.0600 
    234 H234       -8.8874  -20.0904  -53.3750 H         1 UNK         0.0600 
    235 H235       -5.1754  -21.4885  -54.4914 H         1 UNK         0.3000 
    236 H236       -5.2018  -23.7436  -56.4276 H         1 UNK         0.0600 
    237 H237       -6.0423  -24.6848  -54.2933 H         1 UNK         0.0600 
    238 H238       -4.4356  -25.3002  -54.6382 H         1 UNK         0.0600 
    239 H239       -4.6508  -24.0361  -53.4357 H         1 UNK         0.0600 
    240 H240       -3.8728  -21.0948  -56.3405 H         1 UNK         0.3000 
    241 H241       -1.0270  -21.7362  -56.0475 H         1 UNK         0.0600 
    242 H242       -2.0532  -22.5939  -59.8431 H         1 UNK         0.3800 
    243 H243       -3.2527  -22.4561  -58.5858 H         1 UNK         0.3800 
    244 H244       -0.6818  -19.3965  -56.9636 H         1 UNK         0.0800 
    245 H245       -2.4122  -19.2200  -57.0778 H         1 UNK         0.0800 
    246 H246        0.2830  -17.8856  -55.1405 H         1 UNK         0.0800 
    247 H247        0.6995  -19.5454  -54.7724 H         1 UNK         0.0800 
@<TRIPOS>BOND
     1    1    2 1    
     2    1  127 1    
     3    1  128 1    
     4    1  129 1    
     5    2    3 2    
     6    2    4 am   BACKBONE|DICT|INTERRES
     7    4    5 1    
     8    4  130 1    
     9    5    6 1    
    10    5   65 1    
    11    5  131 1    
    12    6    7 1    
    13    6  132 1    
    14    6  133 1    
    15    7    8 1    
    16    8    9 1    
    17    8  134 1    
    18    8  135 1    
    19    9   10 ar   
    20    9   14 ar   
    21   10   11 ar   
    22   10  136 1    
    23   11   12 ar   
    24   11  126 1    
    25   12   13 ar   
    26   12  137 1    
    27   13   14 ar   
    28   13   15 1    
    29   14  138 1    
    30   15   16 1    
    31   15  139 1    
    32   15  140 1    
    33   16   17 1    
    34   17   18 1    
    35   17  141 1    
    36   17  142 1    
    37   18   19 1    
    38   18   67 1    
    39   18  143 1    
    40   19   20 am   BACKBONE|DICT|INTERRES
    41   19  144 1    
    42   20   21 2    
    43   20   22 1    
    44   22   23 1    
    45   22   24 1    
    46   22  145 1    
    47   23  146 1    
    48   23  147 1    
    49   23  148 1    
    50   24   25 am   BACKBONE|DICT|INTERRES
    51   24  149 1    
    52   25   26 2    
    53   25   27 1    
    54   27   28 1    
    55   27   29 1    
    56   27  150 1    
    57   28  151 1    
    58   28  152 1    
    59   28  153 1    
    60   29   30 am   BACKBONE|DICT|INTERRES
    61   29  154 1    
    62   30   31 2    
    63   30   32 1    
    64   32   33 1    
    65   32   34 1    
    66   32  155 1    
    67   33  156 1    
    68   33  157 1    
    69   33  158 1    
    70   34   35 am   BACKBONE|DICT|INTERRES
    71   34  159 1    
    72   35   36 2    
    73   35   37 1    
    74   37   38 1    
    75   37   39 1    
    76   37  160 1    
    77   38  161 1    
    78   38  162 1    
    79   38  163 1    
    80   39   40 am   BACKBONE|DICT|INTERRES
    81   39  164 1    
    82   40   41 2    
    83   40   42 1    
    84   42   43 1    
    85   42   44 1    
    86   42  165 1    
    87   43  166 1    
    88   43  167 1    
    89   43  168 1    
    90   44   45 am   BACKBONE|DICT|INTERRES
    91   44  169 1    
    92   45   46 2    
    93   45   47 1    
    94   47   48 1    
    95   47   49 1    
    96   47  170 1    
    97   48  171 1    
    98   48  172 1    
    99   48  173 1    
   100   49   50 am   BACKBONE|DICT|INTERRES
   101   49  174 1    
   102   50   51 2    
   103   50   52 1    
   104   52   53 1    
   105   52   54 1    
   106   52  175 1    
   107   53  176 1    
   108   53  177 1    
   109   53  178 1    
   110   54   55 am   BACKBONE|DICT|INTERRES
   111   54  179 1    
   112   55   56 2    
   113   55   57 1    
   114   57   58 1    
   115   57   59 1    
   116   57  180 1    
   117   58  181 1    
   118   58  182 1    
   119   58  183 1    
   120   59   60 am   BACKBONE|DICT|INTERRES
   121   59  184 1    
   122   60   61 2    
   123   60   62 1    
   124   62   63 1    
   125   62   64 1    
   126   62  185 1    
   127   63  186 1    
   128   63  187 1    
   129   63  188 1    
   130   64   65 am   BACKBONE|DICT|INTERRES
   131   64  189 1    
   132   65   66 2    
   133   67   68 2    
   134   67   69 am   BACKBONE|DICT|INTERRES
   135   69   70 1    
   136   69  190 1    
   137   70   71 1    
   138   70   72 1    
   139   70  191 1    
   140   71  192 1    
   141   71  193 1    
   142   71  194 1    
   143   72   73 2    
   144   72   74 am   BACKBONE|DICT|INTERRES
   145   74   75 1    
   146   74  195 1    
   147   75   76 1    
   148   75   77 1    
   149   75  196 1    
   150   76  197 1    
   151   76  198 1    
   152   76  199 1    
   153   77   78 2    
   154   77   79 am   BACKBONE|DICT|INTERRES
   155   79   80 1    
   156   79  200 1    
   157   80   81 1    
   158   80   82 1    
   159   80  201 1    
   160   81  202 1    
   161   81  203 1    
   162   81  204 1    
   163   82   83 2    
   164   82   84 am   BACKBONE|DICT|INTERRES
   165   84   85 1    
   166   84  205 1    
   167   85   86 1    
   168   85   87 1    
   169   85  206 1    
   170   86  207 1    
   171   86  208 1    
   172   86  209 1    
   173   87   88 2    
   174   87   89 am   BACKBONE|DICT|INTERRES
   175   89   90 1    
   176   89  210 1    
   177   90   91 1    
   178   90   92 1    
   179   90  211 1    
   180   91  212 1    
   181   91  213 1    
   182   91  214 1    
   183   92   93 2    
   184   92   94 am   BACKBONE|DICT|INTERRES
   185   94   95 1    
   186   94  215 1    
   187   95   96 1    
   188   95   97 1    
   189   95  216 1    
   190   96  217 1    
   191   96  218 1    
   192   96  219 1    
   193   97   98 2    
   194   97   99 am   BACKBONE|DICT|INTERRES
   195   99  100 1    
   196   99  220 1    
   197  100  101 1    
   198  100  102 1    
   199  100  221 1    
   200  101  222 1    
   201  101  223 1    
   202  101  224 1    
   203  102  103 2    
   204  102  104 am   BACKBONE|DICT|INTERRES
   205  104  105 1    
   206  104  225 1    
   207  105  106 1    
   208  105  107 1    
   209  105  226 1    
   210  106  227 1    
   211  106  228 1    
   212  106  229 1    
   213  107  108 2    
   214  107  109 am   BACKBONE|DICT|INTERRES
   215  109  110 1    
   216  109  230 1    
   217  110  111 1    
   218  110  112 1    
   219  110  231 1    
   220  111  232 1    
   221  111  233 1    
   222  111  234 1    
   223  112  113 2    
   224  112  114 am   BACKBONE|DICT|INTERRES
   225  114  115 1    
   226  114  235 1    
   227  115  116 1    
   228  115  117 1    
   229  115  236 1    
   230  116  237 1    
   231  116  238 1    
   232  116  239 1    
   233  117  118 2    
   234  117  119 am   BACKBONE|DICT|INTERRES
   235  119  120 1    
   236  119  240 1    
   237  120  121 1    
   238  120  124 1    
   239  120  241 1    
   240  121  122 am   BACKBONE|DICT|INTERRES
   241  121  123 2    
   242  122  242 1    
   243  122  243 1    
   244  124  125 1    
   245  124  244 1    
   246  124  245 1    
   247  125  126 1    
   248  126  246 1    
   249  126  247 1    
@<TRIPOS>SUBSTRUCTURE
     1 UNK         1 GROUP             0       ****    0 ROOT    
