@<TRIPOS>MOLECULE
3R540
247   249    1
SMALL
USER_CHARGES


@<TRIPOS>ATOM
      1 CA          6.8160  -15.3973  -46.3368 C.3       0 UNK        -0.1800 
      2 C           5.7305  -14.5606  -45.6755 C.2       0 UNK         0.5000 
      3 O           5.6528  -14.5080  -44.4478 O.2       0 UNK        -0.5000 
      4 N           4.8960  -13.8921  -46.4809 N.am      1 UNK        -0.5000 
      5 CA          3.8172  -12.9966  -46.0455 C.3       1 UNK         0.1400 
      6 C6          2.7037  -12.8685  -47.1167 C.3       23 UNK        -0.0398 
      7 S7          1.8539  -14.4493  -47.4540 S.3       23 UNK        -0.2404 
      8 C8          2.5696  -14.8954  -49.0710 C.3       23 UNK        -0.0205 
      9 C9          1.8565  -16.0815  -49.7053 C.ar      23 UNK        -0.0193 
     10 C10         0.5902  -15.9048  -50.2670 C.ar      23 UNK        -0.1150 
     11 C11        -0.0838  -16.9755  -50.8588 C.ar      23 UNK        -0.0193 
     12 C12         0.5348  -18.2276  -50.9226 C.ar      23 UNK        -0.1150 
     13 C13         1.8085  -18.4178  -50.3771 C.ar      23 UNK        -0.0193 
     14 C14         2.4606  -17.3426  -49.7612 C.ar      23 UNK        -0.1150 
     15 C15         2.4966  -19.7724  -50.4897 C.3       23 UNK        -0.0205 
     16 S16         2.2778  -20.8028  -49.0040 S.3       23 UNK        -0.2404 
     17 C17         0.5530  -21.3693  -49.1852 C.3       23 UNK        -0.0398 
     18 CA          0.1987  -22.5282  -48.2186 C.3       11 UNK         0.1400 
     19 N           0.2741  -22.1369  -46.8075 N.am      11 UNK        -0.5000 
     20 C           0.1240  -22.9642  -45.7634 C.2       10 UNK         0.5000 
     21 O          -0.0542  -24.1768  -45.8700 O.2       10 UNK        -0.5000 
     22 CA          0.1215  -22.3265  -44.3638 C.3       10 UNK         0.1400 
     23 CB          1.5523  -22.0739  -43.8645 C.3       10 UNK        -0.1800 
     24 N          -0.6459  -21.0820  -44.3308 N.am      10 UNK        -0.5000 
     25 C          -1.9814  -21.0156  -44.4230 C.2       9 UNK         0.5000 
     26 O          -2.7100  -22.0036  -44.5159 O.2       9 UNK        -0.5000 
     27 CA         -2.6040  -19.6065  -44.4575 C.3       9 UNK         0.1400 
     28 CB         -2.7175  -19.0253  -43.0405 C.3       9 UNK        -0.1800 
     29 N          -1.8554  -18.6740  -45.2987 N.am      9 UNK        -0.5000 
     30 C          -1.6667  -18.8244  -46.6169 C.2       8 UNK         0.5000 
     31 O          -2.1385  -19.7456  -47.2818 O.2       8 UNK        -0.5000 
     32 CA         -0.7506  -17.7961  -47.2971 C.3       8 UNK         0.1400 
     33 CB         -1.5493  -16.5232  -47.6136 C.3       8 UNK        -0.1800 
     34 N           0.4435  -17.4632  -46.5125 N.am      8 UNK        -0.5000 
     35 C           1.3435  -18.3506  -46.0600 C.2       7 UNK         0.5000 
     36 O           1.2258  -19.5653  -46.1902 O.2       7 UNK        -0.5000 
     37 CA          2.5613  -17.8102  -45.2968 C.3       7 UNK         0.1400 
     38 CB          3.7434  -17.5675  -46.2437 C.3       7 UNK        -0.1800 
     39 N           2.2412  -16.5908  -44.5566 N.am      7 UNK        -0.5000 
     40 C           1.6624  -16.5999  -43.3482 C.2       6 UNK         0.5000 
     41 O           1.4326  -17.6239  -42.7035 O.2       6 UNK        -0.5000 
     42 CA          1.2265  -15.2370  -42.7843 C.3       6 UNK         0.1400 
     43 CB          2.4274  -14.4583  -42.2235 C.3       6 UNK        -0.1800 
     44 N           0.5100  -14.4079  -43.7572 N.am      6 UNK        -0.5000 
     45 C          -0.6659  -14.7261  -44.3201 C.2       5 UNK         0.5000 
     46 O          -1.2095  -15.8236  -44.1779 O.2       5 UNK        -0.5000 
     47 CA         -1.3458  -13.6493  -45.2003 C.3       5 UNK         0.1400 
     48 CB         -2.8839  -13.6862  -45.0742 C.3       5 UNK        -0.1800 
     49 N          -0.8542  -12.2758  -45.0069 N.am      5 UNK        -0.5000 
     50 C          -0.8958  -11.5494  -43.8806 C.2       4 UNK         0.5000 
     51 O          -1.2950  -11.9719  -42.7939 O.2       4 UNK        -0.5000 
     52 CA         -0.3624  -10.1162  -43.9710 C.3       4 UNK         0.1400 
     53 CB         -1.4645   -9.0798  -43.6908 C.3       4 UNK        -0.1800 
     54 N           0.7113   -9.9929  -42.9944 N.am      4 UNK        -0.5000 
     55 C           1.7681   -9.1825  -43.1050 C.2       3 UNK         0.5000 
     56 O           1.9026   -8.3623  -44.0141 O.2       3 UNK        -0.5000 
     57 CA          2.8834   -9.3371  -42.0537 C.3       3 UNK         0.1400 
     58 CB          2.4462  -10.0828  -40.7762 C.3       3 UNK        -0.1800 
     59 N           3.9889  -10.0640  -42.6709 N.am      3 UNK        -0.5000 
     60 C           5.0235   -9.5011  -43.3082 C.2       2 UNK         0.5000 
     61 O           5.2509   -8.2905  -43.3231 O.2       2 UNK        -0.5000 
     62 CA          5.9593  -10.4584  -44.0705 C.3       2 UNK         0.1400 
     63 CB          7.1101  -10.9253  -43.1660 C.3       2 UNK        -0.1800 
     64 N           5.2700  -11.6342  -44.6094 N.am      2 UNK        -0.5000 
     65 C           4.3879  -11.6232  -45.6183 C.2       1 UNK         0.5000 
     66 O           4.0502  -10.5985  -46.2120 O.2       1 UNK        -0.5000 
     67 C          -1.1794  -23.1297  -48.5618 C.2       11 UNK         0.5000 
     68 O          -1.2365  -24.1973  -49.1715 O.2       11 UNK        -0.5000 
     69 N          -2.2595  -22.4661  -48.1237 N.am      12 UNK        -0.5000 
     70 CA         -3.6375  -22.9296  -48.2837 C.3       12 UNK         0.1400 
     71 CB         -4.6125  -21.8271  -47.8460 C.3       12 UNK        -0.1800 
     72 C          -3.9184  -24.2368  -47.5270 C.2       12 UNK         0.5000 
     73 O          -4.5658  -25.1215  -48.0859 O.2       12 UNK        -0.5000 
     74 N          -3.4060  -24.3542  -46.2933 N.am      13 UNK        -0.5000 
     75 CA         -3.5068  -25.5625  -45.4736 C.3       13 UNK         0.1400 
     76 CB         -2.9986  -25.2778  -44.0525 C.3       13 UNK        -0.1800 
     77 C          -2.7658  -26.7599  -46.0946 C.2       13 UNK         0.5000 
     78 O          -3.3352  -27.8490  -46.1682 O.2       13 UNK        -0.5000 
     79 N          -1.5347  -26.5287  -46.5728 N.am      14 UNK        -0.5000 
     80 CA         -0.7049  -27.5191  -47.2633 C.3       14 UNK         0.1400 
     81 CB          0.7001  -26.9411  -47.4902 C.3       14 UNK        -0.1800 
     82 C          -1.3174  -27.9935  -48.5942 C.2       14 UNK         0.5000 
     83 O          -1.2374  -29.1803  -48.9128 O.2       14 UNK        -0.5000 
     84 N          -1.9458  -27.0660  -49.3278 N.am      15 UNK        -0.5000 
     85 CA         -2.6715  -27.3336  -50.5691 C.3       15 UNK         0.1400 
     86 CB         -2.7937  -26.0230  -51.3611 C.3       15 UNK        -0.1800 
     87 C          -4.0697  -27.9452  -50.3528 C.2       15 UNK         0.5000 
     88 O          -4.7129  -28.3071  -51.3370 O.2       15 UNK        -0.5000 
     89 N          -4.5467  -28.0017  -49.0996 N.am      16 UNK        -0.5000 
     90 CA         -5.8958  -28.4099  -48.6859 C.3       16 UNK         0.1400 
     91 CB         -6.0906  -29.9261  -48.8911 C.3       16 UNK        -0.1800 
     92 C          -7.0011  -27.5598  -49.3540 C.2       16 UNK         0.5000 
     93 O          -8.0400  -28.0876  -49.7541 O.2       16 UNK        -0.5000 
     94 N          -6.7216  -26.2551  -49.4902 N.am      17 UNK        -0.5000 
     95 CA         -7.5166  -25.2112  -50.1444 C.3       17 UNK         0.1400 
     96 CB         -8.8637  -25.0116  -49.4200 C.3       17 UNK        -0.1800 
     97 C          -7.6894  -25.3803  -51.6718 C.2       17 UNK         0.5000 
     98 O          -8.4781  -24.6447  -52.2673 O.2       17 UNK        -0.5000 
     99 N          -6.9452  -26.3045  -52.2996 N.am      18 UNK        -0.5000 
    100 CA        -6.9614  -26.5291  -53.7503 C.3       18 UNK         0.1400 
    101 CB        -6.5288  -27.9740  -54.0440 C.3       18 UNK        -0.1800 
    102 C         -6.0750  -25.5325  -54.5263 C.2       18 UNK         0.5000 
    103 O         -6.1553  -25.4813  -55.7545 O.2       18 UNK        -0.5000 
    104 N         -5.2486  -24.7655  -53.8082 N.am      19 UNK        -0.5000 
    105 CA        -4.3687  -23.7216  -54.3194 C.3       19 UNK         0.1400 
    106 CB        -3.0333  -24.3357  -54.7848 C.3       19 UNK        -0.1800 
    107 C         -4.1834  -22.6564  -53.2244 C.2       19 UNK         0.5000 
    108 O         -4.8381  -22.7330  -52.1805 O.2       19 UNK        -0.5000 
    109 N         -3.3037  -21.6803  -53.4945 N.am      20 UNK        -0.5000 
    110 CA        -3.0142  -20.4950  -52.6740 C.3       20 UNK         0.1400 
    111 CB        -2.5161  -20.8825  -51.2669 C.3       20 UNK        -0.1800 
    112 C         -4.1856  -19.4902  -52.6446 C.2       20 UNK         0.5000 
    113 O         -4.3586  -18.7585  -51.6687 O.2       20 UNK        -0.5000 
    114 N         -4.9541  -19.4400  -53.7398 N.am      21 UNK        -0.5000 
    115 CA        -6.0377  -18.4867  -53.9697 C.3       21 UNK         0.1400 
    116 CB        -7.0729  -19.1354  -54.9067 C.3       21 UNK        -0.1800 
    117 C         -5.4748  -17.1611  -54.5224 C.2       21 UNK         0.5000 
    118 O         -5.7579  -16.7941  -55.6644 O.2       21 UNK        -0.5000 
    119 N         -4.6499  -16.4863  -53.7118 N.am      22 UNK        -0.5000 
    120 CA        -3.9723  -15.2242  -54.0611 C.3       22 UNK         0.1400 
    121 C         -4.9066  -13.9791  -54.1441 C.2       22 UNK         0.5000 
    122 N         -6.1406  -14.0337  -53.6575 N.am      22 UNK        -0.7600 
    123 O         -4.5033  -12.9429  -54.6655 O.2       22 UNK        -0.5000 
    124 C124       -2.7676  -14.9288  -53.1300 C.3       23 UNK        -0.0398 
    125 S125       -1.4955  -16.2441  -53.1298 S.3       23 UNK        -0.2404 
    126 C126       -1.4937  -16.7788  -51.3892 C.3       23 UNK        -0.0205 
    127 H127        6.8572  -16.3891  -45.8873 H         1 UNK         0.0600 
    128 H128        6.6380  -15.5167  -47.4058 H         1 UNK         0.0600 
    129 H129        7.7875  -14.9223  -46.2013 H         1 UNK         0.0600 
    130 H130        5.0367  -13.9445  -47.4790 H         1 UNK         0.3000 
    131 H131        3.3529  -13.4245  -45.1563 H         1 UNK         0.0600 
    132 H132        1.9391  -12.1649  -46.7834 H         1 UNK         0.0800 
    133 H133        3.1050  -12.4551  -48.0435 H         1 UNK         0.0800 
    134 H134        2.5006  -14.0425  -49.7478 H         1 UNK         0.0800 
    135 H135        3.6321  -15.1094  -48.9504 H         1 UNK         0.0800 
    136 H136        0.1187  -14.9329  -50.2233 H         1 UNK         0.1150 
    137 H137        0.0251  -19.0542  -51.3961 H         1 UNK         0.1150 
    138 H138        3.4455  -17.4869  -49.3405 H         1 UNK         0.1150 
    139 H139        2.1393  -20.3120  -51.3681 H         1 UNK         0.0800 
    140 H140        3.5650  -19.6192  -50.6485 H         1 UNK         0.0800 
    141 H141        0.4178  -21.6879  -50.2199 H         1 UNK         0.0800 
    142 H142       -0.1134  -20.5201  -49.0305 H         1 UNK         0.0800 
    143 H143        0.9337  -23.3222  -48.3668 H         1 UNK         0.0600 
    144 H144        0.4848  -21.1575  -46.6222 H         1 UNK         0.3000 
    145 H145       -0.3507  -23.0325  -43.6775 H         1 UNK         0.0600 
    146 H146        1.5505  -21.6556  -42.8579 H         1 UNK         0.0600 
    147 H147        2.1194  -23.0048  -43.8290 H         1 UNK         0.0600 
    148 H148        2.0965  -21.3863  -44.5117 H         1 UNK         0.0600 
    149 H149       -0.1155  -20.2223  -44.3414 H         1 UNK         0.3000 
    150 H150       -3.6096  -19.6981  -44.8730 H         1 UNK         0.0600 
    151 H151       -3.2824  -19.6921  -42.3878 H         1 UNK         0.0600 
    152 H152       -3.2327  -18.0644  -43.0498 H         1 UNK         0.0600 
    153 H153       -1.7364  -18.8725  -42.5883 H         1 UNK         0.0600 
    154 H154       -1.4514  -17.8631  -44.8423 H         1 UNK         0.3000 
    155 H155       -0.4020  -18.2281  -48.2352 H         1 UNK         0.0600 
    156 H156       -0.9151  -15.7295  -48.0035 H         1 UNK         0.0600 
    157 H157       -2.0586  -16.1397  -46.7316 H         1 UNK         0.0600 
    158 H158       -2.3163  -16.7285  -48.3608 H         1 UNK         0.0600 
    159 H159        0.6241  -16.4828  -46.3634 H         1 UNK         0.3000 
    160 H160        2.8694  -18.5875  -44.5936 H         1 UNK         0.0600 
    161 H161        3.5660  -16.7315  -46.9172 H         1 UNK         0.0600 
    162 H162        3.9400  -18.4476  -46.8578 H         1 UNK         0.0600 
    163 H163        4.6503  -17.3613  -45.6778 H         1 UNK         0.0600 
    164 H164        2.3924  -15.7111  -45.0267 H         1 UNK         0.3000 
    165 H165        0.5394  -15.4307  -41.9578 H         1 UNK         0.0600 
    166 H166        3.1657  -14.2334  -42.9922 H         1 UNK         0.0600 
    167 H167        2.1122  -13.5183  -41.7711 H         1 UNK         0.0600 
    168 H168        2.9340  -15.0352  -41.4487 H         1 UNK         0.0600 
    169 H169        0.8718  -13.4821  -43.9209 H         1 UNK         0.3000 
    170 H170       -1.0949  -13.9087  -46.2290 H         1 UNK         0.0600 
    171 H171       -3.2848  -14.6642  -45.3409 H         1 UNK         0.0600 
    172 H172       -3.2105  -13.4710  -44.0565 H         1 UNK         0.0600 
    173 H173       -3.3506  -12.9573  -45.7368 H         1 UNK         0.0600 
    174 H174       -0.4928  -11.8340  -45.8408 H         1 UNK         0.3000 
    175 H175        0.0341   -9.9480  -44.9750 H         1 UNK         0.0600 
    176 H176       -1.0825   -8.0630  -43.7829 H         1 UNK         0.0600 
    177 H177       -2.2867   -9.1843  -44.3997 H         1 UNK         0.0600 
    178 H178       -1.8773   -9.1921  -42.6875 H         1 UNK         0.0600 
    179 H179        0.6579  -10.6410  -42.2196 H         1 UNK         0.3000 
    180 H180        3.2021   -8.3337  -41.7636 H         1 UNK         0.0600 
    181 H181        2.1760  -11.1209  -40.9718 H         1 UNK         0.0600 
    182 H182        1.5900   -9.5942  -40.3090 H         1 UNK         0.0600 
    183 H183        3.2504  -10.0892  -40.0402 H         1 UNK         0.0600 
    184 H184        3.8914  -11.0662  -42.7316 H         1 UNK         0.3000 
    185 H185        6.3875   -9.9037  -44.9082 H         1 UNK         0.0600 
    186 H186        7.8201  -11.5414  -43.7181 H         1 UNK         0.0600 
    187 H187        7.6620  -10.0743  -42.7648 H         1 UNK         0.0600 
    188 H188        6.7456  -11.5096  -42.3202 H         1 UNK         0.0600 
    189 H189        5.5236  -12.5370  -44.2192 H         1 UNK         0.3000 
    190 H190       -2.1367  -21.5679  -47.6608 H         1 UNK         0.3000 
    191 H191       -3.8034  -23.1291  -49.3443 H         1 UNK         0.0600 
    192 H192       -4.4802  -20.9245  -48.4428 H         1 UNK         0.0600 
    193 H193       -5.6474  -22.1490  -47.9684 H         1 UNK         0.0600 
    194 H194       -4.4708  -21.5577  -46.7986 H         1 UNK         0.0600 
    195 H195       -2.9213  -23.5638  -45.8822 H         1 UNK         0.3000 
    196 H196       -4.5637  -25.8283  -45.4046 H         1 UNK         0.0600 
    197 H197       -3.0767  -26.1661  -43.4244 H         1 UNK         0.0600 
    198 H198       -3.5835  -24.4911  -43.5760 H         1 UNK         0.0600 
    199 H199       -1.9544  -24.9655  -44.0510 H         1 UNK         0.0600 
    200 H200       -1.1215  -25.6081  -46.4397 H         1 UNK         0.3000 
    201 H201       -0.6139  -28.3902  -46.6112 H         1 UNK         0.0600 
    202 H202        1.1768  -26.6828  -46.5444 H         1 UNK         0.0600 
    203 H203        0.6695  -26.0408  -48.1051 H         1 UNK         0.0600 
    204 H204        1.3446  -27.6628  -47.9934 H         1 UNK         0.0600 
    205 H205       -1.9067  -26.0964  -49.0284 H         1 UNK         0.3000 
    206 H206       -2.0948  -28.0411  -51.1682 H         1 UNK         0.0600 
    207 H207       -1.8136  -25.5958  -51.5735 H         1 UNK         0.0600 
    208 H208       -3.2868  -26.1962  -52.3174 H         1 UNK         0.0600 
    209 H209       -3.3751  -25.2757  -50.8193 H         1 UNK         0.0600 
    210 H210       -3.9542  -27.6558  -48.3555 H         1 UNK         0.3000 
    211 H211       -5.9607  -28.2083  -47.6157 H         1 UNK         0.0600 
    212 H212       -6.0890  -30.1962  -49.9476 H         1 UNK         0.0600 
    213 H213       -7.0399  -30.2588  -48.4698 H         1 UNK         0.0600 
    214 H214       -5.3011  -30.4937  -48.3985 H         1 UNK         0.0600 
    215 H215       -5.8460  -25.9275  -49.0828 H         1 UNK         0.3000 
    216 H216       -6.9424  -24.2920  -50.0182 H         1 UNK         0.0600 
    217 H217       -8.7180  -24.8695  -48.3492 H         1 UNK         0.0600 
    218 H218       -9.5295  -25.8636  -49.5591 H         1 UNK         0.0600 
    219 H219       -9.3834  -24.1288  -49.7940 H         1 UNK         0.0600 
    220 H220       -6.3230  -26.8948  -51.7596 H         1 UNK         0.3000 
    221 H221       -7.9843  -26.4090  -54.1130 H         1 UNK         0.0600 
    222 H222       -5.4726  -28.1312  -53.8245 H         1 UNK         0.0600 
    223 H223       -7.1060  -28.6897  -53.4582 H         1 UNK         0.0600 
    224 H224       -6.6795  -28.2177  -55.0963 H         1 UNK         0.0600 
    225 H225       -5.3072  -24.8007  -52.7993 H         1 UNK         0.3000 
    226 H226       -4.8542  -23.2335  -55.1669 H         1 UNK         0.0600 
    227 H227       -3.1958  -25.1695  -55.4680 H         1 UNK         0.0600 
    228 H228       -2.4259  -23.6040  -55.3177 H         1 UNK         0.0600 
    229 H229       -2.4409  -24.7019  -53.9468 H         1 UNK         0.0600 
    230 H230       -2.8062  -21.7233  -54.3731 H         1 UNK         0.3000 
    231 H231       -2.1932  -19.9785  -53.1737 H         1 UNK         0.0600 
    232 H232       -2.0905  -20.0263  -50.7446 H         1 UNK         0.0600 
    233 H233       -1.7490  -21.6543  -51.3173 H         1 UNK         0.0600 
    234 H234       -3.3292  -21.2551  -50.6472 H         1 UNK         0.0600 
    235 H235       -4.7264  -20.0497  -54.5107 H         1 UNK         0.3000 
    236 H236       -6.5386  -18.2654  -53.0247 H         1 UNK         0.0600 
    237 H237       -7.9101  -18.4608  -55.0907 H         1 UNK         0.0600 
    238 H238       -6.6391  -19.3939  -55.8735 H         1 UNK         0.0600 
    239 H239       -7.4817  -20.0466  -54.4694 H         1 UNK         0.0600 
    240 H240       -4.4440  -16.8785  -52.8013 H         1 UNK         0.3000 
    241 H241       -3.5707  -15.3519  -55.0684 H         1 UNK         0.0600 
    242 H242       -6.4865  -14.8757  -53.2264 H         1 UNK         0.3800 
    243 H243       -6.7360  -13.2226  -53.7219 H         1 UNK         0.3800 
    244 H244       -2.2664  -14.0114  -53.4443 H         1 UNK         0.0800 
    245 H245       -3.1224  -14.7364  -52.1172 H         1 UNK         0.0800 
    246 H246       -2.0103  -16.0568  -50.7568 H         1 UNK         0.0800 
    247 H247       -2.0532  -17.7070  -51.2979 H         1 UNK         0.0800 
@<TRIPOS>BOND
     1    1    2 1    
     2    1  127 1    
     3    1  128 1    
     4    1  129 1    
     5    2    3 2    
     6    2    4 am   BACKBONE|DICT|INTERRES
     7    4    5 1    
     8    4  130 1    
     9    5    6 1    
    10    5   65 1    
    11    5  131 1    
    12    6    7 1    
    13    6  132 1    
    14    6  133 1    
    15    7    8 1    
    16    8    9 1    
    17    8  134 1    
    18    8  135 1    
    19    9   10 ar   
    20    9   14 ar   
    21   10   11 ar   
    22   10  136 1    
    23   11   12 ar   
    24   11  126 1    
    25   12   13 ar   
    26   12  137 1    
    27   13   14 ar   
    28   13   15 1    
    29   14  138 1    
    30   15   16 1    
    31   15  139 1    
    32   15  140 1    
    33   16   17 1    
    34   17   18 1    
    35   17  141 1    
    36   17  142 1    
    37   18   19 1    
    38   18   67 1    
    39   18  143 1    
    40   19   20 am   BACKBONE|DICT|INTERRES
    41   19  144 1    
    42   20   21 2    
    43   20   22 1    
    44   22   23 1    
    45   22   24 1    
    46   22  145 1    
    47   23  146 1    
    48   23  147 1    
    49   23  148 1    
    50   24   25 am   BACKBONE|DICT|INTERRES
    51   24  149 1    
    52   25   26 2    
    53   25   27 1    
    54   27   28 1    
    55   27   29 1    
    56   27  150 1    
    57   28  151 1    
    58   28  152 1    
    59   28  153 1    
    60   29   30 am   BACKBONE|DICT|INTERRES
    61   29  154 1    
    62   30   31 2    
    63   30   32 1    
    64   32   33 1    
    65   32   34 1    
    66   32  155 1    
    67   33  156 1    
    68   33  157 1    
    69   33  158 1    
    70   34   35 am   BACKBONE|DICT|INTERRES
    71   34  159 1    
    72   35   36 2    
    73   35   37 1    
    74   37   38 1    
    75   37   39 1    
    76   37  160 1    
    77   38  161 1    
    78   38  162 1    
    79   38  163 1    
    80   39   40 am   BACKBONE|DICT|INTERRES
    81   39  164 1    
    82   40   41 2    
    83   40   42 1    
    84   42   43 1    
    85   42   44 1    
    86   42  165 1    
    87   43  166 1    
    88   43  167 1    
    89   43  168 1    
    90   44   45 am   BACKBONE|DICT|INTERRES
    91   44  169 1    
    92   45   46 2    
    93   45   47 1    
    94   47   48 1    
    95   47   49 1    
    96   47  170 1    
    97   48  171 1    
    98   48  172 1    
    99   48  173 1    
   100   49   50 am   BACKBONE|DICT|INTERRES
   101   49  174 1    
   102   50   51 2    
   103   50   52 1    
   104   52   53 1    
   105   52   54 1    
   106   52  175 1    
   107   53  176 1    
   108   53  177 1    
   109   53  178 1    
   110   54   55 am   BACKBONE|DICT|INTERRES
   111   54  179 1    
   112   55   56 2    
   113   55   57 1    
   114   57   58 1    
   115   57   59 1    
   116   57  180 1    
   117   58  181 1    
   118   58  182 1    
   119   58  183 1    
   120   59   60 am   BACKBONE|DICT|INTERRES
   121   59  184 1    
   122   60   61 2    
   123   60   62 1    
   124   62   63 1    
   125   62   64 1    
   126   62  185 1    
   127   63  186 1    
   128   63  187 1    
   129   63  188 1    
   130   64   65 am   BACKBONE|DICT|INTERRES
   131   64  189 1    
   132   65   66 2    
   133   67   68 2    
   134   67   69 am   BACKBONE|DICT|INTERRES
   135   69   70 1    
   136   69  190 1    
   137   70   71 1    
   138   70   72 1    
   139   70  191 1    
   140   71  192 1    
   141   71  193 1    
   142   71  194 1    
   143   72   73 2    
   144   72   74 am   BACKBONE|DICT|INTERRES
   145   74   75 1    
   146   74  195 1    
   147   75   76 1    
   148   75   77 1    
   149   75  196 1    
   150   76  197 1    
   151   76  198 1    
   152   76  199 1    
   153   77   78 2    
   154   77   79 am   BACKBONE|DICT|INTERRES
   155   79   80 1    
   156   79  200 1    
   157   80   81 1    
   158   80   82 1    
   159   80  201 1    
   160   81  202 1    
   161   81  203 1    
   162   81  204 1    
   163   82   83 2    
   164   82   84 am   BACKBONE|DICT|INTERRES
   165   84   85 1    
   166   84  205 1    
   167   85   86 1    
   168   85   87 1    
   169   85  206 1    
   170   86  207 1    
   171   86  208 1    
   172   86  209 1    
   173   87   88 2    
   174   87   89 am   BACKBONE|DICT|INTERRES
   175   89   90 1    
   176   89  210 1    
   177   90   91 1    
   178   90   92 1    
   179   90  211 1    
   180   91  212 1    
   181   91  213 1    
   182   91  214 1    
   183   92   93 2    
   184   92   94 am   BACKBONE|DICT|INTERRES
   185   94   95 1    
   186   94  215 1    
   187   95   96 1    
   188   95   97 1    
   189   95  216 1    
   190   96  217 1    
   191   96  218 1    
   192   96  219 1    
   193   97   98 2    
   194   97   99 am   BACKBONE|DICT|INTERRES
   195   99  100 1    
   196   99  220 1    
   197  100  101 1    
   198  100  102 1    
   199  100  221 1    
   200  101  222 1    
   201  101  223 1    
   202  101  224 1    
   203  102  103 2    
   204  102  104 am   BACKBONE|DICT|INTERRES
   205  104  105 1    
   206  104  225 1    
   207  105  106 1    
   208  105  107 1    
   209  105  226 1    
   210  106  227 1    
   211  106  228 1    
   212  106  229 1    
   213  107  108 2    
   214  107  109 am   BACKBONE|DICT|INTERRES
   215  109  110 1    
   216  109  230 1    
   217  110  111 1    
   218  110  112 1    
   219  110  231 1    
   220  111  232 1    
   221  111  233 1    
   222  111  234 1    
   223  112  113 2    
   224  112  114 am   BACKBONE|DICT|INTERRES
   225  114  115 1    
   226  114  235 1    
   227  115  116 1    
   228  115  117 1    
   229  115  236 1    
   230  116  237 1    
   231  116  238 1    
   232  116  239 1    
   233  117  118 2    
   234  117  119 am   BACKBONE|DICT|INTERRES
   235  119  120 1    
   236  119  240 1    
   237  120  121 1    
   238  120  124 1    
   239  120  241 1    
   240  121  122 am   BACKBONE|DICT|INTERRES
   241  121  123 2    
   242  122  242 1    
   243  122  243 1    
   244  124  125 1    
   245  124  244 1    
   246  124  245 1    
   247  125  126 1    
   248  126  246 1    
   249  126  247 1    
@<TRIPOS>SUBSTRUCTURE
     1 UNK         1 GROUP             0       ****    0 ROOT    
