@<TRIPOS>MOLECULE
3R540
247   249    1
SMALL
USER_CHARGES


@<TRIPOS>ATOM
      1 CA          4.2569  -14.7190  -44.9188 C.3       0 UNK        -0.1800 
      2 C           3.1065  -13.7546  -45.1644 C.2       0 UNK         0.5000 
      3 O           2.9235  -12.8111  -44.3967 O.2       0 UNK        -0.5000 
      4 N           2.3472  -13.9636  -46.2490 N.am      1 UNK        -0.5000 
      5 CA          1.1734  -13.1584  -46.6274 C.3       1 UNK         0.1400 
      6 C6          0.3173  -13.8445  -47.7160 C.3       23 UNK        -0.0398 
      7 S7         -0.4878  -15.3434  -47.0603 S.3       23 UNK        -0.2404 
      8 C8         -1.2256  -16.0404  -48.5691 C.3       23 UNK        -0.0205 
      9 C9         -0.1894  -16.7349  -49.4378 C.ar      23 UNK        -0.0193 
     10 C10         0.2402  -16.1558  -50.6361 C.ar      23 UNK        -0.1150 
     11 C11         1.1571  -16.8198  -51.4579 C.ar      23 UNK        -0.0193 
     12 C12         1.6751  -18.0522  -51.0469 C.ar      23 UNK        -0.1150 
     13 C13         1.2709  -18.6293  -49.8393 C.ar      23 UNK        -0.0193 
     14 C14         0.3250  -17.9742  -49.0486 C.ar      23 UNK        -0.1150 
     15 C15         1.8772  -19.9466  -49.3820 C.3       23 UNK        -0.0205 
     16 S16         1.1232  -21.3640  -50.2253 S.3       23 UNK        -0.2404 
     17 C17        -0.4206  -21.6005  -49.2831 C.3       23 UNK        -0.0398 
     18 CA         -0.4280  -22.9780  -48.5806 C.3       11 UNK         0.1400 
     19 N           0.4441  -23.0018  -47.4033 N.am      11 UNK        -0.5000 
     20 C           0.9196  -24.1269  -46.8504 C.2       10 UNK         0.5000 
     21 O           0.6774  -25.2522  -47.2847 O.2       10 UNK        -0.5000 
     22 CA          1.7665  -23.9756  -45.5710 C.3       10 UNK         0.1400 
     23 CB          3.2492  -23.7993  -45.9301 C.3       10 UNK        -0.1800 
     24 N           1.3449  -22.8627  -44.7176 N.am      10 UNK        -0.5000 
     25 C           0.1165  -22.6969  -44.2074 C.2       9 UNK         0.5000 
     26 O          -0.7932  -23.5118  -44.3620 O.2       9 UNK        -0.5000 
     27 CA         -0.1648  -21.3933  -43.4344 C.3       9 UNK         0.1400 
     28 CB         -0.2714  -21.6732  -41.9284 C.3       9 UNK        -0.1800 
     29 N           0.8176  -20.3262  -43.6476 N.am      9 UNK        -0.5000 
     30 C           1.0752  -19.7017  -44.8043 C.2       8 UNK         0.5000 
     31 O           0.5515  -20.0113  -45.8770 O.2       8 UNK        -0.5000 
     32 CA          2.0850  -18.5372  -44.7213 C.3       8 UNK         0.1400 
     33 CB          2.4032  -17.9146  -46.0892 C.3       8 UNK        -0.1800 
     34 N           1.6033  -17.4872  -43.8224 N.am      8 UNK        -0.5000 
     35 C           1.7065  -17.5043  -42.4860 C.2       7 UNK         0.5000 
     36 O           2.2671  -18.4064  -41.8619 O.2       7 UNK        -0.5000 
     37 CA          1.0443  -16.3469  -41.7159 C.3       7 UNK         0.1400 
     38 CB          2.0575  -15.2281  -41.4321 C.3       7 UNK        -0.1800 
     39 N          -0.1050  -15.7796  -42.4203 N.am      7 UNK        -0.5000 
     40 C          -1.2948  -16.3727  -42.5711 C.2       6 UNK         0.5000 
     41 O          -1.5615  -17.4793  -42.0992 O.2       6 UNK        -0.5000 
     42 CA         -2.3569  -15.5882  -43.3764 C.3       6 UNK         0.1400 
     43 CB         -3.7122  -16.3156  -43.4359 C.3       6 UNK        -0.1800 
     44 N          -2.5773  -14.2228  -42.8834 N.am      6 UNK        -0.5000 
     45 C          -1.7456  -13.1896  -43.0597 C.2       5 UNK         0.5000 
     46 O          -0.6402  -13.2906  -43.5969 O.2       5 UNK        -0.5000 
     47 CA         -2.2034  -11.8207  -42.5427 C.3       5 UNK         0.1400 
     48 CB         -1.8135  -11.6254  -41.0685 C.3       5 UNK        -0.1800 
     49 N          -1.5454  -10.8124  -43.3625 N.am      5 UNK        -0.5000 
     50 C          -2.0325   -9.6159  -43.7026 C.2       4 UNK         0.5000 
     51 O          -3.1007   -9.1695  -43.2800 O.2       4 UNK        -0.5000 
     52 CA         -1.1868   -8.8036  -44.7072 C.3       4 UNK         0.1400 
     53 CB         -1.5038   -7.2930  -44.6948 C.3       4 UNK        -0.1800 
     54 N           0.2546   -9.0544  -44.5792 N.am      4 UNK        -0.5000 
     55 C           1.0531   -8.7277  -43.5491 C.2       3 UNK         0.5000 
     56 O           0.6645   -8.1166  -42.5530 O.2       3 UNK        -0.5000 
     57 CA          2.5330   -9.1683  -43.6181 C.3       3 UNK         0.1400 
     58 CB          2.8565  -10.1358  -42.4675 C.3       3 UNK        -0.1800 
     59 N           2.8983   -9.8073  -44.8850 N.am      3 UNK        -0.5000 
     60 C           3.1164   -9.1610  -46.0414 C.2       2 UNK         0.5000 
     61 O           3.1217   -7.9338  -46.1404 O.2       2 UNK        -0.5000 
     62 CA          3.3266  -10.0200  -47.3096 C.3       2 UNK         0.1400 
     63 CB          4.8200  -10.1048  -47.6595 C.3       2 UNK        -0.1800 
     64 N           2.7896  -11.3793  -47.1983 N.am      2 UNK        -0.5000 
     65 C           1.5025  -11.6930  -46.9899 C.2       1 UNK         0.5000 
     66 O           0.5972  -10.8574  -46.9969 O.2       1 UNK        -0.5000 
     67 C          -1.8636  -23.4461  -48.2601 C.2       11 UNK         0.5000 
     68 O          -2.5173  -24.0214  -49.1323 O.2       11 UNK        -0.5000 
     69 N          -2.3234  -23.2281  -47.0195 N.am      12 UNK        -0.5000 
     70 CA         -3.5940  -23.7546  -46.5197 C.3       12 UNK         0.1400 
     71 CB         -4.0530  -22.9494  -45.2948 C.3       12 UNK        -0.1800 
     72 C          -3.4835  -25.2540  -46.1985 C.2       12 UNK         0.5000 
     73 O          -4.3890  -26.0150  -46.5396 O.2       12 UNK        -0.5000 
     74 N          -2.3535  -25.6559  -45.5969 N.am      13 UNK        -0.5000 
     75 CA         -2.0157  -27.0460  -45.2801 C.3       13 UNK         0.1400 
     76 CB         -0.7166  -27.0825  -44.4625 C.3       13 UNK        -0.1800 
     77 C          -1.9020  -27.9483  -46.5251 C.2       13 UNK         0.5000 
     78 O          -2.2423  -29.1297  -46.4491 O.2       13 UNK        -0.5000 
     79 N          -1.4849  -27.3722  -47.6615 N.am      14 UNK        -0.5000 
     80 CA         -1.4350  -27.9934  -48.9885 C.3       14 UNK         0.1400 
     81 CB         -0.4871  -27.1686  -49.8777 C.3       14 UNK        -0.1800 
     82 C          -2.8362  -28.1644  -49.6230 C.2       14 UNK         0.5000 
     83 O          -3.0670  -27.7203  -50.7503 O.2       14 UNK        -0.5000 
     84 N          -3.7608  -28.7778  -48.8679 N.am      15 UNK        -0.5000 
     85 CA         -5.1546  -29.1022  -49.2077 C.3       15 UNK         0.1400 
     86 CB         -5.1837  -30.2296  -50.2601 C.3       15 UNK        -0.1800 
     87 C          -6.0104  -27.8882  -49.6374 C.2       15 UNK         0.5000 
     88 O          -7.0098  -28.0613  -50.3364 O.2       15 UNK        -0.5000 
     89 N          -5.5756  -26.6804  -49.2487 N.am      16 UNK        -0.5000 
     90 CA         -6.0543  -25.3634  -49.6791 C.3       16 UNK         0.1400 
     91 CB         -7.4768  -25.0968  -49.1491 C.3       16 UNK        -0.1800 
     92 C          -5.9319  -25.0974  -51.1987 C.2       16 UNK         0.5000 
     93 O          -6.4954  -24.1168  -51.6861 O.2       16 UNK        -0.5000 
     94 N          -5.1813  -25.9356  -51.9287 N.am      17 UNK        -0.5000 
     95 CA         -4.9793  -25.8136  -53.3723 C.3       17 UNK         0.1400 
     96 CB         -4.4309  -27.1362  -53.9284 C.3       17 UNK        -0.1800 
     97 C          -4.0425  -24.6434  -53.7017 C.2       17 UNK         0.5000 
     98 O          -4.3418  -23.8375  -54.5832 O.2       17 UNK        -0.5000 
     99 N          -2.9501  -24.5343  -52.9360 N.am      18 UNK        -0.5000 
    100 CA        -2.0103  -23.4204  -53.0222 C.3       18 UNK         0.1400 
    101 CB        -0.6910  -23.8224  -52.3580 C.3       18 UNK        -0.1800 
    102 C         -2.5844  -22.1213  -52.4234 C.2       18 UNK         0.5000 
    103 O         -2.1960  -21.0366  -52.8567 O.2       18 UNK        -0.5000 
    104 N         -3.5242  -22.2402  -51.4717 N.am      19 UNK        -0.5000 
    105 CA        -4.2878  -21.1197  -50.9128 C.3       19 UNK         0.1400 
    106 CB        -5.0510  -21.5615  -49.6568 C.3       19 UNK        -0.1800 
    107 C         -5.2464  -20.4861  -51.9386 C.2       19 UNK         0.5000 
    108 O         -5.4537  -19.2738  -51.9056 O.2       19 UNK        -0.5000 
    109 N         -5.7942  -21.3078  -52.8445 N.am      20 UNK        -0.5000 
    110 CA        -6.5917  -20.8534  -53.9823 C.3       20 UNK         0.1400 
    111 CB        -7.4091  -22.0294  -54.5382 C.3       20 UNK        -0.1800 
    112 C         -5.7193  -20.2173  -55.0818 C.2       20 UNK         0.5000 
    113 O         -6.1463  -19.2433  -55.7029 O.2       20 UNK        -0.5000 
    114 N         -4.5171  -20.7714  -55.2999 N.am      21 UNK        -0.5000 
    115 CA        -3.5483  -20.2911  -56.2881 C.3       21 UNK         0.1400 
    116 CB        -2.4663  -21.3595  -56.5057 C.3       21 UNK        -0.1800 
    117 C         -2.9054  -18.9434  -55.9060 C.2       21 UNK         0.5000 
    118 O         -2.7140  -18.0960  -56.7792 O.2       21 UNK        -0.5000 
    119 N         -2.5878  -18.7680  -54.6192 N.am      22 UNK        -0.5000 
    120 CA        -1.9969  -17.5498  -54.0508 C.3       22 UNK         0.1400 
    121 C         -2.3949  -17.3743  -52.5644 C.2       22 UNK         0.5000 
    122 N         -2.2475  -18.3990  -51.7364 N.am      22 UNK        -0.7600 
    123 O         -2.8482  -16.3068  -52.1603 O.2       22 UNK        -0.5000 
    124 C124       -0.4579  -17.4966  -54.2581 C.3       23 UNK        -0.0398 
    125 S125        0.2499  -15.8416  -53.9351 S.3       23 UNK        -0.2404 
    126 C126        1.6142  -16.2015  -52.7751 C.3       23 UNK        -0.0205 
    127 H127        5.1155  -14.1856  -44.5109 H         1 UNK         0.0600 
    128 H128        4.5735  -15.2062  -45.8410 H         1 UNK         0.0600 
    129 H129        3.9605  -15.4861  -44.2037 H         1 UNK         0.0600 
    130 H130        2.5440  -14.7513  -46.8494 H         1 UNK         0.3000 
    131 H131        0.5525  -13.0798  -45.7374 H         1 UNK         0.0600 
    132 H132        0.9275  -14.0991  -48.5838 H         1 UNK         0.0800 
    133 H133       -0.4723  -13.1802  -48.0725 H         1 UNK         0.0800 
    134 H134       -1.7413  -15.2567  -49.1266 H         1 UNK         0.0800 
    135 H135       -1.9909  -16.7630  -48.2828 H         1 UNK         0.0800 
    136 H136       -0.1608  -15.2013  -50.9465 H         1 UNK         0.1150 
    137 H137        2.3988  -18.5661  -51.6639 H         1 UNK         0.1150 
    138 H138       -0.0012  -18.4197  -48.1192 H         1 UNK         0.1150 
    139 H139        2.9479  -19.9416  -49.5903 H         1 UNK         0.0800 
    140 H140        1.7777  -20.0731  -48.3043 H         1 UNK         0.0800 
    141 H141       -1.2400  -21.5126  -49.9944 H         1 UNK         0.0800 
    142 H142       -0.5651  -20.7950  -48.5618 H         1 UNK         0.0800 
    143 H143       -0.0305  -23.7137  -49.2814 H         1 UNK         0.0600 
    144 H144        0.6686  -22.1107  -46.9791 H         1 UNK         0.3000 
    145 H145        1.6607  -24.8940  -44.9912 H         1 UNK         0.0600 
    146 H146        3.8724  -23.7762  -45.0359 H         1 UNK         0.0600 
    147 H147        3.6017  -24.6258  -46.5488 H         1 UNK         0.0600 
    148 H148        3.4219  -22.8764  -46.4854 H         1 UNK         0.0600 
    149 H149        2.0297  -22.1439  -44.5385 H         1 UNK         0.3000 
    150 H150       -1.1315  -21.0220  -43.7807 H         1 UNK         0.0600 
    151 H151       -1.0202  -22.4397  -41.7234 H         1 UNK         0.0600 
    152 H152       -0.5677  -20.7774  -41.3819 H         1 UNK         0.0600 
    153 H153        0.6769  -22.0206  -41.5165 H         1 UNK         0.0600 
    154 H154        1.2925  -19.9803  -42.8209 H         1 UNK         0.3000 
    155 H155        3.0173  -18.9466  -44.3266 H         1 UNK         0.0600 
    156 H156        1.5213  -17.4633  -46.5400 H         1 UNK         0.0600 
    157 H157        2.7897  -18.6628  -46.7802 H         1 UNK         0.0600 
    158 H158        3.1654  -17.1433  -46.0022 H         1 UNK         0.0600 
    159 H159        1.0829  -16.7346  -44.2486 H         1 UNK         0.3000 
    160 H160        0.6982  -16.7440  -40.7593 H         1 UNK         0.0600 
    161 H161        2.4025  -14.7542  -42.3508 H         1 UNK         0.0600 
    162 H162        2.9340  -15.6146  -40.9105 H         1 UNK         0.0600 
    163 H163        1.6203  -14.4525  -40.8029 H         1 UNK         0.0600 
    164 H164        0.0090  -14.8557  -42.8311 H         1 UNK         0.3000 
    165 H165       -1.9816  -15.5215  -44.3994 H         1 UNK         0.0600 
    166 H166       -4.4205  -15.7790  -44.0674 H         1 UNK         0.0600 
    167 H167       -3.6026  -17.3164  -43.8558 H         1 UNK         0.0600 
    168 H168       -4.1566  -16.4202  -42.4453 H         1 UNK         0.0600 
    169 H169       -3.4459  -14.0673  -42.3922 H         1 UNK         0.3000 
    170 H170       -3.2869  -11.7448  -42.6561 H         1 UNK         0.0600 
    171 H171       -2.2870  -12.3760  -40.4348 H         1 UNK         0.0600 
    172 H172       -0.7349  -11.7048  -40.9253 H         1 UNK         0.0600 
    173 H173       -2.1272  -10.6468  -40.7047 H         1 UNK         0.0600 
    174 H174       -0.6828  -11.1325  -43.7849 H         1 UNK         0.3000 
    175 H175       -1.4621   -9.1800  -45.6934 H         1 UNK         0.0600 
    176 H176       -1.3446   -6.8501  -43.7116 H         1 UNK         0.0600 
    177 H177       -0.8838   -6.7541  -45.4113 H         1 UNK         0.0600 
    178 H178       -2.5441   -7.1116  -44.9669 H         1 UNK         0.0600 
    179 H179        0.6621   -9.5717  -45.3501 H         1 UNK         0.3000 
    180 H180        3.1458   -8.2735  -43.4916 H         1 UNK         0.0600 
    181 H181        3.8952  -10.4645  -42.5053 H         1 UNK         0.0600 
    182 H182        2.2222  -11.0228  -42.4986 H         1 UNK         0.0600 
    183 H183        2.7024   -9.6589  -41.4989 H         1 UNK         0.0600 
    184 H184        2.9227  -10.8226  -44.8756 H         1 UNK         0.3000 
    185 H185        2.8073   -9.5221  -48.1310 H         1 UNK         0.0600 
    186 H186        4.9768  -10.6410  -48.5956 H         1 UNK         0.0600 
    187 H187        5.2505   -9.1098  -47.7808 H         1 UNK         0.0600 
    188 H188        5.3869  -10.6150  -46.8796 H         1 UNK         0.0600 
    189 H189        3.4663  -12.1273  -47.1582 H         1 UNK         0.3000 
    190 H190       -1.7102  -22.8050  -46.3370 H         1 UNK         0.3000 
    191 H191       -4.3548  -23.6380  -47.2926 H         1 UNK         0.0600 
    192 H192       -5.0278  -23.2953  -44.9487 H         1 UNK         0.0600 
    193 H193       -4.1507  -21.8905  -45.5344 H         1 UNK         0.0600 
    194 H194       -3.3604  -23.0415  -44.4586 H         1 UNK         0.0600 
    195 H195       -1.6872  -24.9478  -45.3023 H         1 UNK         0.3000 
    196 H196       -2.8202  -27.4438  -44.6583 H         1 UNK         0.0600 
    197 H197        0.1354  -26.7387  -45.0480 H         1 UNK         0.0600 
    198 H198       -0.7891  -26.4559  -43.5733 H         1 UNK         0.0600 
    199 H199       -0.4952  -28.0973  -44.1298 H         1 UNK         0.0600 
    200 H200       -1.1732  -26.4104  -47.6113 H         1 UNK         0.3000 
    201 H201       -1.0086  -28.9930  -48.8848 H         1 UNK         0.0600 
    202 H202       -0.8534  -26.1511  -50.0137 H         1 UNK         0.0600 
    203 H203       -0.3816  -27.6172  -50.8662 H         1 UNK         0.0600 
    204 H204        0.5104  -27.1087  -49.4419 H         1 UNK         0.0600 
    205 H205       -3.4583  -29.0707  -47.9429 H         1 UNK         0.3000 
    206 H206       -5.6107  -29.4852  -48.2939 H         1 UNK         0.0600 
    207 H207       -4.5900  -31.0851  -49.9381 H         1 UNK         0.0600 
    208 H208       -6.2000  -30.5886  -50.4268 H         1 UNK         0.0600 
    209 H209       -4.7931  -29.8928  -51.2211 H         1 UNK         0.0600 
    210 H210       -4.7808  -26.6590  -48.6212 H         1 UNK         0.3000 
    211 H211       -5.3869  -24.6453  -49.2034 H         1 UNK         0.0600 
    212 H212       -7.7799  -24.0663  -49.3376 H         1 UNK         0.0600 
    213 H213       -7.5309  -25.2568  -48.0722 H         1 UNK         0.0600 
    214 H214       -8.2137  -25.7452  -49.6235 H         1 UNK         0.0600 
    215 H215       -4.6866  -26.6877  -51.4601 H         1 UNK         0.3000 
    216 H216       -5.9443  -25.6185  -53.8452 H         1 UNK         0.0600 
    217 H217       -3.4644  -27.3909  -53.4916 H         1 UNK         0.0600 
    218 H218       -4.2985  -27.0792  -55.0095 H         1 UNK         0.0600 
    219 H219       -5.1150  -27.9606  -53.7264 H         1 UNK         0.0600 
    220 H220       -2.7818  -25.2303  -52.2226 H         1 UNK         0.3000 
    221 H221       -1.8010  -23.2303  -54.0759 H         1 UNK         0.0600 
    222 H222       -0.2456  -24.6832  -52.8570 H         1 UNK         0.0600 
    223 H223       -0.8392  -24.0851  -51.3140 H         1 UNK         0.0600 
    224 H224        0.0339  -23.0100  -52.4059 H         1 UNK         0.0600 
    225 H225       -3.7488  -23.1635  -51.1311 H         1 UNK         0.3000 
    226 H226       -3.5774  -20.3557  -50.5996 H         1 UNK         0.0600 
    227 H227       -5.7923  -22.3274  -49.8765 H         1 UNK         0.0600 
    228 H228       -4.3717  -21.9462  -48.8996 H         1 UNK         0.0600 
    229 H229       -5.5811  -20.7189  -49.2112 H         1 UNK         0.0600 
    230 H230       -5.6339  -22.3039  -52.7657 H         1 UNK         0.3000 
    231 H231       -7.2941  -20.0942  -53.6317 H         1 UNK         0.0600 
    232 H232       -6.7695  -22.8244  -54.9213 H         1 UNK         0.0600 
    233 H233       -8.0521  -21.7036  -55.3566 H         1 UNK         0.0600 
    234 H234       -8.0518  -22.4600  -53.7699 H         1 UNK         0.0600 
    235 H235       -4.2710  -21.6070  -54.7850 H         1 UNK         0.3000 
    236 H236       -4.0772  -20.1524  -57.2335 H         1 UNK         0.0600 
    237 H237       -2.9048  -22.3255  -56.7574 H         1 UNK         0.0600 
    238 H238       -1.8042  -21.0780  -57.3254 H         1 UNK         0.0600 
    239 H239       -1.8464  -21.4897  -55.6192 H         1 UNK         0.0600 
    240 H240       -2.7532  -19.5247  -53.9632 H         1 UNK         0.3000 
    241 H241       -2.4338  -16.7017  -54.5823 H         1 UNK         0.0600 
    242 H242       -2.4847  -18.2678  -50.7686 H         1 UNK         0.3800 
    243 H243       -1.9198  -19.3003  -52.0653 H         1 UNK         0.3800 
    244 H244       -0.2144  -17.7487  -55.2907 H         1 UNK         0.0800 
    245 H245        0.0373  -18.2508  -53.6445 H         1 UNK         0.0800 
    246 H246        2.3355  -16.8483  -53.2769 H         1 UNK         0.0800 
    247 H247        2.1402  -15.2712  -52.5570 H         1 UNK         0.0800 
@<TRIPOS>BOND
     1    1    2 1    
     2    1  127 1    
     3    1  128 1    
     4    1  129 1    
     5    2    3 2    
     6    2    4 am   BACKBONE|DICT|INTERRES
     7    4    5 1    
     8    4  130 1    
     9    5    6 1    
    10    5   65 1    
    11    5  131 1    
    12    6    7 1    
    13    6  132 1    
    14    6  133 1    
    15    7    8 1    
    16    8    9 1    
    17    8  134 1    
    18    8  135 1    
    19    9   10 ar   
    20    9   14 ar   
    21   10   11 ar   
    22   10  136 1    
    23   11   12 ar   
    24   11  126 1    
    25   12   13 ar   
    26   12  137 1    
    27   13   14 ar   
    28   13   15 1    
    29   14  138 1    
    30   15   16 1    
    31   15  139 1    
    32   15  140 1    
    33   16   17 1    
    34   17   18 1    
    35   17  141 1    
    36   17  142 1    
    37   18   19 1    
    38   18   67 1    
    39   18  143 1    
    40   19   20 am   BACKBONE|DICT|INTERRES
    41   19  144 1    
    42   20   21 2    
    43   20   22 1    
    44   22   23 1    
    45   22   24 1    
    46   22  145 1    
    47   23  146 1    
    48   23  147 1    
    49   23  148 1    
    50   24   25 am   BACKBONE|DICT|INTERRES
    51   24  149 1    
    52   25   26 2    
    53   25   27 1    
    54   27   28 1    
    55   27   29 1    
    56   27  150 1    
    57   28  151 1    
    58   28  152 1    
    59   28  153 1    
    60   29   30 am   BACKBONE|DICT|INTERRES
    61   29  154 1    
    62   30   31 2    
    63   30   32 1    
    64   32   33 1    
    65   32   34 1    
    66   32  155 1    
    67   33  156 1    
    68   33  157 1    
    69   33  158 1    
    70   34   35 am   BACKBONE|DICT|INTERRES
    71   34  159 1    
    72   35   36 2    
    73   35   37 1    
    74   37   38 1    
    75   37   39 1    
    76   37  160 1    
    77   38  161 1    
    78   38  162 1    
    79   38  163 1    
    80   39   40 am   BACKBONE|DICT|INTERRES
    81   39  164 1    
    82   40   41 2    
    83   40   42 1    
    84   42   43 1    
    85   42   44 1    
    86   42  165 1    
    87   43  166 1    
    88   43  167 1    
    89   43  168 1    
    90   44   45 am   BACKBONE|DICT|INTERRES
    91   44  169 1    
    92   45   46 2    
    93   45   47 1    
    94   47   48 1    
    95   47   49 1    
    96   47  170 1    
    97   48  171 1    
    98   48  172 1    
    99   48  173 1    
   100   49   50 am   BACKBONE|DICT|INTERRES
   101   49  174 1    
   102   50   51 2    
   103   50   52 1    
   104   52   53 1    
   105   52   54 1    
   106   52  175 1    
   107   53  176 1    
   108   53  177 1    
   109   53  178 1    
   110   54   55 am   BACKBONE|DICT|INTERRES
   111   54  179 1    
   112   55   56 2    
   113   55   57 1    
   114   57   58 1    
   115   57   59 1    
   116   57  180 1    
   117   58  181 1    
   118   58  182 1    
   119   58  183 1    
   120   59   60 am   BACKBONE|DICT|INTERRES
   121   59  184 1    
   122   60   61 2    
   123   60   62 1    
   124   62   63 1    
   125   62   64 1    
   126   62  185 1    
   127   63  186 1    
   128   63  187 1    
   129   63  188 1    
   130   64   65 am   BACKBONE|DICT|INTERRES
   131   64  189 1    
   132   65   66 2    
   133   67   68 2    
   134   67   69 am   BACKBONE|DICT|INTERRES
   135   69   70 1    
   136   69  190 1    
   137   70   71 1    
   138   70   72 1    
   139   70  191 1    
   140   71  192 1    
   141   71  193 1    
   142   71  194 1    
   143   72   73 2    
   144   72   74 am   BACKBONE|DICT|INTERRES
   145   74   75 1    
   146   74  195 1    
   147   75   76 1    
   148   75   77 1    
   149   75  196 1    
   150   76  197 1    
   151   76  198 1    
   152   76  199 1    
   153   77   78 2    
   154   77   79 am   BACKBONE|DICT|INTERRES
   155   79   80 1    
   156   79  200 1    
   157   80   81 1    
   158   80   82 1    
   159   80  201 1    
   160   81  202 1    
   161   81  203 1    
   162   81  204 1    
   163   82   83 2    
   164   82   84 am   BACKBONE|DICT|INTERRES
   165   84   85 1    
   166   84  205 1    
   167   85   86 1    
   168   85   87 1    
   169   85  206 1    
   170   86  207 1    
   171   86  208 1    
   172   86  209 1    
   173   87   88 2    
   174   87   89 am   BACKBONE|DICT|INTERRES
   175   89   90 1    
   176   89  210 1    
   177   90   91 1    
   178   90   92 1    
   179   90  211 1    
   180   91  212 1    
   181   91  213 1    
   182   91  214 1    
   183   92   93 2    
   184   92   94 am   BACKBONE|DICT|INTERRES
   185   94   95 1    
   186   94  215 1    
   187   95   96 1    
   188   95   97 1    
   189   95  216 1    
   190   96  217 1    
   191   96  218 1    
   192   96  219 1    
   193   97   98 2    
   194   97   99 am   BACKBONE|DICT|INTERRES
   195   99  100 1    
   196   99  220 1    
   197  100  101 1    
   198  100  102 1    
   199  100  221 1    
   200  101  222 1    
   201  101  223 1    
   202  101  224 1    
   203  102  103 2    
   204  102  104 am   BACKBONE|DICT|INTERRES
   205  104  105 1    
   206  104  225 1    
   207  105  106 1    
   208  105  107 1    
   209  105  226 1    
   210  106  227 1    
   211  106  228 1    
   212  106  229 1    
   213  107  108 2    
   214  107  109 am   BACKBONE|DICT|INTERRES
   215  109  110 1    
   216  109  230 1    
   217  110  111 1    
   218  110  112 1    
   219  110  231 1    
   220  111  232 1    
   221  111  233 1    
   222  111  234 1    
   223  112  113 2    
   224  112  114 am   BACKBONE|DICT|INTERRES
   225  114  115 1    
   226  114  235 1    
   227  115  116 1    
   228  115  117 1    
   229  115  236 1    
   230  116  237 1    
   231  116  238 1    
   232  116  239 1    
   233  117  118 2    
   234  117  119 am   BACKBONE|DICT|INTERRES
   235  119  120 1    
   236  119  240 1    
   237  120  121 1    
   238  120  124 1    
   239  120  241 1    
   240  121  122 am   BACKBONE|DICT|INTERRES
   241  121  123 2    
   242  122  242 1    
   243  122  243 1    
   244  124  125 1    
   245  124  244 1    
   246  124  245 1    
   247  125  126 1    
   248  126  246 1    
   249  126  247 1    
@<TRIPOS>SUBSTRUCTURE
     1 UNK         1 GROUP             0       ****    0 ROOT    
