@<TRIPOS>MOLECULE
3R540
247   249    1
SMALL
USER_CHARGES


@<TRIPOS>ATOM
      1 CA         -4.7978  -15.7991  -49.7008 C.3       0 UNK        -0.1800 
      2 C          -3.5771  -14.9594  -49.3582 C.2       0 UNK         0.5000 
      3 O          -3.4320  -13.8483  -49.8682 O.2       0 UNK        -0.5000 
      4 N          -2.6953  -15.4965  -48.5073 N.am      1 UNK        -0.5000 
      5 CA         -1.4636  -14.8561  -48.0377 C.3       1 UNK         0.1400 
      6 C6         -0.5663  -15.8334  -47.2410 C.3       23 UNK        -0.0398 
      7 S7         -0.1631  -17.3532  -48.1678 S.3       23 UNK        -0.2404 
      8 C8          1.4443  -16.8982  -48.8819 C.3       23 UNK        -0.0205 
      9 C9          1.9740  -17.9972  -49.7862 C.ar      23 UNK        -0.0193 
     10 C10         1.6578  -18.0055  -51.1474 C.ar      23 UNK        -0.1150 
     11 C11         2.1450  -19.0155  -51.9822 C.ar      23 UNK        -0.0193 
     12 C12         2.9551  -20.0212  -51.4462 C.ar      23 UNK        -0.1150 
     13 C13         3.2763  -20.0234  -50.0855 C.ar      23 UNK        -0.0193 
     14 C14         2.7866  -19.0053  -49.2621 C.ar      23 UNK        -0.1150 
     15 C15         4.1461  -21.1282  -49.5009 C.3       23 UNK        -0.0205 
     16 S16         3.2678  -22.7226  -49.4258 S.3       23 UNK        -0.2404 
     17 C17         1.8200  -22.2915  -48.4027 C.3       23 UNK        -0.0398 
     18 CA          1.4982  -23.3545  -47.3257 C.3       11 UNK         0.1400 
     19 N           2.6134  -23.5238  -46.3878 N.am      11 UNK        -0.5000 
     20 C           2.8018  -24.5424  -45.5381 C.2       10 UNK         0.5000 
     21 O           2.0438  -25.5098  -45.4600 O.2       10 UNK        -0.5000 
     22 CA          4.0367  -24.4757  -44.6118 C.3       10 UNK         0.1400 
     23 CB          5.0042  -25.6259  -44.9332 C.3       10 UNK        -0.1800 
     24 N           4.7815  -23.2125  -44.6947 N.am      10 UNK        -0.5000 
     25 C           4.4456  -22.0015  -44.2255 C.2       9 UNK         0.5000 
     26 O           5.1622  -21.0237  -44.4363 O.2       9 UNK        -0.5000 
     27 CA          3.1444  -21.7922  -43.4289 C.3       9 UNK         0.1400 
     28 CB          3.4366  -21.4292  -41.9627 C.3       9 UNK        -0.1800 
     29 N           2.4203  -20.7097  -44.0784 N.am      9 UNK        -0.5000 
     30 C           1.1040  -20.4933  -44.0218 C.2       8 UNK         0.5000 
     31 O           0.3336  -21.1803  -43.3484 O.2       8 UNK        -0.5000 
     32 CA          0.5735  -19.3063  -44.8561 C.3       8 UNK         0.1400 
     33 CB         -0.9481  -19.1240  -44.7155 C.3       8 UNK        -0.1800 
     34 N           1.2358  -18.0476  -44.5086 N.am      8 UNK        -0.5000 
     35 C           2.4662  -17.6757  -44.8865 C.2       7 UNK         0.5000 
     36 O           3.1773  -18.3568  -45.6255 O.2       7 UNK        -0.5000 
     37 CA          3.0185  -16.3561  -44.3208 C.3       7 UNK         0.1400 
     38 CB          2.6760  -15.1717  -45.2348 C.3       7 UNK        -0.1800 
     39 N           2.5088  -16.0839  -42.9758 N.am      7 UNK        -0.5000 
     40 C           3.2513  -16.0914  -41.8600 C.2       6 UNK         0.5000 
     41 O           4.4665  -16.2917  -41.8465 O.2       6 UNK        -0.5000 
     42 CA          2.5237  -15.8318  -40.5247 C.3       6 UNK         0.1400 
     43 CB          2.6619  -14.3588  -40.1134 C.3       6 UNK        -0.1800 
     44 N           1.1048  -16.1885  -40.5601 N.am      6 UNK        -0.5000 
     45 C           0.6443  -17.4465  -40.6141 C.2       5 UNK         0.5000 
     46 O           1.3725  -18.4377  -40.5661 O.2       5 UNK        -0.5000 
     47 CA         -0.8787  -17.6422  -40.7641 C.3       5 UNK         0.1400 
     48 CB         -1.5044  -18.0022  -39.4080 C.3       5 UNK        -0.1800 
     49 N          -1.6111  -16.5027  -41.3305 N.am      5 UNK        -0.5000 
     50 C          -1.3777  -15.9086  -42.5088 C.2       4 UNK         0.5000 
     51 O          -0.4426  -16.2156  -43.2511 O.2       4 UNK        -0.5000 
     52 CA         -2.3203  -14.7639  -42.9338 C.3       4 UNK         0.1400 
     53 CB         -3.3389  -14.3359  -41.8532 C.3       4 UNK        -0.1800 
     54 N          -1.5627  -13.6085  -43.4190 N.am      4 UNK        -0.5000 
     55 C          -0.6470  -12.8998  -42.7388 C.2       3 UNK         0.5000 
     56 O          -0.3630  -13.1141  -41.5590 O.2       3 UNK        -0.5000 
     57 CA          0.0991  -11.7810  -43.4962 C.3       3 UNK         0.1400 
     58 CB          1.6214  -11.9319  -43.3430 C.3       3 UNK        -0.1800 
     59 N          -0.2322  -11.7404  -44.9240 N.am      3 UNK        -0.5000 
     60 C          -1.2230  -11.0103  -45.4523 C.2       2 UNK         0.5000 
     61 O          -1.9517  -10.2672  -44.7941 O.2       2 UNK        -0.5000 
     62 CA         -1.4540  -11.1442  -46.9700 C.3       2 UNK         0.1400 
     63 CB         -0.6376  -10.0870  -47.7293 C.3       2 UNK        -0.1800 
     64 N          -1.1562  -12.4693  -47.5276 N.am      2 UNK        -0.5000 
     65 C          -1.7848  -13.6048  -47.1925 C.2       1 UNK         0.5000 
     66 O          -2.5840  -13.6944  -46.2579 O.2       1 UNK        -0.5000 
     67 C           0.1761  -23.0241  -46.5950 C.2       11 UNK         0.5000 
     68 O          -0.3412  -21.9136  -46.7250 O.2       11 UNK        -0.5000 
     69 N          -0.3367  -23.9925  -45.8283 N.am      12 UNK        -0.5000 
     70 CA         -1.6306  -23.9518  -45.1506 C.3       12 UNK         0.1400 
     71 CB         -1.5843  -24.9137  -43.9476 C.3       12 UNK        -0.1800 
     72 C          -2.7805  -24.2446  -46.1427 C.2       12 UNK         0.5000 
     73 O          -2.7339  -23.7727  -47.2795 O.2       12 UNK        -0.5000 
     74 N          -3.8022  -24.9988  -45.7075 N.am      13 UNK        -0.5000 
     75 CA         -4.9875  -25.3973  -46.4817 C.3       13 UNK         0.1400 
     76 CB         -4.5997  -26.3935  -47.5952 C.3       13 UNK        -0.1800 
     77 C          -5.7627  -24.1748  -47.0143 C.2       13 UNK         0.5000 
     78 O          -5.9011  -23.9993  -48.2264 O.2       13 UNK        -0.5000 
     79 N          -6.1948  -23.3180  -46.0767 N.am      14 UNK        -0.5000 
     80 CA         -6.8603  -22.0296  -46.3068 C.3       14 UNK         0.1400 
     81 CB         -8.2520  -22.2315  -46.9442 C.3       14 UNK        -0.1800 
     82 C          -5.9720  -21.0434  -47.0944 C.2       14 UNK         0.5000 
     83 O          -6.4559  -20.3664  -48.0017 O.2       14 UNK        -0.5000 
     84 N          -4.6796  -21.0060  -46.7348 N.am      15 UNK        -0.5000 
     85 CA         -3.6143  -20.1965  -47.3353 C.3       15 UNK         0.1400 
     86 CB         -3.8270  -18.7030  -47.0145 C.3       15 UNK        -0.1800 
     87 C          -3.4567  -20.4754  -48.8417 C.2       15 UNK         0.5000 
     88 O          -3.6928  -19.5905  -49.6668 O.2       15 UNK        -0.5000 
     89 N          -3.1116  -21.7305  -49.1615 N.am      16 UNK        -0.5000 
     90 CA         -2.9495  -22.2834  -50.5079 C.3       16 UNK         0.1400 
     91 CB         -1.7282  -21.6466  -51.2065 C.3       16 UNK        -0.1800 
     92 C          -4.2498  -22.1957  -51.3336 C.2       16 UNK         0.5000 
     93 O          -4.2143  -21.8114  -52.5041 O.2       16 UNK        -0.5000 
     94 N          -5.3790  -22.5324  -50.6899 N.am      17 UNK        -0.5000 
     95 CA         -6.7496  -22.4550  -51.2033 C.3       17 UNK         0.1400 
     96 CB         -6.9709  -23.5171  -52.3011 C.3       17 UNK        -0.1800 
     97 C          -7.1172  -21.0278  -51.6584 C.2       17 UNK         0.5000 
     98 O          -7.5373  -20.8322  -52.7982 O.2       17 UNK        -0.5000 
     99 N          -6.8952  -20.0463  -50.7720 N.am      18 UNK        -0.5000 
    100 CA        -7.0028  -18.6028  -51.0119 C.3       18 UNK         0.1400 
    101 CB        -8.4746  -18.1866  -51.2112 C.3       18 UNK        -0.1800 
    102 C         -6.0739  -18.1334  -52.1536 C.2       18 UNK         0.5000 
    103 O         -6.4862  -17.3591  -53.0188 O.2       18 UNK        -0.5000 
    104 N         -4.8380  -18.6512  -52.1352 N.am      19 UNK        -0.5000 
    105 CA        -3.7631  -18.4787  -53.1151 C.3       19 UNK         0.1400 
    106 CB        -3.2629  -17.0201  -53.1277 C.3       19 UNK        -0.1800 
    107 C         -4.0761  -19.0156  -54.5308 C.2       19 UNK         0.5000 
    108 O         -3.3486  -18.6887  -55.4690 O.2       19 UNK        -0.5000 
    109 N         -5.1157  -19.8497  -54.6841 N.am      20 UNK        -0.5000 
    110 CA        -5.4683  -20.4865  -55.9552 C.3       20 UNK         0.1400 
    111 CB        -6.9033  -21.0274  -55.8942 C.3       20 UNK        -0.1800 
    112 C         -4.4899  -21.6092  -56.3418 C.2       20 UNK         0.5000 
    113 O         -4.2107  -21.7850  -57.5290 O.2       20 UNK        -0.5000 
    114 N         -3.9539  -22.3277  -55.3430 N.am      21 UNK        -0.5000 
    115 CA        -2.9801  -23.4069  -55.5377 C.3       21 UNK         0.1400 
    116 CB        -2.9179  -24.2797  -54.2749 C.3       21 UNK        -0.1800 
    117 C         -1.5793  -22.8974  -55.9361 C.2       21 UNK         0.5000 
    118 O         -0.7570  -23.6919  -56.3939 O.2       21 UNK        -0.5000 
    119 N         -1.3406  -21.5879  -55.7853 N.am      22 UNK        -0.5000 
    120 CA        -0.1466  -20.8821  -56.2749 C.3       22 UNK         0.1400 
    121 C         -0.0998  -20.7154  -57.8243 C.2       22 UNK         0.5000 
    122 N         -1.1789  -20.9584  -58.5614 N.am      22 UNK        -0.7600 
    123 O          0.9422  -20.3632  -58.3702 O.2       22 UNK        -0.5000 
    124 C124        0.0338  -19.5070  -55.5821 C.3       23 UNK        -0.0398 
    125 S125        0.1196  -19.6246  -53.7620 S.3       23 UNK        -0.2404 
    126 C126        1.8046  -19.0100  -53.4634 C.3       23 UNK        -0.0205 
    127 H127       -5.6462  -15.5032  -49.0842 H         1 UNK         0.0600 
    128 H128       -5.0686  -15.6593  -50.7472 H         1 UNK         0.0600 
    129 H129       -4.6044  -16.8600  -49.5407 H         1 UNK         0.0600 
    130 H130       -2.8708  -16.4162  -48.1326 H         1 UNK         0.3000 
    131 H131       -0.9097  -14.5404  -48.9244 H         1 UNK         0.0600 
    132 H132        0.3632  -15.3403  -46.9619 H         1 UNK         0.0800 
    133 H133       -1.0477  -16.1256  -46.3058 H         1 UNK         0.0800 
    134 H134        1.3464  -15.9675  -49.4427 H         1 UNK         0.0800 
    135 H135        2.1571  -16.7074  -48.0796 H         1 UNK         0.0800 
    136 H136        1.0261  -17.2299  -51.5574 H         1 UNK         0.1150 
    137 H137        3.3303  -20.8092  -52.0842 H         1 UNK         0.1150 
    138 H138        3.0285  -19.0006  -48.2085 H         1 UNK         0.1150 
    139 H139        5.0411  -21.2445  -50.1135 H         1 UNK         0.0800 
    140 H140        4.4922  -20.8615  -48.5008 H         1 UNK         0.0800 
    141 H141        0.9743  -22.1589  -49.0791 H         1 UNK         0.0800 
    142 H142        1.9806  -21.3240  -47.9252 H         1 UNK         0.0800 
    143 H143        1.3438  -24.3059  -47.8394 H         1 UNK         0.0600 
    144 H144        3.3106  -22.7949  -46.4060 H         1 UNK         0.3000 
    145 H145        3.6909  -24.6148  -43.5860 H         1 UNK         0.0600 
    146 H146        5.3910  -25.5542  -45.9506 H         1 UNK         0.0600 
    147 H147        5.8538  -25.6302  -44.2500 H         1 UNK         0.0600 
    148 H148        4.5106  -26.5941  -44.8377 H         1 UNK         0.0600 
    149 H149        5.6512  -23.2773  -45.2032 H         1 UNK         0.3000 
    150 H150        2.5192  -22.6834  -43.4441 H         1 UNK         0.0600 
    151 H151        3.9937  -22.2254  -41.4680 H         1 UNK         0.0600 
    152 H152        2.5146  -21.2783  -41.4006 H         1 UNK         0.0600 
    153 H153        4.0253  -20.5142  -41.8840 H         1 UNK         0.0600 
    154 H154        2.9896  -20.0836  -44.6433 H         1 UNK         0.3000 
    155 H155        0.7823  -19.5308  -45.9043 H         1 UNK         0.0600 
    156 H156       -1.4754  -20.0432  -44.9686 H         1 UNK         0.0600 
    157 H157       -1.3147  -18.3432  -45.3798 H         1 UNK         0.0600 
    158 H158       -1.2323  -18.8593  -43.6987 H         1 UNK         0.0600 
    159 H159        0.6884  -17.4120  -43.9338 H         1 UNK         0.3000 
    160 H160        4.1057  -16.4569  -44.3078 H         1 UNK         0.0600 
    161 H161        1.6256  -14.8944  -45.1516 H         1 UNK         0.0600 
    162 H162        2.8886  -15.3985  -46.2794 H         1 UNK         0.0600 
    163 H163        3.2745  -14.2996  -44.9733 H         1 UNK         0.0600 
    164 H164        1.5076  -15.9454  -42.8917 H         1 UNK         0.3000 
    165 H165        3.0099  -16.4430  -39.7614 H         1 UNK         0.0600 
    166 H166        2.1982  -14.1730  -39.1445 H         1 UNK         0.0600 
    167 H167        3.7112  -14.0721  -40.0324 H         1 UNK         0.0600 
    168 H168        2.1965  -13.6948  -40.8412 H         1 UNK         0.0600 
    169 H169        0.4439  -15.4253  -40.6178 H         1 UNK         0.3000 
    170 H170       -1.0229  -18.4902  -41.4349 H         1 UNK         0.0600 
    171 H171       -1.4246  -17.1780  -38.6980 H         1 UNK         0.0600 
    172 H172       -2.5595  -18.2554  -39.5136 H         1 UNK         0.0600 
    173 H173       -1.0086  -18.8668  -38.9642 H         1 UNK         0.0600 
    174 H174       -2.3824  -16.1585  -40.7775 H         1 UNK         0.3000 
    175 H175       -2.8830  -15.1405  -43.7890 H         1 UNK         0.0600 
    176 H176       -4.0041  -15.1582  -41.5873 H         1 UNK         0.0600 
    177 H177       -2.8524  -13.9889  -40.9409 H         1 UNK         0.0600 
    178 H178       -3.9697  -13.5246  -42.2169 H         1 UNK         0.0600 
    179 H179       -1.7261  -13.3751  -44.3916 H         1 UNK         0.3000 
    180 H180       -0.1854  -10.8351  -43.0308 H         1 UNK         0.0600 
    181 H181        2.1584  -11.2002  -43.9467 H         1 UNK         0.0600 
    182 H182        1.9580  -12.9252  -43.6338 H         1 UNK         0.0600 
    183 H183        1.9240  -11.7765  -42.3070 H         1 UNK         0.0600 
    184 H184        0.3167  -12.3246  -45.5372 H         1 UNK         0.3000 
    185 H185       -2.5127  -10.9471  -47.1517 H         1 UNK         0.0600 
    186 H186        0.4350  -10.2528  -47.6215 H         1 UNK         0.0600 
    187 H187       -0.8743  -10.0940  -48.7935 H         1 UNK         0.0600 
    188 H188       -0.8536   -9.0842  -47.3578 H         1 UNK         0.0600 
    189 H189       -0.5106  -12.4825  -48.3042 H         1 UNK         0.3000 
    190 H190        0.1980  -24.8504  -45.7395 H         1 UNK         0.3000 
    191 H191       -1.7892  -22.9422  -44.7656 H         1 UNK         0.0600 
    192 H192       -1.4854  -25.9532  -44.2635 H         1 UNK         0.0600 
    193 H193       -2.4808  -24.8302  -43.3323 H         1 UNK         0.0600 
    194 H194       -0.7373  -24.6838  -43.3003 H         1 UNK         0.0600 
    195 H195       -3.7653  -25.3425  -44.7581 H         1 UNK         0.3000 
    196 H196       -5.6563  -25.9173  -45.7943 H         1 UNK         0.0600 
    197 H197       -5.4854  -26.7550  -48.1188 H         1 UNK         0.0600 
    198 H198       -4.0876  -27.2633  -47.1840 H         1 UNK         0.0600 
    199 H199       -3.9442  -25.9406  -48.3398 H         1 UNK         0.0600 
    200 H200       -6.0142  -23.5479  -45.1093 H         1 UNK         0.3000 
    201 H201       -7.0132  -21.5802  -45.3246 H         1 UNK         0.0600 
    202 H202       -8.8584  -22.9200  -46.3559 H         1 UNK         0.0600 
    203 H203       -8.1841  -22.6271  -47.9576 H         1 UNK         0.0600 
    204 H204       -8.7961  -21.2879  -46.9997 H         1 UNK         0.0600 
    205 H205       -4.3857  -21.6347  -46.0029 H         1 UNK         0.3000 
    206 H206       -2.6803  -20.5082  -46.8689 H         1 UNK         0.0600 
    207 H207       -3.8906  -18.5358  -45.9394 H         1 UNK         0.0600 
    208 H208       -2.9918  -18.1117  -47.3860 H         1 UNK         0.0600 
    209 H209       -4.7378  -18.3122  -47.4690 H         1 UNK         0.0600 
    210 H210       -2.9727  -22.4022  -48.4064 H         1 UNK         0.3000 
    211 H211       -2.7415  -23.3468  -50.3822 H         1 UNK         0.0600 
    212 H212       -1.8463  -20.5717  -51.3363 H         1 UNK         0.0600 
    213 H213       -1.5585  -22.0732  -52.1942 H         1 UNK         0.0600 
    214 H214       -0.8193  -21.8071  -50.6283 H         1 UNK         0.0600 
    215 H215       -5.3084  -22.8651  -49.7322 H         1 UNK         0.3000 
    216 H216       -7.4094  -22.6955  -50.3689 H         1 UNK         0.0600 
    217 H217       -8.0100  -23.5256  -52.6317 H         1 UNK         0.0600 
    218 H218       -6.7392  -24.5161  -51.9321 H         1 UNK         0.0600 
    219 H219       -6.3503  -23.3327  -53.1785 H         1 UNK         0.0600 
    220 H220       -6.5679  -20.2960  -49.8401 H         1 UNK         0.3000 
    221 H221       -6.6451  -18.1198  -50.1021 H         1 UNK         0.0600 
    222 H222       -8.8925  -18.5968  -52.1310 H         1 UNK         0.0600 
    223 H223       -9.0944  -18.5244  -50.3807 H         1 UNK         0.0600 
    224 H224       -8.5680  -17.1015  -51.2654 H         1 UNK         0.0600 
    225 H225       -4.5896  -19.2391  -51.3429 H         1 UNK         0.3000 
    226 H226       -2.9407  -19.0949  -52.7527 H         1 UNK         0.0600 
    227 H227       -4.0161  -16.3363  -53.5193 H         1 UNK         0.0600 
    228 H228       -2.9947  -16.6889  -52.1244 H         1 UNK         0.0600 
    229 H229       -2.3714  -16.9164  -53.7473 H         1 UNK         0.0600 
    230 H230       -5.6656  -20.1066  -53.8730 H         1 UNK         0.3000 
    231 H231       -5.4319  -19.7266  -56.7387 H         1 UNK         0.0600 
    232 H232       -7.2160  -21.4088  -56.8669 H         1 UNK         0.0600 
    233 H233       -7.6091  -20.2477  -55.6071 H         1 UNK         0.0600 
    234 H234       -6.9948  -21.8457  -55.1795 H         1 UNK         0.0600 
    235 H235       -4.1896  -22.0965  -54.3797 H         1 UNK         0.3000 
    236 H236       -3.3365  -24.0362  -56.3559 H         1 UNK         0.0600 
    237 H237       -2.4990  -23.7374  -53.4297 H         1 UNK         0.0600 
    238 H238       -3.9082  -24.6348  -53.9889 H         1 UNK         0.0600 
    239 H239       -2.2918  -25.1573  -54.4397 H         1 UNK         0.0600 
    240 H240       -2.0715  -21.0071  -55.4016 H         1 UNK         0.3000 
    241 H241        0.7196  -21.4930  -56.0140 H         1 UNK         0.0600 
    242 H242       -1.1278  -20.8488  -59.5621 H         1 UNK         0.3800 
    243 H243       -2.0495  -21.2445  -58.1347 H         1 UNK         0.3800 
    244 H244       -0.7877  -18.8390  -55.8413 H         1 UNK         0.0800 
    245 H245        0.9370  -19.0163  -55.9491 H         1 UNK         0.0800 
    246 H246        2.5164  -19.6220  -54.0197 H         1 UNK         0.0800 
    247 H247        1.8957  -17.9949  -53.8530 H         1 UNK         0.0800 
@<TRIPOS>BOND
     1    1    2 1    
     2    1  127 1    
     3    1  128 1    
     4    1  129 1    
     5    2    3 2    
     6    2    4 am   BACKBONE|DICT|INTERRES
     7    4    5 1    
     8    4  130 1    
     9    5    6 1    
    10    5   65 1    
    11    5  131 1    
    12    6    7 1    
    13    6  132 1    
    14    6  133 1    
    15    7    8 1    
    16    8    9 1    
    17    8  134 1    
    18    8  135 1    
    19    9   10 ar   
    20    9   14 ar   
    21   10   11 ar   
    22   10  136 1    
    23   11   12 ar   
    24   11  126 1    
    25   12   13 ar   
    26   12  137 1    
    27   13   14 ar   
    28   13   15 1    
    29   14  138 1    
    30   15   16 1    
    31   15  139 1    
    32   15  140 1    
    33   16   17 1    
    34   17   18 1    
    35   17  141 1    
    36   17  142 1    
    37   18   19 1    
    38   18   67 1    
    39   18  143 1    
    40   19   20 am   BACKBONE|DICT|INTERRES
    41   19  144 1    
    42   20   21 2    
    43   20   22 1    
    44   22   23 1    
    45   22   24 1    
    46   22  145 1    
    47   23  146 1    
    48   23  147 1    
    49   23  148 1    
    50   24   25 am   BACKBONE|DICT|INTERRES
    51   24  149 1    
    52   25   26 2    
    53   25   27 1    
    54   27   28 1    
    55   27   29 1    
    56   27  150 1    
    57   28  151 1    
    58   28  152 1    
    59   28  153 1    
    60   29   30 am   BACKBONE|DICT|INTERRES
    61   29  154 1    
    62   30   31 2    
    63   30   32 1    
    64   32   33 1    
    65   32   34 1    
    66   32  155 1    
    67   33  156 1    
    68   33  157 1    
    69   33  158 1    
    70   34   35 am   BACKBONE|DICT|INTERRES
    71   34  159 1    
    72   35   36 2    
    73   35   37 1    
    74   37   38 1    
    75   37   39 1    
    76   37  160 1    
    77   38  161 1    
    78   38  162 1    
    79   38  163 1    
    80   39   40 am   BACKBONE|DICT|INTERRES
    81   39  164 1    
    82   40   41 2    
    83   40   42 1    
    84   42   43 1    
    85   42   44 1    
    86   42  165 1    
    87   43  166 1    
    88   43  167 1    
    89   43  168 1    
    90   44   45 am   BACKBONE|DICT|INTERRES
    91   44  169 1    
    92   45   46 2    
    93   45   47 1    
    94   47   48 1    
    95   47   49 1    
    96   47  170 1    
    97   48  171 1    
    98   48  172 1    
    99   48  173 1    
   100   49   50 am   BACKBONE|DICT|INTERRES
   101   49  174 1    
   102   50   51 2    
   103   50   52 1    
   104   52   53 1    
   105   52   54 1    
   106   52  175 1    
   107   53  176 1    
   108   53  177 1    
   109   53  178 1    
   110   54   55 am   BACKBONE|DICT|INTERRES
   111   54  179 1    
   112   55   56 2    
   113   55   57 1    
   114   57   58 1    
   115   57   59 1    
   116   57  180 1    
   117   58  181 1    
   118   58  182 1    
   119   58  183 1    
   120   59   60 am   BACKBONE|DICT|INTERRES
   121   59  184 1    
   122   60   61 2    
   123   60   62 1    
   124   62   63 1    
   125   62   64 1    
   126   62  185 1    
   127   63  186 1    
   128   63  187 1    
   129   63  188 1    
   130   64   65 am   BACKBONE|DICT|INTERRES
   131   64  189 1    
   132   65   66 2    
   133   67   68 2    
   134   67   69 am   BACKBONE|DICT|INTERRES
   135   69   70 1    
   136   69  190 1    
   137   70   71 1    
   138   70   72 1    
   139   70  191 1    
   140   71  192 1    
   141   71  193 1    
   142   71  194 1    
   143   72   73 2    
   144   72   74 am   BACKBONE|DICT|INTERRES
   145   74   75 1    
   146   74  195 1    
   147   75   76 1    
   148   75   77 1    
   149   75  196 1    
   150   76  197 1    
   151   76  198 1    
   152   76  199 1    
   153   77   78 2    
   154   77   79 am   BACKBONE|DICT|INTERRES
   155   79   80 1    
   156   79  200 1    
   157   80   81 1    
   158   80   82 1    
   159   80  201 1    
   160   81  202 1    
   161   81  203 1    
   162   81  204 1    
   163   82   83 2    
   164   82   84 am   BACKBONE|DICT|INTERRES
   165   84   85 1    
   166   84  205 1    
   167   85   86 1    
   168   85   87 1    
   169   85  206 1    
   170   86  207 1    
   171   86  208 1    
   172   86  209 1    
   173   87   88 2    
   174   87   89 am   BACKBONE|DICT|INTERRES
   175   89   90 1    
   176   89  210 1    
   177   90   91 1    
   178   90   92 1    
   179   90  211 1    
   180   91  212 1    
   181   91  213 1    
   182   91  214 1    
   183   92   93 2    
   184   92   94 am   BACKBONE|DICT|INTERRES
   185   94   95 1    
   186   94  215 1    
   187   95   96 1    
   188   95   97 1    
   189   95  216 1    
   190   96  217 1    
   191   96  218 1    
   192   96  219 1    
   193   97   98 2    
   194   97   99 am   BACKBONE|DICT|INTERRES
   195   99  100 1    
   196   99  220 1    
   197  100  101 1    
   198  100  102 1    
   199  100  221 1    
   200  101  222 1    
   201  101  223 1    
   202  101  224 1    
   203  102  103 2    
   204  102  104 am   BACKBONE|DICT|INTERRES
   205  104  105 1    
   206  104  225 1    
   207  105  106 1    
   208  105  107 1    
   209  105  226 1    
   210  106  227 1    
   211  106  228 1    
   212  106  229 1    
   213  107  108 2    
   214  107  109 am   BACKBONE|DICT|INTERRES
   215  109  110 1    
   216  109  230 1    
   217  110  111 1    
   218  110  112 1    
   219  110  231 1    
   220  111  232 1    
   221  111  233 1    
   222  111  234 1    
   223  112  113 2    
   224  112  114 am   BACKBONE|DICT|INTERRES
   225  114  115 1    
   226  114  235 1    
   227  115  116 1    
   228  115  117 1    
   229  115  236 1    
   230  116  237 1    
   231  116  238 1    
   232  116  239 1    
   233  117  118 2    
   234  117  119 am   BACKBONE|DICT|INTERRES
   235  119  120 1    
   236  119  240 1    
   237  120  121 1    
   238  120  124 1    
   239  120  241 1    
   240  121  122 am   BACKBONE|DICT|INTERRES
   241  121  123 2    
   242  122  242 1    
   243  122  243 1    
   244  124  125 1    
   245  124  244 1    
   246  124  245 1    
   247  125  126 1    
   248  126  246 1    
   249  126  247 1    
@<TRIPOS>SUBSTRUCTURE
     1 UNK         1 GROUP             0       ****    0 ROOT    
