@<TRIPOS>MOLECULE
3R540
247   249    1
SMALL
USER_CHARGES


@<TRIPOS>ATOM
      1 CA         -0.2293  -12.5905  -50.5623 C.3       0 UNK        -0.1800 
      2 C           0.2919  -13.4714  -49.4365 C.2       0 UNK         0.5000 
      3 O          -0.4120  -14.3784  -48.9990 O.2       0 UNK        -0.5000 
      4 N           1.5094  -13.1915  -48.9511 N.am      1 UNK        -0.5000 
      5 CA          2.2922  -13.9384  -47.9487 C.3       1 UNK         0.1400 
      6 C6          2.6290  -15.3913  -48.3775 C.3       23 UNK        -0.0398 
      7 S7          3.6629  -15.4291  -49.8790 S.3       23 UNK        -0.2404 
      8 C8          4.1097  -17.1983  -49.9633 C.3       23 UNK        -0.0205 
      9 C9          2.9496  -18.1386  -50.2884 C.ar      23 UNK        -0.0193 
     10 C10         1.8933  -17.7434  -51.1174 C.ar      23 UNK        -0.1150 
     11 C11         0.8504  -18.6217  -51.4188 C.ar      23 UNK        -0.0193 
     12 C12         0.8760  -19.9173  -50.8946 C.ar      23 UNK        -0.1150 
     13 C13         1.9359  -20.3438  -50.0858 C.ar      23 UNK        -0.0193 
     14 C14         2.9682  -19.4455  -49.7896 C.ar      23 UNK        -0.1150 
     15 C15         1.9727  -21.7974  -49.6107 C.3       23 UNK        -0.0205 
     16 S16         2.6758  -22.0849  -47.9475 S.3       23 UNK        -0.2404 
     17 C17         1.6666  -21.0314  -46.8535 C.3       23 UNK        -0.0398 
     18 CA          0.2110  -21.5321  -46.6399 C.3       11 UNK         0.1400 
     19 N          -0.2715  -21.2838  -45.2788 N.am      11 UNK        -0.5000 
     20 C          -1.4337  -21.7287  -44.7765 C.2       10 UNK         0.5000 
     21 O          -2.1734  -22.5231  -45.3566 O.2       10 UNK        -0.5000 
     22 CA         -1.8700  -21.1463  -43.4176 C.3       10 UNK         0.1400 
     23 CB         -1.3050  -21.9758  -42.2552 C.3       10 UNK        -0.1800 
     24 N          -1.4855  -19.7420  -43.2552 N.am      10 UNK        -0.5000 
     25 C          -1.9413  -18.7390  -44.0194 C.2       9 UNK         0.5000 
     26 O          -2.7919  -18.8829  -44.8959 O.2       9 UNK        -0.5000 
     27 CA         -1.2964  -17.3575  -43.8178 C.3       9 UNK         0.1400 
     28 CB         -1.9314  -16.6115  -42.6357 C.3       9 UNK        -0.1800 
     29 N           0.1545  -17.4390  -43.6395 N.am      9 UNK        -0.5000 
     30 C           1.0126  -17.8419  -44.5880 C.2       8 UNK         0.5000 
     31 O           0.6749  -18.1097  -45.7396 O.2       8 UNK        -0.5000 
     32 CA          2.4795  -18.0450  -44.1677 C.3       8 UNK         0.1400 
     33 CB          3.2889  -16.7483  -44.2920 C.3       8 UNK        -0.1800 
     34 N           2.5849  -18.5581  -42.8034 N.am      8 UNK        -0.5000 
     35 C           2.2718  -19.8106  -42.4449 C.2       7 UNK         0.5000 
     36 O           1.9096  -20.6757  -43.2417 O.2       7 UNK        -0.5000 
     37 CA          2.3318  -20.1324  -40.9398 C.3       7 UNK         0.1400 
     38 CB          3.7570  -20.5303  -40.5288 C.3       7 UNK        -0.1800 
     39 N           1.8842  -19.0105  -40.1116 N.am      7 UNK        -0.5000 
     40 C           0.6252  -18.5502  -40.0781 C.2       6 UNK         0.5000 
     41 O          -0.3038  -19.0714  -40.6932 O.2       6 UNK        -0.5000 
     42 CA          0.3755  -17.2614  -39.2696 C.3       6 UNK         0.1400 
     43 CB          0.0327  -17.5978  -37.8110 C.3       6 UNK        -0.1800 
     44 N           1.5125  -16.3357  -39.3023 N.am      6 UNK        -0.5000 
     45 C           1.9724  -15.7388  -40.4098 C.2       5 UNK         0.5000 
     46 O           1.4608  -15.8763  -41.5234 O.2       5 UNK        -0.5000 
     47 CA          3.2669  -14.9312  -40.2583 C.3       5 UNK         0.1400 
     48 CB          4.4675  -15.8977  -40.1631 C.3       5 UNK        -0.1800 
     49 N           3.4232  -14.0388  -41.4049 N.am      5 UNK        -0.5000 
     50 C           4.3499  -13.0793  -41.5187 C.2       4 UNK         0.5000 
     51 O           5.1461  -12.7870  -40.6252 O.2       4 UNK        -0.5000 
     52 CA          4.4117  -12.3196  -42.8548 C.3       4 UNK         0.1400 
     53 CB          5.1970  -13.1301  -43.8979 C.3       4 UNK        -0.1800 
     54 N           3.0929  -11.9760  -43.3881 N.am      4 UNK        -0.5000 
     55 C           2.3205  -10.9937  -42.8975 C.2       3 UNK         0.5000 
     56 O           2.6232  -10.3253  -41.9080 O.2       3 UNK        -0.5000 
     57 CA          1.0077  -10.6654  -43.6402 C.3       3 UNK         0.1400 
     58 CB          1.1815   -9.4039  -44.5005 C.3       3 UNK        -0.1800 
     59 N           0.5305  -11.7502  -44.4955 N.am      3 UNK        -0.5000 
     60 C          -0.0137  -12.8870  -44.0463 C.2       2 UNK         0.5000 
     61 O          -0.2432  -13.1051  -42.8571 O.2       2 UNK        -0.5000 
     62 CA         -0.3440  -13.9699  -45.0922 C.3       2 UNK         0.1400 
     63 CB         -1.8495  -13.9811  -45.3981 C.3       2 UNK        -0.1800 
     64 N           0.3903  -13.8834  -46.3587 N.am      2 UNK        -0.5000 
     65 C           1.7193  -13.9066  -46.5134 C.2       1 UNK         0.5000 
     66 O           2.5019  -13.8757  -45.5651 O.2       1 UNK        -0.5000 
     67 C          -0.7503  -20.9081  -47.6703 C.2       11 UNK         0.5000 
     68 O          -1.2932  -21.6262  -48.5101 O.2       11 UNK        -0.5000 
     69 N          -0.9637  -19.5893  -47.5602 N.am      12 UNK        -0.5000 
     70 CA         -1.7787  -18.7754  -48.4629 C.3       12 UNK         0.1400 
     71 CB         -1.7181  -17.3109  -48.0079 C.3       12 UNK        -0.1800 
     72 C          -3.2389  -19.2395  -48.5870 C.2       12 UNK         0.5000 
     73 O          -3.8120  -19.1671  -49.6742 O.2       12 UNK        -0.5000 
     74 N          -3.8039  -19.7339  -47.4806 N.am      13 UNK        -0.5000 
     75 CA         -5.1513  -20.2924  -47.3990 C.3       13 UNK         0.1400 
     76 CB         -5.5313  -20.4327  -45.9162 C.3       13 UNK        -0.1800 
     77 C          -5.3293  -21.6411  -48.1272 C.2       13 UNK         0.5000 
     78 O          -6.4736  -22.0595  -48.3088 O.2       13 UNK        -0.5000 
     79 N          -4.2298  -22.3054  -48.5105 N.am      14 UNK        -0.5000 
     80 CA         -4.2421  -23.6274  -49.1317 C.3       14 UNK         0.1400 
     81 CB         -3.5533  -24.6319  -48.1931 C.3       14 UNK        -0.1800 
     82 C          -3.5685  -23.6300  -50.5101 C.2       14 UNK         0.5000 
     83 O          -4.1695  -24.1192  -51.4673 O.2       14 UNK        -0.5000 
     84 N          -2.3219  -23.1411  -50.5844 N.am      15 UNK        -0.5000 
     85 CA         -1.3849  -23.2796  -51.7051 C.3       15 UNK         0.1400 
     86 CB         -1.8074  -22.3915  -52.8925 C.3       15 UNK        -0.1800 
     87 C          -1.1749  -24.7626  -52.0785 C.2       15 UNK         0.5000 
     88 O          -0.4672  -25.4716  -51.3629 O.2       15 UNK        -0.5000 
     89 N          -1.8276  -25.2113  -53.1578 N.am      16 UNK        -0.5000 
     90 CA         -1.8702  -26.6028  -53.6143 C.3       16 UNK         0.1400 
     91 CB         -2.1757  -26.6014  -55.1221 C.3       16 UNK        -0.1800 
     92 C          -2.9001  -27.4701  -52.8535 C.2       16 UNK         0.5000 
     93 O          -3.0355  -28.6508  -53.1756 O.2       16 UNK        -0.5000 
     94 N          -3.6208  -26.8686  -51.8942 N.am      17 UNK        -0.5000 
     95 CA         -4.7954  -27.3802  -51.1800 C.3       17 UNK         0.1400 
     96 CB         -4.4933  -28.6868  -50.4164 C.3       17 UNK        -0.1800 
     97 C          -5.9998  -27.4702  -52.1348 C.2       17 UNK         0.5000 
     98 O          -6.6523  -28.5113  -52.2323 O.2       17 UNK        -0.5000 
     99 N          -6.2408  -26.3665  -52.8516 N.am      18 UNK        -0.5000 
    100 CA        -7.2380  -26.2273  -53.9066 C.3       18 UNK         0.1400 
    101 CB        -6.7287  -26.9205  -55.1897 C.3       18 UNK        -0.1800 
    102 C         -7.5270  -24.7323  -54.1324 C.2       18 UNK         0.5000 
    103 O         -7.0702  -23.8875  -53.3579 O.2       18 UNK        -0.5000 
    104 N         -8.2412  -24.4209  -55.2231 N.am      19 UNK        -0.5000 
    105 CA        -8.5984  -23.0674  -55.6721 C.3       19 UNK         0.1400 
    106 CB        -9.5619  -23.1874  -56.8638 C.3       19 UNK        -0.1800 
    107 C         -7.3999  -22.1579  -56.0314 C.2       19 UNK         0.5000 
    108 O         -7.5915  -20.9604  -56.2434 O.2       19 UNK        -0.5000 
    109 N         -6.1890  -22.7303  -56.0742 N.am      20 UNK        -0.5000 
    110 CA        -4.9078  -22.0399  -56.2247 C.3       20 UNK         0.1400 
    111 CB        -3.8142  -23.0972  -56.4502 C.3       20 UNK        -0.1800 
    112 C         -4.5325  -21.1341  -55.0307 C.2       20 UNK         0.5000 
    113 O         -3.6151  -20.3250  -55.1731 O.2       20 UNK        -0.5000 
    114 N         -5.2144  -21.2987  -53.8842 N.am      21 UNK        -0.5000 
    115 CA        -5.0668  -20.5136  -52.6552 C.3       21 UNK         0.1400 
    116 CB        -6.1621  -20.9398  -51.6661 C.3       21 UNK        -0.1800 
    117 C         -5.1253  -18.9927  -52.9035 C.2       21 UNK         0.5000 
    118 O         -6.1258  -18.4980  -53.4287 O.2       21 UNK        -0.5000 
    119 N         -4.0468  -18.2918  -52.5391 N.am      22 UNK        -0.5000 
    120 CA        -3.9071  -16.8362  -52.6832 C.3       22 UNK         0.1400 
    121 C         -4.5731  -16.0112  -51.5431 C.2       22 UNK         0.5000 
    122 N         -4.9345  -16.6100  -50.4146 N.am      22 UNK        -0.7600 
    123 O         -4.7877  -14.8119  -51.6979 O.2       22 UNK        -0.5000 
    124 C124       -2.4326  -16.4240  -52.9310 C.3       23 UNK        -0.0398 
    125 S125       -1.2860  -16.8634  -51.5775 S.3       23 UNK        -0.2404 
    126 C126       -0.2766  -18.1717  -52.3404 C.3       23 UNK        -0.0205 
    127 H127       -0.4678  -13.2024  -51.4325 H         1 UNK         0.0600 
    128 H128        0.5017  -11.8399  -50.8633 H         1 UNK         0.0600 
    129 H129       -1.1374  -12.0769  -50.2468 H         1 UNK         0.0600 
    130 H130        2.0017  -12.4035  -49.3481 H         1 UNK         0.3000 
    131 H131        3.2389  -13.3994  -47.8811 H         1 UNK         0.0600 
    132 H132        1.7213  -15.9727  -48.5490 H         1 UNK         0.0800 
    133 H133        3.1793  -15.9074  -47.5901 H         1 UNK         0.0800 
    134 H134        4.5747  -17.4843  -49.0186 H         1 UNK         0.0800 
    135 H135        4.8729  -17.3235  -50.7321 H         1 UNK         0.0800 
    136 H136        1.8736  -16.7476  -51.5362 H         1 UNK         0.1150 
    137 H137        0.0757  -20.6018  -51.1338 H         1 UNK         0.1150 
    138 H138        3.8005  -19.7692  -49.1809 H         1 UNK         0.1150 
    139 H139        0.9767  -22.2354  -49.6367 H         1 UNK         0.0800 
    140 H140        2.5643  -22.3672  -50.3282 H         1 UNK         0.0800 
    141 H141        1.7133  -20.0004  -47.2064 H         1 UNK         0.0800 
    142 H142        2.1930  -21.0251  -45.8987 H         1 UNK         0.0800 
    143 H143        0.1911  -22.6149  -46.7808 H         1 UNK         0.0600 
    144 H144        0.2993  -20.6833  -44.6970 H         1 UNK         0.3000 
    145 H145       -2.9598  -21.1978  -43.3719 H         1 UNK         0.0600 
    146 H146       -1.6548  -21.5977  -41.2944 H         1 UNK         0.0600 
    147 H147       -0.2155  -21.9646  -42.2421 H         1 UNK         0.0600 
    148 H148       -1.6210  -23.0169  -42.3305 H         1 UNK         0.0600 
    149 H149       -0.8430  -19.5269  -42.4983 H         1 UNK         0.3000 
    150 H150       -1.4880  -16.7805  -44.7225 H         1 UNK         0.0600 
    151 H151       -2.9923  -16.4348  -42.8158 H         1 UNK         0.0600 
    152 H152       -1.4608  -15.6407  -42.4794 H         1 UNK         0.0600 
    153 H153       -1.8491  -17.1755  -41.7077 H         1 UNK         0.0600 
    154 H154        0.5250  -17.1636  -42.7360 H         1 UNK         0.3000 
    155 H155        2.9225  -18.7797  -44.8433 H         1 UNK         0.0600 
    156 H156        3.3485  -16.4338  -45.3325 H         1 UNK         0.0600 
    157 H157        4.3111  -16.8802  -43.9373 H         1 UNK         0.0600 
    158 H158        2.8410  -15.9298  -43.7299 H         1 UNK         0.0600 
    159 H159        2.8228  -17.8910  -42.0856 H         1 UNK         0.3000 
    160 H160        1.6708  -20.9814  -40.7528 H         1 UNK         0.0600 
    161 H161        4.4628  -19.7109  -40.6714 H         1 UNK         0.0600 
    162 H162        4.1113  -21.3759  -41.1199 H         1 UNK         0.0600 
    163 H163        3.7960  -20.8289  -39.4810 H         1 UNK         0.0600 
    164 H164        2.5867  -18.5353  -39.5653 H         1 UNK         0.3000 
    165 H165       -0.4829  -16.7532  -39.7132 H         1 UNK         0.0600 
    166 H166       -0.2238  -16.6996  -37.2489 H         1 UNK         0.0600 
    167 H167       -0.8254  -18.2693  -37.7571 H         1 UNK         0.0600 
    168 H168        0.8648  -18.0868  -37.3029 H         1 UNK         0.0600 
    169 H169        1.9897  -16.1797  -38.4259 H         1 UNK         0.3000 
    170 H170        3.1972  -14.3309  -39.3490 H         1 UNK         0.0600 
    171 H171        4.5924  -16.4727  -41.0815 H         1 UNK         0.0600 
    172 H172        5.4001  -15.3660  -39.9765 H         1 UNK         0.0600 
    173 H173        4.3441  -16.6078  -39.3447 H         1 UNK         0.0600 
    174 H174        2.7632  -14.1990  -42.1560 H         1 UNK         0.3000 
    175 H175        4.9586  -11.3900  -42.6816 H         1 UNK         0.0600 
    176 H176        4.7294  -14.0945  -44.0969 H         1 UNK         0.0600 
    177 H177        5.2713  -12.5925  -44.8433 H         1 UNK         0.0600 
    178 H178        6.2131  -13.3262  -43.5535 H         1 UNK         0.0600 
    179 H179        2.7750  -12.5125  -44.1900 H         1 UNK         0.3000 
    180 H180        0.2462  -10.4601  -42.8848 H         1 UNK         0.0600 
    181 H181        0.2435   -9.1187  -44.9773 H         1 UNK         0.0600 
    182 H182        1.9266   -9.5506  -45.2835 H         1 UNK         0.0600 
    183 H183        1.5057   -8.5575  -43.8934 H         1 UNK         0.0600 
    184 H184        0.6869  -11.6550  -45.4880 H         1 UNK         0.3000 
    185 H185       -0.0697  -14.9206  -44.6391 H         1 UNK         0.0600 
    186 H186       -2.1678  -13.0492  -45.8671 H         1 UNK         0.0600 
    187 H187       -2.1117  -14.7980  -46.0704 H         1 UNK         0.0600 
    188 H188       -2.4355  -14.1083  -44.4870 H         1 UNK         0.0600 
    189 H189       -0.1613  -13.9536  -47.2106 H         1 UNK         0.3000 
    190 H190       -0.4643  -19.0768  -46.8366 H         1 UNK         0.3000 
    191 H191       -1.3312  -18.8506  -49.4529 H         1 UNK         0.0600 
    192 H192       -2.1330  -17.1830  -47.0088 H         1 UNK         0.0600 
    193 H193       -2.2828  -16.6654  -48.6818 H         1 UNK         0.0600 
    194 H194       -0.6912  -16.9452  -47.9954 H         1 UNK         0.0600 
    195 H195       -3.2819  -19.6826  -46.6103 H         1 UNK         0.3000 
    196 H196       -5.8392  -19.5825  -47.8627 H         1 UNK         0.0600 
    197 H197       -5.5012  -19.4684  -45.4087 H         1 UNK         0.0600 
    198 H198       -4.8529  -21.1079  -45.3928 H         1 UNK         0.0600 
    199 H199       -6.5421  -20.8264  -45.8024 H         1 UNK         0.0600 
    200 H200       -3.3204  -21.8864  -48.3494 H         1 UNK         0.3000 
    201 H201       -5.2662  -23.9730  -49.2868 H         1 UNK         0.0600 
    202 H202       -4.0995  -24.7265  -47.2544 H         1 UNK         0.0600 
    203 H203       -2.5339  -24.3272  -47.9517 H         1 UNK         0.0600 
    204 H204       -3.5034  -25.6244  -48.6427 H         1 UNK         0.0600 
    205 H205       -1.9220  -22.7209  -49.7465 H         1 UNK         0.3000 
    206 H206       -0.4194  -22.9182  -51.3542 H         1 UNK         0.0600 
    207 H207       -1.1013  -22.4762  -53.7195 H         1 UNK         0.0600 
    208 H208       -2.7931  -22.6572  -53.2701 H         1 UNK         0.0600 
    209 H209       -1.8351  -21.3419  -52.6031 H         1 UNK         0.0600 
    210 H210       -2.4146  -24.5594  -53.6567 H         1 UNK         0.3000 
    211 H211       -0.8878  -27.0551  -53.4640 H         1 UNK         0.0600 
    212 H212       -3.1708  -26.2068  -55.3302 H         1 UNK         0.0600 
    213 H213       -2.1325  -27.6110  -55.5326 H         1 UNK         0.0600 
    214 H214       -1.4525  -25.9992  -55.6726 H         1 UNK         0.0600 
    215 H215       -3.4684  -25.8727  -51.7715 H         1 UNK         0.3000 
    216 H216       -5.0538  -26.6260  -50.4357 H         1 UNK         0.0600 
    217 H217       -5.3330  -28.9618  -49.7774 H         1 UNK         0.0600 
    218 H218       -3.6195  -28.5745  -49.7747 H         1 UNK         0.0600 
    219 H219       -4.3123  -29.5257  -51.0883 H         1 UNK         0.0600 
    220 H220       -5.7203  -25.5181  -52.6531 H         1 UNK         0.3000 
    221 H221       -8.1688  -26.6965  -53.5818 H         1 UNK         0.0600 
    222 H222       -5.8304  -26.4373  -55.5759 H         1 UNK         0.0600 
    223 H223       -6.4861  -27.9675  -55.0073 H         1 UNK         0.0600 
    224 H224       -7.4791  -26.9083  -55.9804 H         1 UNK         0.0600 
    225 H225       -8.5668  -25.1747  -55.8109 H         1 UNK         0.3000 
    226 H226       -9.1288  -22.5791  -54.8522 H         1 UNK         0.0600 
    227 H227      -10.4557  -23.7507  -56.5946 H         1 UNK         0.0600 
    228 H228       -9.8917  -22.2048  -57.2039 H         1 UNK         0.0600 
    229 H229       -9.0911  -23.6869  -57.7114 H         1 UNK         0.0600 
    230 H230       -6.1414  -23.7212  -55.8941 H         1 UNK         0.3000 
    231 H231       -4.9665  -21.4053  -57.1112 H         1 UNK         0.0600 
    232 H232       -2.8406  -22.6295  -56.6025 H         1 UNK         0.0600 
    233 H233       -4.0234  -23.7019  -57.3328 H         1 UNK         0.0600 
    234 H234       -3.7251  -23.7683  -55.5955 H         1 UNK         0.0600 
    235 H235       -5.9234  -22.0207  -53.8566 H         1 UNK         0.3000 
    236 H236       -4.1020  -20.7616  -52.2121 H         1 UNK         0.0600 
    237 H237       -7.1591  -20.7960  -52.0841 H         1 UNK         0.0600 
    238 H238       -6.0639  -21.9907  -51.3939 H         1 UNK         0.0600 
    239 H239       -6.1055  -20.3574  -50.7463 H         1 UNK         0.0600 
    240 H240       -3.3005  -18.7554  -52.0419 H         1 UNK         0.3000 
    241 H241       -4.4494  -16.5497  -53.5865 H         1 UNK         0.0600 
    242 H242       -5.3771  -16.0732  -49.6870 H         1 UNK         0.3800 
    243 H243       -4.6973  -17.5852  -50.2577 H         1 UNK         0.3800 
    244 H244       -2.3649  -15.3470  -53.0935 H         1 UNK         0.0800 
    245 H245       -2.0832  -16.8776  -53.8593 H         1 UNK         0.0800 
    246 H246        0.1554  -17.7997  -53.2705 H         1 UNK         0.0800 
    247 H247       -0.9187  -19.0114  -52.6089 H         1 UNK         0.0800 
@<TRIPOS>BOND
     1    1    2 1    
     2    1  127 1    
     3    1  128 1    
     4    1  129 1    
     5    2    3 2    
     6    2    4 am   BACKBONE|DICT|INTERRES
     7    4    5 1    
     8    4  130 1    
     9    5    6 1    
    10    5   65 1    
    11    5  131 1    
    12    6    7 1    
    13    6  132 1    
    14    6  133 1    
    15    7    8 1    
    16    8    9 1    
    17    8  134 1    
    18    8  135 1    
    19    9   10 ar   
    20    9   14 ar   
    21   10   11 ar   
    22   10  136 1    
    23   11   12 ar   
    24   11  126 1    
    25   12   13 ar   
    26   12  137 1    
    27   13   14 ar   
    28   13   15 1    
    29   14  138 1    
    30   15   16 1    
    31   15  139 1    
    32   15  140 1    
    33   16   17 1    
    34   17   18 1    
    35   17  141 1    
    36   17  142 1    
    37   18   19 1    
    38   18   67 1    
    39   18  143 1    
    40   19   20 am   BACKBONE|DICT|INTERRES
    41   19  144 1    
    42   20   21 2    
    43   20   22 1    
    44   22   23 1    
    45   22   24 1    
    46   22  145 1    
    47   23  146 1    
    48   23  147 1    
    49   23  148 1    
    50   24   25 am   BACKBONE|DICT|INTERRES
    51   24  149 1    
    52   25   26 2    
    53   25   27 1    
    54   27   28 1    
    55   27   29 1    
    56   27  150 1    
    57   28  151 1    
    58   28  152 1    
    59   28  153 1    
    60   29   30 am   BACKBONE|DICT|INTERRES
    61   29  154 1    
    62   30   31 2    
    63   30   32 1    
    64   32   33 1    
    65   32   34 1    
    66   32  155 1    
    67   33  156 1    
    68   33  157 1    
    69   33  158 1    
    70   34   35 am   BACKBONE|DICT|INTERRES
    71   34  159 1    
    72   35   36 2    
    73   35   37 1    
    74   37   38 1    
    75   37   39 1    
    76   37  160 1    
    77   38  161 1    
    78   38  162 1    
    79   38  163 1    
    80   39   40 am   BACKBONE|DICT|INTERRES
    81   39  164 1    
    82   40   41 2    
    83   40   42 1    
    84   42   43 1    
    85   42   44 1    
    86   42  165 1    
    87   43  166 1    
    88   43  167 1    
    89   43  168 1    
    90   44   45 am   BACKBONE|DICT|INTERRES
    91   44  169 1    
    92   45   46 2    
    93   45   47 1    
    94   47   48 1    
    95   47   49 1    
    96   47  170 1    
    97   48  171 1    
    98   48  172 1    
    99   48  173 1    
   100   49   50 am   BACKBONE|DICT|INTERRES
   101   49  174 1    
   102   50   51 2    
   103   50   52 1    
   104   52   53 1    
   105   52   54 1    
   106   52  175 1    
   107   53  176 1    
   108   53  177 1    
   109   53  178 1    
   110   54   55 am   BACKBONE|DICT|INTERRES
   111   54  179 1    
   112   55   56 2    
   113   55   57 1    
   114   57   58 1    
   115   57   59 1    
   116   57  180 1    
   117   58  181 1    
   118   58  182 1    
   119   58  183 1    
   120   59   60 am   BACKBONE|DICT|INTERRES
   121   59  184 1    
   122   60   61 2    
   123   60   62 1    
   124   62   63 1    
   125   62   64 1    
   126   62  185 1    
   127   63  186 1    
   128   63  187 1    
   129   63  188 1    
   130   64   65 am   BACKBONE|DICT|INTERRES
   131   64  189 1    
   132   65   66 2    
   133   67   68 2    
   134   67   69 am   BACKBONE|DICT|INTERRES
   135   69   70 1    
   136   69  190 1    
   137   70   71 1    
   138   70   72 1    
   139   70  191 1    
   140   71  192 1    
   141   71  193 1    
   142   71  194 1    
   143   72   73 2    
   144   72   74 am   BACKBONE|DICT|INTERRES
   145   74   75 1    
   146   74  195 1    
   147   75   76 1    
   148   75   77 1    
   149   75  196 1    
   150   76  197 1    
   151   76  198 1    
   152   76  199 1    
   153   77   78 2    
   154   77   79 am   BACKBONE|DICT|INTERRES
   155   79   80 1    
   156   79  200 1    
   157   80   81 1    
   158   80   82 1    
   159   80  201 1    
   160   81  202 1    
   161   81  203 1    
   162   81  204 1    
   163   82   83 2    
   164   82   84 am   BACKBONE|DICT|INTERRES
   165   84   85 1    
   166   84  205 1    
   167   85   86 1    
   168   85   87 1    
   169   85  206 1    
   170   86  207 1    
   171   86  208 1    
   172   86  209 1    
   173   87   88 2    
   174   87   89 am   BACKBONE|DICT|INTERRES
   175   89   90 1    
   176   89  210 1    
   177   90   91 1    
   178   90   92 1    
   179   90  211 1    
   180   91  212 1    
   181   91  213 1    
   182   91  214 1    
   183   92   93 2    
   184   92   94 am   BACKBONE|DICT|INTERRES
   185   94   95 1    
   186   94  215 1    
   187   95   96 1    
   188   95   97 1    
   189   95  216 1    
   190   96  217 1    
   191   96  218 1    
   192   96  219 1    
   193   97   98 2    
   194   97   99 am   BACKBONE|DICT|INTERRES
   195   99  100 1    
   196   99  220 1    
   197  100  101 1    
   198  100  102 1    
   199  100  221 1    
   200  101  222 1    
   201  101  223 1    
   202  101  224 1    
   203  102  103 2    
   204  102  104 am   BACKBONE|DICT|INTERRES
   205  104  105 1    
   206  104  225 1    
   207  105  106 1    
   208  105  107 1    
   209  105  226 1    
   210  106  227 1    
   211  106  228 1    
   212  106  229 1    
   213  107  108 2    
   214  107  109 am   BACKBONE|DICT|INTERRES
   215  109  110 1    
   216  109  230 1    
   217  110  111 1    
   218  110  112 1    
   219  110  231 1    
   220  111  232 1    
   221  111  233 1    
   222  111  234 1    
   223  112  113 2    
   224  112  114 am   BACKBONE|DICT|INTERRES
   225  114  115 1    
   226  114  235 1    
   227  115  116 1    
   228  115  117 1    
   229  115  236 1    
   230  116  237 1    
   231  116  238 1    
   232  116  239 1    
   233  117  118 2    
   234  117  119 am   BACKBONE|DICT|INTERRES
   235  119  120 1    
   236  119  240 1    
   237  120  121 1    
   238  120  124 1    
   239  120  241 1    
   240  121  122 am   BACKBONE|DICT|INTERRES
   241  121  123 2    
   242  122  242 1    
   243  122  243 1    
   244  124  125 1    
   245  124  244 1    
   246  124  245 1    
   247  125  126 1    
   248  126  246 1    
   249  126  247 1    
@<TRIPOS>SUBSTRUCTURE
     1 UNK         1 GROUP             0       ****    0 ROOT    
