@<TRIPOS>MOLECULE
3R540
247   249    1
SMALL
USER_CHARGES


@<TRIPOS>ATOM
      1 CA          5.1712  -11.6799  -49.8064 C.3       0 UNK        -0.1800 
      2 C           5.9386  -12.8601  -49.2279 C.2       0 UNK         0.5000 
      3 O           7.0339  -12.6787  -48.6960 O.2       0 UNK        -0.5000 
      4 N           5.3673  -14.0671  -49.3279 N.am      1 UNK        -0.5000 
      5 CA          5.9525  -15.3173  -48.8214 C.3       1 UNK         0.1400 
      6 C6          5.2958  -16.5658  -49.4556 C.3       23 UNK        -0.0398 
      7 S7          5.5197  -16.6426  -51.2647 S.3       23 UNK        -0.2404 
      8 C8          3.8112  -16.3813  -51.8567 C.3       23 UNK        -0.0205 
      9 C9          2.7888  -17.4525  -51.4659 C.ar      23 UNK        -0.0193 
     10 C10         1.4324  -17.1604  -51.6355 C.ar      23 UNK        -0.1150 
     11 C11         0.4483  -18.1023  -51.3255 C.ar      23 UNK        -0.0193 
     12 C12         0.8273  -19.3483  -50.8171 C.ar      23 UNK        -0.1150 
     13 C13         2.1795  -19.6612  -50.6409 C.ar      23 UNK        -0.0193 
     14 C14         3.1518  -18.7154  -50.9768 C.ar      23 UNK        -0.1150 
     15 C15         2.6001  -21.0392  -50.1446 C.3       23 UNK        -0.0205 
     16 S16         3.2666  -21.0340  -48.4416 S.3       23 UNK        -0.2404 
     17 C17         1.8389  -20.5069  -47.4330 C.3       23 UNK        -0.0398 
     18 CA          0.9673  -21.6799  -46.9096 C.3       11 UNK         0.1400 
     19 N           0.1477  -21.2964  -45.7526 N.am      11 UNK        -0.5000 
     20 C          -0.6357  -22.1314  -45.0511 C.2       10 UNK         0.5000 
     21 O          -0.6720  -23.3475  -45.2348 O.2       10 UNK        -0.5000 
     22 CA         -1.5886  -21.5042  -44.0146 C.3       10 UNK         0.1400 
     23 CB         -0.8831  -21.2967  -42.6669 C.3       10 UNK        -0.1800 
     24 N          -2.1755  -20.2455  -44.4796 N.am      10 UNK        -0.5000 
     25 C          -3.0137  -20.1467  -45.5225 C.2       9 UNK         0.5000 
     26 O          -3.4419  -21.1200  -46.1404 O.2       9 UNK        -0.5000 
     27 CA         -3.3954  -18.7307  -45.9947 C.3       9 UNK         0.1400 
     28 CB         -4.6052  -18.1976  -45.2149 C.3       9 UNK        -0.1800 
     29 N          -2.2847  -17.7822  -45.9033 N.am      9 UNK        -0.5000 
     30 C          -1.1404  -17.8962  -46.5918 C.2       8 UNK         0.5000 
     31 O          -0.9304  -18.7982  -47.4012 O.2       8 UNK        -0.5000 
     32 CA         -0.0162  -16.8946  -46.2574 C.3       8 UNK         0.1400 
     33 CB         -0.2445  -15.5368  -46.9369 C.3       8 UNK        -0.1800 
     34 N           0.1318  -16.7068  -44.8126 N.am      8 UNK        -0.5000 
     35 C           0.5302  -17.6699  -43.9695 C.2       7 UNK         0.5000 
     36 O           0.9114  -18.7792  -44.3422 O.2       7 UNK        -0.5000 
     37 CA          0.4267  -17.3725  -42.4616 C.3       7 UNK         0.1400 
     38 CB          1.6939  -16.6994  -41.9190 C.3       7 UNK        -0.1800 
     39 N          -0.7341  -16.5436  -42.1437 N.am      7 UNK        -0.5000 
     40 C          -1.9975  -16.9884  -42.1394 C.2       6 UNK         0.5000 
     41 O          -2.3094  -18.1568  -42.3654 O.2       6 UNK        -0.5000 
     42 CA         -3.0952  -15.9409  -41.8766 C.3       6 UNK         0.1400 
     43 CB         -3.2988  -15.7374  -40.3680 C.3       6 UNK        -0.1800 
     44 N          -2.8007  -14.6512  -42.5046 N.am      6 UNK        -0.5000 
     45 C          -2.7546  -14.4501  -43.8293 C.2       5 UNK         0.5000 
     46 O          -3.0016  -15.3235  -44.6578 O.2       5 UNK        -0.5000 
     47 CA         -2.3115  -13.0568  -44.3105 C.3       5 UNK         0.1400 
     48 CB         -3.5254  -12.1289  -44.4648 C.3       5 UNK        -0.1800 
     49 N          -1.3271  -12.4269  -43.4273 N.am      5 UNK        -0.5000 
     50 C          -0.0928  -12.8949  -43.2025 C.2       4 UNK         0.5000 
     51 O           0.3538  -13.9324  -43.6999 O.2       4 UNK        -0.5000 
     52 CA          0.7573  -12.0986  -42.2077 C.3       4 UNK         0.1400 
     53 CB          0.5389  -12.6201  -40.7775 C.3       4 UNK        -0.1800 
     54 N           2.1682  -12.2295  -42.5557 N.am      4 UNK        -0.5000 
     55 C           3.0639  -11.2356  -42.5187 C.2       3 UNK         0.5000 
     56 O           2.7852  -10.0837  -42.1814 O.2       3 UNK        -0.5000 
     57 CA          4.5221  -11.5673  -42.8960 C.3       3 UNK         0.1400 
     58 CB          5.4288  -11.4759  -41.6574 C.3       3 UNK        -0.1800 
     59 N           4.6968  -12.8906  -43.4994 N.am      3 UNK        -0.5000 
     60 C           4.4646  -13.1810  -44.7841 C.2       2 UNK         0.5000 
     61 O           4.0172  -12.3764  -45.6058 O.2       2 UNK        -0.5000 
     62 CA          4.7830  -14.6198  -45.2107 C.3       2 UNK         0.1400 
     63 CB          3.6395  -15.5749  -44.8384 C.3       2 UNK        -0.1800 
     64 N           4.9915  -14.6588  -46.6511 N.am      2 UNK        -0.5000 
     65 C           5.8856  -15.4272  -47.2830 C.2       1 UNK         0.5000 
     66 O           6.6350  -16.2156  -46.7043 O.2       1 UNK        -0.5000 
     67 C           0.0914  -22.2663  -48.0341 C.2       11 UNK         0.5000 
     68 O           0.3804  -23.3542  -48.5318 O.2       11 UNK        -0.5000 
     69 N          -0.9842  -21.5508  -48.3884 N.am      12 UNK        -0.5000 
     70 CA         -1.9493  -21.9627  -49.4051 C.3       12 UNK         0.1400 
     71 CB         -2.9480  -20.8282  -49.6483 C.3       12 UNK        -0.1800 
     72 C          -2.6873  -23.2650  -49.0508 C.2       12 UNK         0.5000 
     73 O          -2.9249  -24.0862  -49.9384 O.2       12 UNK        -0.5000 
     74 N          -3.0348  -23.4360  -47.7691 N.am      13 UNK        -0.5000 
     75 CA         -3.6424  -24.6495  -47.2264 C.3       13 UNK         0.1400 
     76 CB         -4.1529  -24.3842  -45.8032 C.3       13 UNK        -0.1800 
     77 C          -2.6776  -25.8478  -47.2534 C.2       13 UNK         0.5000 
     78 O          -3.0907  -26.9403  -47.6401 O.2       13 UNK        -0.5000 
     79 N          -1.4035  -25.6207  -46.9001 N.am      14 UNK        -0.5000 
     80 CA         -0.3267  -26.6133  -46.9832 C.3       14 UNK         0.1400 
     81 CB          0.9320  -26.0719  -46.2889 C.3       14 UNK        -0.1800 
     82 C          -0.0157  -27.0372  -48.4324 C.2       14 UNK         0.5000 
     83 O           0.2748  -28.2086  -48.6761 O.2       14 UNK        -0.5000 
     84 N          -0.1357  -26.0893  -49.3719 N.am      15 UNK        -0.5000 
     85 CA         -0.0572  -26.3098  -50.8180 C.3       15 UNK         0.1400 
     86 CB          0.1985  -24.9599  -51.5089 C.3       15 UNK        -0.1800 
     87 C          -1.3090  -26.9970  -51.4101 C.2       15 UNK         0.5000 
     88 O          -1.2917  -27.3529  -52.5889 O.2       15 UNK        -0.5000 
     89 N          -2.3653  -27.1619  -50.5980 N.am      16 UNK        -0.5000 
     90 CA         -3.6639  -27.7716  -50.9062 C.3       16 UNK         0.1400 
     91 CB         -3.5021  -29.2521  -51.3099 C.3       16 UNK        -0.1800 
     92 C          -4.5169  -26.9653  -51.9084 C.2       16 UNK         0.5000 
     93 O          -5.4395  -27.5215  -52.5070 O.2       16 UNK        -0.5000 
     94 N          -4.2172  -25.6694  -52.0582 N.am      17 UNK        -0.5000 
     95 CA         -4.9692  -24.7343  -52.8935 C.3       17 UNK         0.1400 
     96 CB         -3.9882  -23.7709  -53.5747 C.3       17 UNK        -0.1800 
     97 C          -5.9943  -23.9496  -52.0609 C.2       17 UNK         0.5000 
     98 O          -7.1031  -23.7011  -52.5358 O.2       17 UNK        -0.5000 
     99 N          -5.6025  -23.5777  -50.8330 N.am      18 UNK        -0.5000 
    100 CA        -6.3643  -22.7897  -49.8629 C.3       18 UNK         0.1400 
    101 CB        -7.4719  -23.6594  -49.2294 C.3       18 UNK        -0.1800 
    102 C         -6.8615  -21.4616  -50.4736 C.2       18 UNK         0.5000 
    103 O         -6.0450  -20.6812  -50.9737 O.2       18 UNK        -0.5000 
    104 N         -8.1789  -21.2268  -50.4489 N.am      19 UNK        -0.5000 
    105 CA        -8.8441  -20.0262  -50.9615 C.3       19 UNK         0.1400 
    106 CB       -10.3368  -20.1008  -50.6050 C.3       19 UNK        -0.1800 
    107 C         -8.6629  -19.7792  -52.4739 C.2       19 UNK         0.5000 
    108 O         -8.8606  -18.6481  -52.9189 O.2       19 UNK        -0.5000 
    109 N         -8.2822  -20.8155  -53.2371 N.am      20 UNK        -0.5000 
    110 CA        -7.9806  -20.7094  -54.6657 C.3       20 UNK         0.1400 
    111 CB        -7.9815  -22.1096  -55.2982 C.3       20 UNK        -0.1800 
    112 C         -6.6462  -19.9921  -54.9519 C.2       20 UNK         0.5000 
    113 O         -6.4780  -19.4796  -56.0595 O.2       20 UNK        -0.5000 
    114 N         -5.7307  -19.9673  -53.9714 N.am      21 UNK        -0.5000 
    115 CA        -4.4453  -19.2800  -54.0661 C.3       21 UNK         0.1400 
    116 CB        -3.3075  -20.2301  -53.6628 C.3       21 UNK        -0.1800 
    117 C         -4.4733  -17.9941  -53.2269 C.2       21 UNK         0.5000 
    118 O         -4.4641  -16.9071  -53.8062 O.2       21 UNK        -0.5000 
    119 N         -4.5250  -18.1237  -51.8939 N.am      22 UNK        -0.5000 
    120 CA        -4.5664  -16.9823  -50.9601 C.3       22 UNK         0.1400 
    121 C         -5.1444  -17.2997  -49.5500 C.2       22 UNK         0.5000 
    122 N         -5.6654  -18.4902  -49.2833 N.am      22 UNK        -0.7600 
    123 O         -5.1577  -16.4333  -48.6806 O.2       22 UNK        -0.5000 
    124 C124       -3.2409  -16.1647  -50.9165 C.3       23 UNK        -0.0398 
    125 S125       -1.8138  -17.0116  -50.1528 S.3       23 UNK        -0.2404 
    126 C126       -1.0151  -17.7804  -51.5909 C.3       23 UNK        -0.0205 
    127 H127        5.7722  -11.1757  -50.5632 H         1 UNK         0.0600 
    128 H128        4.2345  -11.9921  -50.2690 H         1 UNK         0.0600 
    129 H129        4.9391  -10.9625  -49.0191 H         1 UNK         0.0600 
    130 H130        4.4723  -14.1551  -49.7860 H         1 UNK         0.3000 
    131 H131        7.0113  -15.3248  -49.0898 H         1 UNK         0.0600 
    132 H132        4.2342  -16.6057  -49.2057 H         1 UNK         0.0800 
    133 H133        5.7333  -17.4782  -49.0453 H         1 UNK         0.0800 
    134 H134        3.4695  -15.4079  -51.5023 H         1 UNK         0.0800 
    135 H135        3.8372  -16.3184  -52.9453 H         1 UNK         0.0800 
    136 H136        1.1386  -16.1971  -52.0290 H         1 UNK         0.1150 
    137 H137        0.0690  -20.0793  -50.5784 H         1 UNK         0.1150 
    138 H138        4.1916  -18.9811  -50.8564 H         1 UNK         0.1150 
    139 H139        1.7739  -21.7449  -50.2233 H         1 UNK         0.0800 
    140 H140        3.3736  -21.4260  -50.8095 H         1 UNK         0.0800 
    141 H141        1.2561  -19.7792  -47.9944 H         1 UNK         0.0800 
    142 H142        2.2483  -19.9565  -46.5849 H         1 UNK         0.0800 
    143 H143        1.6347  -22.4725  -46.5648 H         1 UNK         0.0600 
    144 H144        0.1475  -20.3135  -45.5030 H         1 UNK         0.3000 
    145 H145       -2.4085  -22.2067  -43.8531 H         1 UNK         0.0600 
    146 H146       -1.5621  -20.8750  -41.9256 H         1 UNK         0.0600 
    147 H147       -0.5186  -22.2455  -42.2715 H         1 UNK         0.0600 
    148 H148       -0.0256  -20.6314  -42.7541 H         1 UNK         0.0600 
    149 H149       -1.9273  -19.4050  -43.9702 H         1 UNK         0.3000 
    150 H150       -3.6777  -18.8005  -47.0470 H         1 UNK         0.0600 
    151 H151       -5.4508  -18.8821  -45.2908 H         1 UNK         0.0600 
    152 H152       -4.9302  -17.2339  -45.6081 H         1 UNK         0.0600 
    153 H153       -4.3788  -18.0693  -44.1567 H         1 UNK         0.0600 
    154 H154       -2.4211  -16.9753  -45.2997 H         1 UNK         0.3000 
    155 H155        0.9218  -17.3051  -46.6378 H         1 UNK         0.0600 
    156 H156       -1.2140  -15.1118  -46.6789 H         1 UNK         0.0600 
    157 H157       -0.2108  -15.6385  -48.0216 H         1 UNK         0.0600 
    158 H158        0.5243  -14.8172  -46.6548 H         1 UNK         0.0600 
    159 H159       -0.1078  -15.7962  -44.4367 H         1 UNK         0.3000 
    160 H160        0.3178  -18.3301  -41.9483 H         1 UNK         0.0600 
    161 H161        1.6704  -16.6452  -40.8305 H         1 UNK         0.0600 
    162 H162        1.8034  -15.6835  -42.2959 H         1 UNK         0.0600 
    163 H163        2.5865  -17.2618  -42.1959 H         1 UNK         0.0600 
    164 H164       -0.5643  -15.5596  -41.9997 H         1 UNK         0.3000 
    165 H165       -4.0274  -16.3212  -42.2997 H         1 UNK         0.0600 
    166 H166       -4.1246  -15.0536  -40.1705 H         1 UNK         0.0600 
    167 H167       -3.5355  -16.6817  -39.8758 H         1 UNK         0.0600 
    168 H168       -2.4056  -15.3328  -39.8903 H         1 UNK         0.0600 
    169 H169       -2.5923  -13.8779  -41.8908 H         1 UNK         0.3000 
    170 H170       -1.8490  -13.1785  -45.2920 H         1 UNK         0.0600 
    171 H171       -4.2662  -12.5646  -45.1368 H         1 UNK         0.0600 
    172 H172       -4.0173  -11.9449  -43.5089 H         1 UNK         0.0600 
    173 H173       -3.2351  -11.1657  -44.8850 H         1 UNK         0.0600 
    174 H174       -1.6187  -11.5752  -42.9692 H         1 UNK         0.3000 
    175 H175        0.4488  -11.0523  -42.2598 H         1 UNK         0.0600 
    176 H176        0.8308  -13.6668  -40.6811 H         1 UNK         0.0600 
    177 H177        1.1210  -12.0447  -40.0574 H         1 UNK         0.0600 
    178 H178       -0.5085  -12.5407  -40.4840 H         1 UNK         0.0600 
    179 H179        2.4434  -13.1327  -42.9152 H         1 UNK         0.3000 
    180 H180        4.8504  -10.8098  -43.6110 H         1 UNK         0.0600 
    181 H181        5.1496  -12.2088  -40.8994 H         1 UNK         0.0600 
    182 H182        5.3673  -10.4887  -41.1973 H         1 UNK         0.0600 
    183 H183        6.4736  -11.6438  -41.9196 H         1 UNK         0.0600 
    184 H184        5.0532  -13.6126  -42.8895 H         1 UNK         0.3000 
    185 H185        5.6954  -14.9300  -44.6965 H         1 UNK         0.0600 
    186 H186        3.5434  -15.6389  -43.7570 H         1 UNK         0.0600 
    187 H187        2.6827  -15.2394  -45.2409 H         1 UNK         0.0600 
    188 H188        3.8235  -16.5846  -45.2061 H         1 UNK         0.0600 
    189 H189        4.4638  -13.9742  -47.1768 H         1 UNK         0.3000 
    190 H190       -1.1330  -20.6451  -47.9494 H         1 UNK         0.3000 
    191 H191       -1.3995  -22.1357  -50.3321 H         1 UNK         0.0600 
    192 H192       -3.6190  -21.0917  -50.4613 H         1 UNK         0.0600 
    193 H193       -2.4422  -19.9046  -49.9231 H         1 UNK         0.0600 
    194 H194       -3.5594  -20.6246  -48.7698 H         1 UNK         0.0600 
    195 H195       -2.8901  -22.6677  -47.1192 H         1 UNK         0.3000 
    196 H196       -4.5023  -24.9011  -47.8509 H         1 UNK         0.0600 
    197 H197       -3.3413  -24.1150  -45.1275 H         1 UNK         0.0600 
    198 H198       -4.6426  -25.2682  -45.3932 H         1 UNK         0.0600 
    199 H199       -4.8813  -23.5731  -45.7913 H         1 UNK         0.0600 
    200 H200       -1.1465  -24.7033  -46.5457 H         1 UNK         0.3000 
    201 H201       -0.6536  -27.5042  -46.4430 H         1 UNK         0.0600 
    202 H202        1.2975  -25.1625  -46.7658 H         1 UNK         0.0600 
    203 H203        1.7393  -26.8047  -46.3164 H         1 UNK         0.0600 
    204 H204        0.7357  -25.8433  -45.2412 H         1 UNK         0.0600 
    205 H205       -0.2863  -25.1315  -49.0686 H         1 UNK         0.3000 
    206 H206        0.7956  -26.9611  -51.0191 H         1 UNK         0.0600 
    207 H207        1.0976  -24.4809  -51.1207 H         1 UNK         0.0600 
    208 H208        0.3375  -25.0887  -52.5829 H         1 UNK         0.0600 
    209 H209       -0.6343  -24.2715  -51.3679 H         1 UNK         0.0600 
    210 H210       -2.2768  -26.8261  -49.6471 H         1 UNK         0.3000 
    211 H211       -4.2251  -27.7543  -49.9714 H         1 UNK         0.0600 
    212 H212       -3.0268  -29.3583  -52.2852 H         1 UNK         0.0600 
    213 H213       -4.4702  -29.7512  -51.3643 H         1 UNK         0.0600 
    214 H214       -2.9003  -29.7953  -50.5811 H         1 UNK         0.0600 
    215 H215       -3.4782  -25.2795  -51.4830 H         1 UNK         0.3000 
    216 H216       -5.5098  -25.2725  -53.6750 H         1 UNK         0.0600 
    217 H217       -4.5221  -23.0645  -54.2115 H         1 UNK         0.0600 
    218 H218       -3.2823  -24.3102  -54.2065 H         1 UNK         0.0600 
    219 H219       -3.4136  -23.1972  -52.8463 H         1 UNK         0.0600 
    220 H220       -4.6578  -23.8200  -50.5502 H         1 UNK         0.3000 
    221 H221       -5.6695  -22.5119  -49.0694 H         1 UNK         0.0600 
    222 H222       -8.2092  -23.9866  -49.9635 H         1 UNK         0.0600 
    223 H223       -7.0462  -24.5537  -48.7738 H         1 UNK         0.0600 
    224 H224       -7.9967  -23.1211  -48.4390 H         1 UNK         0.0600 
    225 H225       -8.7803  -21.9320  -50.0488 H         1 UNK         0.3000 
    226 H226       -8.4131  -19.1661  -50.4449 H         1 UNK         0.0600 
    227 H227      -10.4824  -20.1776  -49.5273 H         1 UNK         0.0600 
    228 H228      -10.8652  -19.2066  -50.9388 H         1 UNK         0.0600 
    229 H229      -10.8184  -20.9605  -51.0727 H         1 UNK         0.0600 
    230 H230       -8.1202  -21.7173  -52.8043 H         1 UNK         0.3000 
    231 H231       -8.7758  -20.1287  -55.1383 H         1 UNK         0.0600 
    232 H232       -8.9004  -22.6500  -55.0700 H         1 UNK         0.0600 
    233 H233       -7.1406  -22.7102  -54.9518 H         1 UNK         0.0600 
    234 H234       -7.9043  -22.0432  -56.3841 H         1 UNK         0.0600 
    235 H235       -5.9697  -20.3628  -53.0694 H         1 UNK         0.3000 
    236 H236       -4.2476  -18.9799  -55.0973 H         1 UNK         0.0600 
    237 H237       -3.4420  -20.6362  -52.6624 H         1 UNK         0.0600 
    238 H238       -3.2420  -21.0662  -54.3576 H         1 UNK         0.0600 
    239 H239       -2.3444  -19.7221  -53.6983 H         1 UNK         0.0600 
    240 H240       -4.5711  -19.0440  -51.4800 H         1 UNK         0.3000 
    241 H241       -5.3193  -16.3059  -51.3694 H         1 UNK         0.0600 
    242 H242       -6.0509  -18.6407  -48.3662 H         1 UNK         0.3800 
    243 H243       -5.7410  -19.2233  -49.9813 H         1 UNK         0.3800 
    244 H244       -2.9656  -15.8291  -51.9160 H         1 UNK         0.0800 
    245 H245       -3.4028  -15.2434  -50.3548 H         1 UNK         0.0800 
    246 H246       -1.5549  -18.6918  -51.8408 H         1 UNK         0.0800 
    247 H247       -1.0939  -17.1252  -52.4596 H         1 UNK         0.0800 
@<TRIPOS>BOND
     1    1    2 1    
     2    1  127 1    
     3    1  128 1    
     4    1  129 1    
     5    2    3 2    
     6    2    4 am   BACKBONE|DICT|INTERRES
     7    4    5 1    
     8    4  130 1    
     9    5    6 1    
    10    5   65 1    
    11    5  131 1    
    12    6    7 1    
    13    6  132 1    
    14    6  133 1    
    15    7    8 1    
    16    8    9 1    
    17    8  134 1    
    18    8  135 1    
    19    9   10 ar   
    20    9   14 ar   
    21   10   11 ar   
    22   10  136 1    
    23   11   12 ar   
    24   11  126 1    
    25   12   13 ar   
    26   12  137 1    
    27   13   14 ar   
    28   13   15 1    
    29   14  138 1    
    30   15   16 1    
    31   15  139 1    
    32   15  140 1    
    33   16   17 1    
    34   17   18 1    
    35   17  141 1    
    36   17  142 1    
    37   18   19 1    
    38   18   67 1    
    39   18  143 1    
    40   19   20 am   BACKBONE|DICT|INTERRES
    41   19  144 1    
    42   20   21 2    
    43   20   22 1    
    44   22   23 1    
    45   22   24 1    
    46   22  145 1    
    47   23  146 1    
    48   23  147 1    
    49   23  148 1    
    50   24   25 am   BACKBONE|DICT|INTERRES
    51   24  149 1    
    52   25   26 2    
    53   25   27 1    
    54   27   28 1    
    55   27   29 1    
    56   27  150 1    
    57   28  151 1    
    58   28  152 1    
    59   28  153 1    
    60   29   30 am   BACKBONE|DICT|INTERRES
    61   29  154 1    
    62   30   31 2    
    63   30   32 1    
    64   32   33 1    
    65   32   34 1    
    66   32  155 1    
    67   33  156 1    
    68   33  157 1    
    69   33  158 1    
    70   34   35 am   BACKBONE|DICT|INTERRES
    71   34  159 1    
    72   35   36 2    
    73   35   37 1    
    74   37   38 1    
    75   37   39 1    
    76   37  160 1    
    77   38  161 1    
    78   38  162 1    
    79   38  163 1    
    80   39   40 am   BACKBONE|DICT|INTERRES
    81   39  164 1    
    82   40   41 2    
    83   40   42 1    
    84   42   43 1    
    85   42   44 1    
    86   42  165 1    
    87   43  166 1    
    88   43  167 1    
    89   43  168 1    
    90   44   45 am   BACKBONE|DICT|INTERRES
    91   44  169 1    
    92   45   46 2    
    93   45   47 1    
    94   47   48 1    
    95   47   49 1    
    96   47  170 1    
    97   48  171 1    
    98   48  172 1    
    99   48  173 1    
   100   49   50 am   BACKBONE|DICT|INTERRES
   101   49  174 1    
   102   50   51 2    
   103   50   52 1    
   104   52   53 1    
   105   52   54 1    
   106   52  175 1    
   107   53  176 1    
   108   53  177 1    
   109   53  178 1    
   110   54   55 am   BACKBONE|DICT|INTERRES
   111   54  179 1    
   112   55   56 2    
   113   55   57 1    
   114   57   58 1    
   115   57   59 1    
   116   57  180 1    
   117   58  181 1    
   118   58  182 1    
   119   58  183 1    
   120   59   60 am   BACKBONE|DICT|INTERRES
   121   59  184 1    
   122   60   61 2    
   123   60   62 1    
   124   62   63 1    
   125   62   64 1    
   126   62  185 1    
   127   63  186 1    
   128   63  187 1    
   129   63  188 1    
   130   64   65 am   BACKBONE|DICT|INTERRES
   131   64  189 1    
   132   65   66 2    
   133   67   68 2    
   134   67   69 am   BACKBONE|DICT|INTERRES
   135   69   70 1    
   136   69  190 1    
   137   70   71 1    
   138   70   72 1    
   139   70  191 1    
   140   71  192 1    
   141   71  193 1    
   142   71  194 1    
   143   72   73 2    
   144   72   74 am   BACKBONE|DICT|INTERRES
   145   74   75 1    
   146   74  195 1    
   147   75   76 1    
   148   75   77 1    
   149   75  196 1    
   150   76  197 1    
   151   76  198 1    
   152   76  199 1    
   153   77   78 2    
   154   77   79 am   BACKBONE|DICT|INTERRES
   155   79   80 1    
   156   79  200 1    
   157   80   81 1    
   158   80   82 1    
   159   80  201 1    
   160   81  202 1    
   161   81  203 1    
   162   81  204 1    
   163   82   83 2    
   164   82   84 am   BACKBONE|DICT|INTERRES
   165   84   85 1    
   166   84  205 1    
   167   85   86 1    
   168   85   87 1    
   169   85  206 1    
   170   86  207 1    
   171   86  208 1    
   172   86  209 1    
   173   87   88 2    
   174   87   89 am   BACKBONE|DICT|INTERRES
   175   89   90 1    
   176   89  210 1    
   177   90   91 1    
   178   90   92 1    
   179   90  211 1    
   180   91  212 1    
   181   91  213 1    
   182   91  214 1    
   183   92   93 2    
   184   92   94 am   BACKBONE|DICT|INTERRES
   185   94   95 1    
   186   94  215 1    
   187   95   96 1    
   188   95   97 1    
   189   95  216 1    
   190   96  217 1    
   191   96  218 1    
   192   96  219 1    
   193   97   98 2    
   194   97   99 am   BACKBONE|DICT|INTERRES
   195   99  100 1    
   196   99  220 1    
   197  100  101 1    
   198  100  102 1    
   199  100  221 1    
   200  101  222 1    
   201  101  223 1    
   202  101  224 1    
   203  102  103 2    
   204  102  104 am   BACKBONE|DICT|INTERRES
   205  104  105 1    
   206  104  225 1    
   207  105  106 1    
   208  105  107 1    
   209  105  226 1    
   210  106  227 1    
   211  106  228 1    
   212  106  229 1    
   213  107  108 2    
   214  107  109 am   BACKBONE|DICT|INTERRES
   215  109  110 1    
   216  109  230 1    
   217  110  111 1    
   218  110  112 1    
   219  110  231 1    
   220  111  232 1    
   221  111  233 1    
   222  111  234 1    
   223  112  113 2    
   224  112  114 am   BACKBONE|DICT|INTERRES
   225  114  115 1    
   226  114  235 1    
   227  115  116 1    
   228  115  117 1    
   229  115  236 1    
   230  116  237 1    
   231  116  238 1    
   232  116  239 1    
   233  117  118 2    
   234  117  119 am   BACKBONE|DICT|INTERRES
   235  119  120 1    
   236  119  240 1    
   237  120  121 1    
   238  120  124 1    
   239  120  241 1    
   240  121  122 am   BACKBONE|DICT|INTERRES
   241  121  123 2    
   242  122  242 1    
   243  122  243 1    
   244  124  125 1    
   245  124  244 1    
   246  124  245 1    
   247  125  126 1    
   248  126  246 1    
   249  126  247 1    
@<TRIPOS>SUBSTRUCTURE
     1 UNK         1 GROUP             0       ****    0 ROOT    
