@<TRIPOS>MOLECULE
3R540
247   249    1
SMALL
USER_CHARGES


@<TRIPOS>ATOM
      1 CA          1.3527  -15.7864  -50.9138 C.3       0 UNK        -0.1800 
      2 C           1.8104  -15.7354  -49.4630 C.2       0 UNK         0.5000 
      3 O           2.7987  -16.3764  -49.1040 O.2       0 UNK        -0.5000 
      4 N           1.1019  -14.9684  -48.6267 N.am      1 UNK        -0.5000 
      5 CA          1.3738  -14.7863  -47.1961 C.3       1 UNK         0.1400 
      6 C6          0.0928  -14.4113  -46.4129 C.3       23 UNK        -0.0398 
      7 S7         -1.1657  -15.7333  -46.5168 S.3       23 UNK        -0.2404 
      8 C8         -2.6218  -14.8506  -47.1552 C.3       23 UNK        -0.0205 
      9 C9         -3.3874  -15.6904  -48.1662 C.ar      23 UNK        -0.0193 
     10 C10        -3.1041  -15.5634  -49.5292 C.ar      23 UNK        -0.1150 
     11 C11        -3.8420  -16.2734  -50.4799 C.ar      23 UNK        -0.0193 
     12 C12        -4.8754  -17.1090  -50.0492 C.ar      23 UNK        -0.1150 
     13 C13        -5.1445  -17.2868  -48.6884 C.ar      23 UNK        -0.0193 
     14 C14        -4.3990  -16.5634  -47.7508 C.ar      23 UNK        -0.1150 
     15 C15        -6.2782  -18.2072  -48.2378 C.3       23 UNK        -0.0205 
     16 S16        -6.3615  -19.7734  -49.1802 S.3       23 UNK        -0.2404 
     17 C17        -5.5534  -21.0045  -48.1035 C.3       23 UNK        -0.0398 
     18 CA         -4.0614  -20.7052  -47.7997 C.3       11 UNK         0.1400 
     19 N          -3.9259  -19.9479  -46.5485 N.am      11 UNK        -0.5000 
     20 C          -2.7900  -19.5108  -45.9897 C.2       10 UNK         0.5000 
     21 O          -1.6712  -19.7385  -46.4565 O.2       10 UNK        -0.5000 
     22 CA         -2.9200  -18.7206  -44.6723 C.3       10 UNK         0.1400 
     23 CB         -4.3653  -18.5608  -44.1460 C.3       10 UNK        -0.1800 
     24 N          -2.0549  -19.2803  -43.6378 N.am      10 UNK        -0.5000 
     25 C          -2.1087  -20.4971  -43.0822 C.2       9 UNK         0.5000 
     26 O          -2.9570  -21.3442  -43.3643 O.2       9 UNK        -0.5000 
     27 CA         -1.0313  -20.8182  -42.0260 C.3       9 UNK         0.1400 
     28 CB          0.2113  -21.4300  -42.6849 C.3       9 UNK        -0.1800 
     29 N          -0.6190  -19.6429  -41.2557 N.am      9 UNK        -0.5000 
     30 C          -1.3664  -19.0487  -40.3155 C.2       8 UNK         0.5000 
     31 O          -2.4563  -19.4774  -39.9343 O.2       8 UNK        -0.5000 
     32 CA         -0.8110  -17.7431  -39.7146 C.3       8 UNK         0.1400 
     33 CB          0.2045  -18.0397  -38.6006 C.3       8 UNK        -0.1800 
     34 N          -0.1946  -16.8792  -40.7229 N.am      8 UNK        -0.5000 
     35 C          -0.8669  -16.2652  -41.7067 C.2       7 UNK         0.5000 
     36 O          -2.0915  -16.3046  -41.8263 O.2       7 UNK        -0.5000 
     37 CA         -0.0349  -15.5011  -42.7520 C.3       7 UNK         0.1400 
     38 CB          0.2463  -14.0638  -42.2898 C.3       7 UNK        -0.1800 
     39 N           1.2270  -16.1648  -43.0868 N.am      7 UNK        -0.5000 
     40 C           1.3246  -17.3564  -43.6921 C.2       6 UNK         0.5000 
     41 O           0.3563  -18.0024  -44.0758 O.2       6 UNK        -0.5000 
     42 CA          2.7294  -17.9628  -43.8407 C.3       6 UNK         0.1400 
     43 CB          3.4362  -17.4463  -45.1029 C.3       6 UNK        -0.1800 
     44 N           3.5536  -17.7126  -42.6607 N.am      6 UNK        -0.5000 
     45 C           3.3471  -18.2900  -41.4683 C.2       5 UNK         0.5000 
     46 O           2.4698  -19.1282  -41.2568 O.2       5 UNK        -0.5000 
     47 CA          4.2430  -17.8114  -40.3112 C.3       5 UNK         0.1400 
     48 CB          5.5867  -18.5553  -40.3217 C.3       5 UNK        -0.1800 
     49 N           4.4856  -16.3678  -40.3572 N.am      5 UNK        -0.5000 
     50 C           3.5398  -15.4391  -40.1567 C.2       4 UNK         0.5000 
     51 O           2.3750  -15.7058  -39.8635 O.2       4 UNK        -0.5000 
     52 CA          3.9525  -13.9699  -40.3697 C.3       4 UNK         0.1400 
     53 CB          4.5503  -13.3859  -39.0812 C.3       4 UNK        -0.1800 
     54 N           4.8974  -13.7788  -41.4755 N.am      4 UNK        -0.5000 
     55 C           4.6456  -14.0821  -42.7555 C.2       3 UNK         0.5000 
     56 O           3.5924  -14.5937  -43.1428 O.2       3 UNK        -0.5000 
     57 CA          5.7717  -13.8113  -43.7606 C.3       3 UNK         0.1400 
     58 CB          6.8816  -14.8697  -43.6373 C.3       3 UNK        -0.1800 
     59 N           5.2232  -13.8493  -45.1127 N.am      3 UNK        -0.5000 
     60 C           5.6210  -13.0894  -46.1377 C.2       2 UNK         0.5000 
     61 O           6.5268  -12.2586  -46.0521 O.2       2 UNK        -0.5000 
     62 CA          4.9150  -13.2900  -47.4955 C.3       2 UNK         0.1400 
     63 CB          5.8876  -13.8938  -48.5216 C.3       2 UNK        -0.1800 
     64 N           3.7190  -14.1357  -47.4487 N.am      2 UNK        -0.5000 
     65 C           2.5170  -13.7666  -46.9902 C.2       1 UNK         0.5000 
     66 O           2.2949  -12.6721  -46.4708 O.2       1 UNK        -0.5000 
     67 C          -3.2243  -22.0054  -47.8281 C.2       11 UNK         0.5000 
     68 O          -2.8226  -22.4384  -48.9122 O.2       11 UNK        -0.5000 
     69 N          -2.9621  -22.5942  -46.6502 N.am      12 UNK        -0.5000 
     70 CA         -2.1120  -23.7712  -46.4643 C.3       12 UNK         0.1400 
     71 CB         -2.2157  -24.2596  -45.0132 C.3       12 UNK        -0.1800 
     72 C          -0.6415  -23.5303  -46.8527 C.2       12 UNK         0.5000 
     73 O           0.0033  -24.4574  -47.3411 O.2       12 UNK        -0.5000 
     74 N          -0.1497  -22.2998  -46.6569 N.am      13 UNK        -0.5000 
     75 CA          1.2002  -21.8873  -47.0383 C.3       13 UNK         0.1400 
     76 CB          1.8039  -21.0137  -45.9303 C.3       13 UNK        -0.1800 
     77 C           1.2026  -21.1237  -48.3690 C.2       13 UNK         0.5000 
     78 O           2.1159  -21.3224  -49.1702 O.2       13 UNK        -0.5000 
     79 N           0.1975  -20.2608  -48.5781 N.am      14 UNK        -0.5000 
     80 CA          0.1313  -19.3337  -49.7084 C.3       14 UNK         0.1400 
     81 CB         -1.0258  -18.3492  -49.4988 C.3       14 UNK        -0.1800 
     82 C           0.0137  -20.0137  -51.0830 C.2       14 UNK         0.5000 
     83 O           0.5983  -19.5152  -52.0458 O.2       14 UNK        -0.5000 
     84 N          -0.7197  -21.1329  -51.1543 N.am      15 UNK        -0.5000 
     85 CA         -0.9475  -21.8691  -52.3987 C.3       15 UNK         0.1400 
     86 CB         -2.0639  -21.1942  -53.2180 C.3       15 UNK        -0.1800 
     87 C          -1.1812  -23.3697  -52.1598 C.2       15 UNK         0.5000 
     88 O          -1.8928  -24.0011  -52.9388 O.2       15 UNK        -0.5000 
     89 N          -0.5599  -23.9222  -51.1053 N.am      16 UNK        -0.5000 
     90 CA         -0.5525  -25.3483  -50.7476 C.3       16 UNK         0.1400 
     91 CB          0.2866  -26.1497  -51.7654 C.3       16 UNK        -0.1800 
     92 C          -1.9706  -25.9269  -50.5485 C.2       16 UNK         0.5000 
     93 O          -2.3328  -26.9207  -51.1806 O.2       16 UNK        -0.5000 
     94 N          -2.7410  -25.2602  -49.6785 N.am      17 UNK        -0.5000 
     95 CA         -4.1607  -25.4777  -49.3800 C.3       17 UNK         0.1400 
     96 CB         -4.4679  -26.9307  -48.9591 C.3       17 UNK        -0.1800 
     97 C          -5.0437  -24.9498  -50.5228 C.2       17 UNK         0.5000 
     98 O          -5.8924  -25.6713  -51.0498 O.2       17 UNK        -0.5000 
     99 N          -4.8015  -23.6802  -50.8792 N.am      18 UNK        -0.5000 
    100 CA        -5.4734  -22.8518  -51.8878 C.3       18 UNK         0.1400 
    101 CB        -6.9778  -22.7061  -51.5903 C.3       18 UNK        -0.1800 
    102 C         -5.2498  -23.2889  -53.3478 C.2       18 UNK         0.5000 
    103 O         -5.0153  -22.4246  -54.1918 O.2       18 UNK        -0.5000 
    104 N         -5.3471  -24.5955  -53.6297 N.am      19 UNK        -0.5000 
    105 CA        -5.2597  -25.2257  -54.9505 C.3       19 UNK         0.1400 
    106 CB        -3.8034  -25.2007  -55.4652 C.3       19 UNK        -0.1800 
    107 C         -6.2858  -24.6066  -55.9233 C.2       19 UNK         0.5000 
    108 O         -7.4890  -24.7600  -55.7043 O.2       19 UNK        -0.5000 
    109 N         -5.8133  -23.8650  -56.9332 N.am      20 UNK        -0.5000 
    110 CA        -6.6191  -23.0740  -57.8662 C.3       20 UNK         0.1400 
    111 CB        -5.8188  -22.8867  -59.1678 C.3       20 UNK        -0.1800 
    112 C         -7.0714  -21.7309  -57.2460 C.2       20 UNK         0.5000 
    113 O         -6.8500  -20.6703  -57.8351 O.2       20 UNK        -0.5000 
    114 N         -7.6736  -21.8019  -56.0492 N.am      21 UNK        -0.5000 
    115 CA        -8.2382  -20.7048  -55.2506 C.3       21 UNK         0.1400 
    116 CB        -9.5464  -20.2094  -55.9005 C.3       21 UNK        -0.1800 
    117 C         -7.2525  -19.5490  -54.9561 C.2       21 UNK         0.5000 
    118 O         -7.6776  -18.3996  -54.8260 O.2       21 UNK        -0.5000 
    119 N         -5.9539  -19.8689  -54.8720 N.am      22 UNK        -0.5000 
    120 CA        -4.8319  -18.9248  -54.7476 C.3       22 UNK         0.1400 
    121 C         -4.6532  -17.9736  -55.9766 C.2       22 UNK         0.5000 
    122 N         -5.1812  -18.3054  -57.1504 N.am      22 UNK        -0.7600 
    123 O         -4.0121  -16.9306  -55.8860 O.2       22 UNK        -0.5000 
    124 C124       -4.8387  -18.2070  -53.3686 C.3       23 UNK        -0.0398 
    125 S125       -3.1790  -17.7000  -52.7895 S.3       23 UNK        -0.2404 
    126 C126       -3.5350  -16.1116  -51.9651 C.3       23 UNK        -0.0205 
    127 H127        0.3567  -15.3604  -51.0384 H         1 UNK         0.0600 
    128 H128        1.3245  -16.8170  -51.2669 H         1 UNK         0.0600 
    129 H129        2.0459  -15.2301  -51.5444 H         1 UNK         0.0600 
    130 H130        0.3138  -14.4495  -48.9847 H         1 UNK         0.3000 
    131 H131        1.7250  -15.7364  -46.7902 H         1 UNK         0.0600 
    132 H132       -0.3124  -13.4640  -46.7704 H         1 UNK         0.0800 
    133 H133        0.3310  -14.2544  -45.3616 H         1 UNK         0.0800 
    134 H134       -3.2698  -14.5840  -46.3191 H         1 UNK         0.0800 
    135 H135       -2.3299  -13.9097  -47.6225 H         1 UNK         0.0800 
    136 H136       -2.3157  -14.8973  -49.8496 H         1 UNK         0.1150 
    137 H137       -5.4748  -17.6311  -50.7772 H         1 UNK         0.1150 
    138 H138       -4.6178  -16.6582  -46.6979 H         1 UNK         0.1150 
    139 H139       -6.2164  -18.4182  -47.1703 H         1 UNK         0.0800 
    140 H140       -7.2176  -17.6733  -48.3852 H         1 UNK         0.0800 
    141 H141       -5.6721  -21.9574  -48.6225 H         1 UNK         0.0800 
    142 H142       -6.1334  -21.1127  -47.1855 H         1 UNK         0.0800 
    143 H143       -3.6613  -20.0792  -48.5976 H         1 UNK         0.0600 
    144 H144       -4.7867  -19.7419  -46.0648 H         1 UNK         0.3000 
    145 H145       -2.5339  -17.7226  -44.8772 H         1 UNK         0.0600 
    146 H146       -4.9965  -18.0325  -44.8598 H         1 UNK         0.0600 
    147 H147       -4.8370  -19.5195  -43.9283 H         1 UNK         0.0600 
    148 H148       -4.3742  -17.9766  -43.2253 H         1 UNK         0.0600 
    149 H149       -1.2246  -18.7231  -43.4537 H         1 UNK         0.3000 
    150 H150       -1.4518  -21.5561  -41.3396 H         1 UNK         0.0600 
    151 H151       -0.0468  -22.2724  -43.3267 H         1 UNK         0.0600 
    152 H152        0.9155  -21.7922  -41.9357 H         1 UNK         0.0600 
    153 H153        0.7292  -20.6915  -43.2949 H         1 UNK         0.0600 
    154 H154        0.2891  -19.2499  -41.4739 H         1 UNK         0.3000 
    155 H155       -1.6478  -17.1988  -39.2719 H         1 UNK         0.0600 
    156 H156        1.0803  -18.5656  -38.9809 H         1 UNK         0.0600 
    157 H157       -0.2401  -18.6615  -37.8227 H         1 UNK         0.0600 
    158 H158        0.5476  -17.1202  -38.1258 H         1 UNK         0.0600 
    159 H159        0.8053  -16.7255  -40.6456 H         1 UNK         0.3000 
    160 H160       -0.6393  -15.4548  -43.6575 H         1 UNK         0.0600 
    161 H161        0.8179  -13.5104  -43.0351 H         1 UNK         0.0600 
    162 H162        0.8081  -14.0447  -41.3565 H         1 UNK         0.0600 
    163 H163       -0.6845  -13.5208  -42.1222 H         1 UNK         0.0600 
    164 H164        2.0825  -15.6654  -42.8586 H         1 UNK         0.3000 
    165 H165        2.6153  -19.0436  -43.9424 H         1 UNK         0.0600 
    166 H166        4.4292  -17.8839  -45.2062 H         1 UNK         0.0600 
    167 H167        2.8718  -17.7143  -45.9971 H         1 UNK         0.0600 
    168 H168        3.5463  -16.3632  -45.0952 H         1 UNK         0.0600 
    169 H169        4.2558  -16.9928  -42.7377 H         1 UNK         0.3000 
    170 H170        3.7306  -18.0430  -39.3749 H         1 UNK         0.0600 
    171 H171        5.4349  -19.6344  -40.2735 H         1 UNK         0.0600 
    172 H172        6.1593  -18.3441  -41.2258 H         1 UNK         0.0600 
    173 H173        6.1983  -18.2757  -39.4637 H         1 UNK         0.0600 
    174 H174        5.4197  -16.0646  -40.5894 H         1 UNK         0.3000 
    175 H175        3.0482  -13.4069  -40.6084 H         1 UNK         0.0600 
    176 H176        5.4809  -13.8839  -38.8060 H         1 UNK         0.0600 
    177 H177        4.7579  -12.3212  -39.1897 H         1 UNK         0.0600 
    178 H178        3.8587  -13.4967  -38.2448 H         1 UNK         0.0600 
    179 H179        5.7898  -13.3709  -41.2360 H         1 UNK         0.3000 
    180 H180        6.1804  -12.8211  -43.5486 H         1 UNK         0.0600 
    181 H181        6.5025  -15.8742  -43.8300 H         1 UNK         0.0600 
    182 H182        7.3225  -14.8684  -42.6398 H         1 UNK         0.0600 
    183 H183        7.6877  -14.6771  -44.3455 H         1 UNK         0.0600 
    184 H184        4.4161  -14.4460  -45.2269 H         1 UNK         0.3000 
    185 H185        4.6193  -12.3008  -47.8509 H         1 UNK         0.0600 
    186 H186        6.7786  -13.2744  -48.6326 H         1 UNK         0.0600 
    187 H187        6.2152  -14.8910  -48.2246 H         1 UNK         0.0600 
    188 H188        5.4247  -13.9721  -49.5056 H         1 UNK         0.0600 
    189 H189        3.7834  -15.0372  -47.9111 H         1 UNK         0.3000 
    190 H190       -3.3139  -22.1608  -45.8068 H         1 UNK         0.3000 
    191 H191       -2.4951  -24.5688  -47.0988 H         1 UNK         0.0600 
    192 H192       -1.8177  -23.5282  -44.3116 H         1 UNK         0.0600 
    193 H193       -1.6539  -25.1840  -44.8730 H         1 UNK         0.0600 
    194 H194       -3.2502  -24.4630  -44.7360 H         1 UNK         0.0600 
    195 H195       -0.7642  -21.5710  -46.3109 H         1 UNK         0.3000 
    196 H196        1.8466  -22.7595  -47.1581 H         1 UNK         0.0600 
    197 H197        2.7697  -20.6052  -46.2311 H         1 UNK         0.0600 
    198 H198        1.9724  -21.5983  -45.0269 H         1 UNK         0.0600 
    199 H199        1.1537  -20.1737  -45.6822 H         1 UNK         0.0600 
    200 H200       -0.4933  -20.1234  -47.8441 H         1 UNK         0.3000 
    201 H201        1.0614  -18.7622  -49.7061 H         1 UNK         0.0600 
    202 H202       -0.9333  -17.8274  -48.5476 H         1 UNK         0.0600 
    203 H203       -1.9930  -18.8489  -49.5152 H         1 UNK         0.0600 
    204 H204       -1.0400  -17.5935  -50.2845 H         1 UNK         0.0600 
    205 H205       -1.1897  -21.4761  -50.3256 H         1 UNK         0.3000 
    206 H206       -0.0352  -21.8317  -52.9978 H         1 UNK         0.0600 
    207 H207       -1.7600  -20.1989  -53.5396 H         1 UNK         0.0600 
    208 H208       -2.3009  -21.7556  -54.1224 H         1 UNK         0.0600 
    209 H209       -2.9796  -21.0915  -52.6377 H         1 UNK         0.0600 
    210 H210        0.0177  -23.3247  -50.5314 H         1 UNK         0.3000 
    211 H211       -0.0494  -25.4277  -49.7840 H         1 UNK         0.0600 
    212 H212       -0.1625  -26.1412  -52.7591 H         1 UNK         0.0600 
    213 H213        0.3812  -27.1919  -51.4584 H         1 UNK         0.0600 
    214 H214        1.2949  -25.7447  -51.8502 H         1 UNK         0.0600 
    215 H215       -2.3577  -24.4047  -49.2939 H         1 UNK         0.3000 
    216 H216       -4.3900  -24.8508  -48.5178 H         1 UNK         0.0600 
    217 H217       -5.4878  -27.0133  -48.5823 H         1 UNK         0.0600 
    218 H218       -3.7997  -27.2608  -48.1637 H         1 UNK         0.0600 
    219 H219       -4.3768  -27.6310  -49.7892 H         1 UNK         0.0600 
    220 H220       -4.0399  -23.2159  -50.3976 H         1 UNK         0.3000 
    221 H221       -5.0322  -21.8596  -51.7845 H         1 UNK         0.0600 
    222 H222       -7.5192  -23.6384  -51.7533 H         1 UNK         0.0600 
    223 H223       -7.1534  -22.3950  -50.5614 H         1 UNK         0.0600 
    224 H224       -7.4268  -21.9519  -52.2366 H         1 UNK         0.0600 
    225 H225       -5.5760  -25.2108  -52.8537 H         1 UNK         0.3000 
    226 H226       -5.5486  -26.2694  -54.8203 H         1 UNK         0.0600 
    227 H227       -3.1459  -25.7380  -54.7814 H         1 UNK         0.0600 
    228 H228       -3.7186  -25.6864  -56.4380 H         1 UNK         0.0600 
    229 H229       -3.4129  -24.1868  -55.5589 H         1 UNK         0.0600 
    230 H230       -4.8133  -23.7400  -56.9949 H         1 UNK         0.3000 
    231 H231       -7.5244  -23.6325  -58.1126 H         1 UNK         0.0600 
    232 H232       -5.5479  -23.8476  -59.6057 H         1 UNK         0.0600 
    233 H233       -4.8999  -22.3241  -58.9980 H         1 UNK         0.0600 
    234 H234       -6.4034  -22.3462  -59.9134 H         1 UNK         0.0600 
    235 H235       -7.7732  -22.7302  -55.6524 H         1 UNK         0.3000 
    236 H236       -8.4945  -21.1347  -54.2821 H         1 UNK         0.0600 
    237 H237       -9.3595  -19.7217  -56.8578 H         1 UNK         0.0600 
    238 H238      -10.2376  -21.0342  -56.0738 H         1 UNK         0.0600 
    239 H239      -10.0584  -19.4905  -55.2597 H         1 UNK         0.0600 
    240 H240       -5.6890  -20.8499  -54.9234 H         1 UNK         0.3000 
    241 H241       -3.9493  -19.5638  -54.7731 H         1 UNK         0.0600 
    242 H242       -5.7306  -19.1524  -57.2625 H         1 UNK         0.3800 
    243 H243       -5.0549  -17.6899  -57.9378 H         1 UNK         0.3800 
    244 H244       -5.2301  -18.8899  -52.6137 H         1 UNK         0.0800 
    245 H245       -5.5197  -17.3553  -53.3873 H         1 UNK         0.0800 
    246 H246       -4.3617  -15.5987  -52.4573 H         1 UNK         0.0800 
    247 H247       -2.6628  -15.4700  -52.0984 H         1 UNK         0.0800 
@<TRIPOS>BOND
     1    1    2 1    
     2    1  127 1    
     3    1  128 1    
     4    1  129 1    
     5    2    3 2    
     6    2    4 am   BACKBONE|DICT|INTERRES
     7    4    5 1    
     8    4  130 1    
     9    5    6 1    
    10    5   65 1    
    11    5  131 1    
    12    6    7 1    
    13    6  132 1    
    14    6  133 1    
    15    7    8 1    
    16    8    9 1    
    17    8  134 1    
    18    8  135 1    
    19    9   10 ar   
    20    9   14 ar   
    21   10   11 ar   
    22   10  136 1    
    23   11   12 ar   
    24   11  126 1    
    25   12   13 ar   
    26   12  137 1    
    27   13   14 ar   
    28   13   15 1    
    29   14  138 1    
    30   15   16 1    
    31   15  139 1    
    32   15  140 1    
    33   16   17 1    
    34   17   18 1    
    35   17  141 1    
    36   17  142 1    
    37   18   19 1    
    38   18   67 1    
    39   18  143 1    
    40   19   20 am   BACKBONE|DICT|INTERRES
    41   19  144 1    
    42   20   21 2    
    43   20   22 1    
    44   22   23 1    
    45   22   24 1    
    46   22  145 1    
    47   23  146 1    
    48   23  147 1    
    49   23  148 1    
    50   24   25 am   BACKBONE|DICT|INTERRES
    51   24  149 1    
    52   25   26 2    
    53   25   27 1    
    54   27   28 1    
    55   27   29 1    
    56   27  150 1    
    57   28  151 1    
    58   28  152 1    
    59   28  153 1    
    60   29   30 am   BACKBONE|DICT|INTERRES
    61   29  154 1    
    62   30   31 2    
    63   30   32 1    
    64   32   33 1    
    65   32   34 1    
    66   32  155 1    
    67   33  156 1    
    68   33  157 1    
    69   33  158 1    
    70   34   35 am   BACKBONE|DICT|INTERRES
    71   34  159 1    
    72   35   36 2    
    73   35   37 1    
    74   37   38 1    
    75   37   39 1    
    76   37  160 1    
    77   38  161 1    
    78   38  162 1    
    79   38  163 1    
    80   39   40 am   BACKBONE|DICT|INTERRES
    81   39  164 1    
    82   40   41 2    
    83   40   42 1    
    84   42   43 1    
    85   42   44 1    
    86   42  165 1    
    87   43  166 1    
    88   43  167 1    
    89   43  168 1    
    90   44   45 am   BACKBONE|DICT|INTERRES
    91   44  169 1    
    92   45   46 2    
    93   45   47 1    
    94   47   48 1    
    95   47   49 1    
    96   47  170 1    
    97   48  171 1    
    98   48  172 1    
    99   48  173 1    
   100   49   50 am   BACKBONE|DICT|INTERRES
   101   49  174 1    
   102   50   51 2    
   103   50   52 1    
   104   52   53 1    
   105   52   54 1    
   106   52  175 1    
   107   53  176 1    
   108   53  177 1    
   109   53  178 1    
   110   54   55 am   BACKBONE|DICT|INTERRES
   111   54  179 1    
   112   55   56 2    
   113   55   57 1    
   114   57   58 1    
   115   57   59 1    
   116   57  180 1    
   117   58  181 1    
   118   58  182 1    
   119   58  183 1    
   120   59   60 am   BACKBONE|DICT|INTERRES
   121   59  184 1    
   122   60   61 2    
   123   60   62 1    
   124   62   63 1    
   125   62   64 1    
   126   62  185 1    
   127   63  186 1    
   128   63  187 1    
   129   63  188 1    
   130   64   65 am   BACKBONE|DICT|INTERRES
   131   64  189 1    
   132   65   66 2    
   133   67   68 2    
   134   67   69 am   BACKBONE|DICT|INTERRES
   135   69   70 1    
   136   69  190 1    
   137   70   71 1    
   138   70   72 1    
   139   70  191 1    
   140   71  192 1    
   141   71  193 1    
   142   71  194 1    
   143   72   73 2    
   144   72   74 am   BACKBONE|DICT|INTERRES
   145   74   75 1    
   146   74  195 1    
   147   75   76 1    
   148   75   77 1    
   149   75  196 1    
   150   76  197 1    
   151   76  198 1    
   152   76  199 1    
   153   77   78 2    
   154   77   79 am   BACKBONE|DICT|INTERRES
   155   79   80 1    
   156   79  200 1    
   157   80   81 1    
   158   80   82 1    
   159   80  201 1    
   160   81  202 1    
   161   81  203 1    
   162   81  204 1    
   163   82   83 2    
   164   82   84 am   BACKBONE|DICT|INTERRES
   165   84   85 1    
   166   84  205 1    
   167   85   86 1    
   168   85   87 1    
   169   85  206 1    
   170   86  207 1    
   171   86  208 1    
   172   86  209 1    
   173   87   88 2    
   174   87   89 am   BACKBONE|DICT|INTERRES
   175   89   90 1    
   176   89  210 1    
   177   90   91 1    
   178   90   92 1    
   179   90  211 1    
   180   91  212 1    
   181   91  213 1    
   182   91  214 1    
   183   92   93 2    
   184   92   94 am   BACKBONE|DICT|INTERRES
   185   94   95 1    
   186   94  215 1    
   187   95   96 1    
   188   95   97 1    
   189   95  216 1    
   190   96  217 1    
   191   96  218 1    
   192   96  219 1    
   193   97   98 2    
   194   97   99 am   BACKBONE|DICT|INTERRES
   195   99  100 1    
   196   99  220 1    
   197  100  101 1    
   198  100  102 1    
   199  100  221 1    
   200  101  222 1    
   201  101  223 1    
   202  101  224 1    
   203  102  103 2    
   204  102  104 am   BACKBONE|DICT|INTERRES
   205  104  105 1    
   206  104  225 1    
   207  105  106 1    
   208  105  107 1    
   209  105  226 1    
   210  106  227 1    
   211  106  228 1    
   212  106  229 1    
   213  107  108 2    
   214  107  109 am   BACKBONE|DICT|INTERRES
   215  109  110 1    
   216  109  230 1    
   217  110  111 1    
   218  110  112 1    
   219  110  231 1    
   220  111  232 1    
   221  111  233 1    
   222  111  234 1    
   223  112  113 2    
   224  112  114 am   BACKBONE|DICT|INTERRES
   225  114  115 1    
   226  114  235 1    
   227  115  116 1    
   228  115  117 1    
   229  115  236 1    
   230  116  237 1    
   231  116  238 1    
   232  116  239 1    
   233  117  118 2    
   234  117  119 am   BACKBONE|DICT|INTERRES
   235  119  120 1    
   236  119  240 1    
   237  120  121 1    
   238  120  124 1    
   239  120  241 1    
   240  121  122 am   BACKBONE|DICT|INTERRES
   241  121  123 2    
   242  122  242 1    
   243  122  243 1    
   244  124  125 1    
   245  124  244 1    
   246  124  245 1    
   247  125  126 1    
   248  126  246 1    
   249  126  247 1    
@<TRIPOS>SUBSTRUCTURE
     1 UNK         1 GROUP             0       ****    0 ROOT    
