@<TRIPOS>MOLECULE
3R540
247   249    1
SMALL
USER_CHARGES


@<TRIPOS>ATOM
      1 CA          0.0337  -11.3444  -48.0630 C.3       0 UNK        -0.1800 
      2 C           1.3311  -11.9871  -47.5973 C.2       0 UNK         0.5000 
      3 O           1.3663  -12.5896  -46.5257 O.2       0 UNK        -0.5000 
      4 N           2.4062  -11.8584  -48.3887 N.am      1 UNK        -0.5000 
      5 CA          3.7269  -12.4583  -48.1343 C.3       1 UNK         0.1400 
      6 C6          3.6590  -14.0114  -48.1424 C.3       23 UNK        -0.0398 
      7 S7          5.2065  -14.8141  -48.6766 S.3       23 UNK        -0.2404 
      8 C8          4.8450  -15.1848  -50.4213 C.3       23 UNK        -0.0205 
      9 C9          3.8080  -16.2880  -50.5882 C.ar      23 UNK        -0.0193 
     10 C10         2.5469  -15.9997  -51.1202 C.ar      23 UNK        -0.1150 
     11 C11         1.6187  -17.0212  -51.3456 C.ar      23 UNK        -0.0193 
     12 C12         1.9640  -18.3385  -51.0339 C.ar      23 UNK        -0.1150 
     13 C13         3.2051  -18.6367  -50.4634 C.ar      23 UNK        -0.0193 
     14 C14         4.1251  -17.6065  -50.2490 C.ar      23 UNK        -0.1150 
     15 C15         3.5612  -20.0710  -50.0972 C.3       23 UNK        -0.0205 
     16 S16         2.8785  -20.5490  -48.4764 S.3       23 UNK        -0.2404 
     17 C17         1.1098  -20.7218  -48.8820 C.3       23 UNK        -0.0398 
     18 CA          0.3817  -21.7665  -48.0084 C.3       11 UNK         0.1400 
     19 N           0.3140  -21.3838  -46.5961 N.am      11 UNK        -0.5000 
     20 C          -0.1815  -22.1522  -45.6152 C.2       10 UNK         0.5000 
     21 O          -0.5694  -23.3094  -45.7771 O.2       10 UNK        -0.5000 
     22 CA         -0.3333  -21.4921  -44.2349 C.3       10 UNK         0.1400 
     23 CB          0.9911  -21.5040  -43.4557 C.3       10 UNK        -0.1800 
     24 N          -0.8315  -20.1224  -44.3506 N.am      10 UNK        -0.5000 
     25 C          -2.0803  -19.8041  -44.7185 C.2       9 UNK         0.5000 
     26 O          -2.9550  -20.6360  -44.9574 O.2       9 UNK        -0.5000 
     27 CA         -2.3983  -18.3060  -44.8718 C.3       9 UNK         0.1400 
     28 CB         -2.7739  -17.7092  -43.5122 C.3       9 UNK        -0.1800 
     29 N          -1.2874  -17.5477  -45.4498 N.am      9 UNK        -0.5000 
     30 C          -0.8708  -17.6956  -46.7149 C.2       8 UNK         0.5000 
     31 O          -1.3815  -18.4822  -47.5103 O.2       8 UNK        -0.5000 
     32 CA          0.3498  -16.8680  -47.1540 C.3       8 UNK         0.1400 
     33 CB         -0.0867  -15.4547  -47.5637 C.3       8 UNK        -0.1800 
     34 N           1.4152  -16.7753  -46.1515 N.am      8 UNK        -0.5000 
     35 C           2.0028  -17.8124  -45.5384 C.2       7 UNK         0.5000 
     36 O           1.6446  -18.9810  -45.6747 O.2       7 UNK        -0.5000 
     37 CA          3.1835  -17.5047  -44.6120 C.3       7 UNK         0.1400 
     38 CB          4.0366  -16.3127  -45.0786 C.3       7 UNK        -0.1800 
     39 N           2.7107  -17.2888  -43.2452 N.am      7 UNK        -0.5000 
     40 C           3.3441  -17.7432  -42.1538 C.2       6 UNK         0.5000 
     41 O           4.3938  -18.3863  -42.2061 O.2       6 UNK        -0.5000 
     42 CA          2.7335  -17.4453  -40.7681 C.3       6 UNK         0.1400 
     43 CB          3.7621  -16.8011  -39.8234 C.3       6 UNK        -0.1800 
     44 N           1.5606  -16.5754  -40.8273 N.am      6 UNK        -0.5000 
     45 C           0.2907  -16.9959  -40.7723 C.2       5 UNK         0.5000 
     46 O          -0.0396  -18.1791  -40.6934 O.2       5 UNK        -0.5000 
     47 CA         -0.7993  -15.9066  -40.8254 C.3       5 UNK         0.1400 
     48 CB         -1.1652  -15.4553  -39.4034 C.3       5 UNK        -0.1800 
     49 N          -0.4321  -14.7288  -41.6127 N.am      5 UNK        -0.5000 
     50 C          -0.0193  -14.7126  -42.8877 C.2       4 UNK         0.5000 
     51 O           0.0879  -15.7201  -43.5902 O.2       4 UNK        -0.5000 
     52 CA          0.3719  -13.3390  -43.4653 C.3       4 UNK         0.1400 
     53 CB         -0.3908  -12.1640  -42.8170 C.3       4 UNK        -0.1800 
     54 N           1.8160  -13.0699  -43.4271 N.am      4 UNK        -0.5000 
     55 C           2.6453  -13.1570  -42.3719 C.2       3 UNK         0.5000 
     56 O           2.3253  -13.6390  -41.2841 O.2       3 UNK        -0.5000 
     57 CA          4.0734  -12.5957  -42.5293 C.3       3 UNK         0.1400 
     58 CB          5.1294  -13.7072  -42.4623 C.3       3 UNK        -0.1800 
     59 N           4.2837  -11.8288  -43.7564 N.am      3 UNK        -0.5000 
     60 C           3.9823  -10.5377  -43.9285 C.2       2 UNK         0.5000 
     61 O           3.4160   -9.8524  -43.0765 O.2       2 UNK        -0.5000 
     62 CA          4.3848   -9.8953  -45.2729 C.3       2 UNK         0.1400 
     63 CB          5.8836   -9.5393  -45.2909 C.3       2 UNK        -0.1800 
     64 N           4.0038  -10.6690  -46.4628 N.am      2 UNK        -0.5000 
     65 C           4.4160  -11.8813  -46.8686 C.2       1 UNK         0.5000 
     66 O           5.2710  -12.5386  -46.2732 O.2       1 UNK        -0.5000 
     67 C          -1.0196  -22.0475  -48.5841 C.2       11 UNK         0.5000 
     68 O          -1.2102  -23.0868  -49.2121 O.2       11 UNK        -0.5000 
     69 N          -1.9769  -21.1429  -48.3322 N.am      12 UNK        -0.5000 
     70 CA         -3.3764  -21.2801  -48.7332 C.3       12 UNK         0.1400 
     71 CB         -4.1443  -19.9996  -48.3777 C.3       12 UNK        -0.1800 
     72 C          -4.0556  -22.5108  -48.1094 C.2       12 UNK         0.5000 
     73 O          -4.7377  -23.2456  -48.8220 O.2       12 UNK        -0.5000 
     74 N          -3.8348  -22.7363  -46.8062 N.am      13 UNK        -0.5000 
     75 CA         -4.3274  -23.9047  -46.0750 C.3       13 UNK         0.1400 
     76 CB         -4.0051  -23.7609  -44.5803 C.3       13 UNK        -0.1800 
     77 C          -3.7758  -25.2288  -46.6333 C.2       13 UNK         0.5000 
     78 O          -4.5520  -26.1612  -46.8482 O.2       13 UNK        -0.5000 
     79 N          -2.4612  -25.2679  -46.8989 N.am      14 UNK        -0.5000 
     80 CA         -1.7704  -26.3952  -47.5283 C.3       14 UNK         0.1400 
     81 CB         -0.2540  -26.1521  -47.5023 C.3       14 UNK        -0.1800 
     82 C          -2.2587  -26.6655  -48.9635 C.2       14 UNK         0.5000 
     83 O          -2.4542  -27.8245  -49.3317 O.2       14 UNK        -0.5000 
     84 N          -2.5091  -25.5959  -49.7291 N.am      15 UNK        -0.5000 
     85 CA         -3.0841  -25.6102  -51.0750 C.3       15 UNK         0.1400 
     86 CB         -2.6917  -24.3108  -51.7980 C.3       15 UNK        -0.1800 
     87 C          -4.6122  -25.8377  -51.0731 C.2       15 UNK         0.5000 
     88 O          -5.3422  -25.1109  -51.7486 O.2       15 UNK        -0.5000 
     89 N          -5.0634  -26.8484  -50.3162 N.am      16 UNK        -0.5000 
     90 CA         -6.4336  -27.3616  -50.2160 C.3       16 UNK         0.1400 
     91 CB         -6.7696  -28.1909  -51.4719 C.3       16 UNK        -0.1800 
     92 C          -7.4927  -26.2826  -49.9004 C.2       16 UNK         0.5000 
     93 O          -8.5723  -26.2871  -50.4947 O.2       16 UNK        -0.5000 
     94 N          -7.1528  -25.3824  -48.9659 N.am      17 UNK        -0.5000 
     95 CA         -7.9414  -24.2264  -48.5268 C.3       17 UNK         0.1400 
     96 CB         -9.2341  -24.6734  -47.8119 C.3       17 UNK        -0.1800 
     97 C          -8.1873  -23.2225  -49.6731 C.2       17 UNK         0.5000 
     98 O          -9.3342  -22.9248  -50.0128 O.2       17 UNK        -0.5000 
     99 N          -7.0782  -22.7201  -50.2305 N.am      18 UNK        -0.5000 
    100 CA        -6.9739  -21.7165  -51.2911 C.3       18 UNK         0.1400 
    101 CB        -7.5409  -20.3601  -50.8193 C.3       18 UNK        -0.1800 
    102 C         -7.5857  -22.1855  -52.6249 C.2       18 UNK         0.5000 
    103 O         -8.3669  -21.4548  -53.2403 O.2       18 UNK        -0.5000 
    104 N         -7.2099  -23.3919  -53.0705 N.am      19 UNK        -0.5000 
    105 CA        -7.5636  -23.9449  -54.3788 C.3       19 UNK         0.1400 
    106 CB        -7.3700  -25.4700  -54.3564 C.3       19 UNK        -0.1800 
    107 C         -6.7468  -23.2577  -55.4921 C.2       19 UNK         0.5000 
    108 O         -5.7803  -23.8277  -56.0029 O.2       19 UNK        -0.5000 
    109 N         -7.1283  -22.0100  -55.7960 N.am      20 UNK        -0.5000 
    110 CA        -6.5118  -21.0379  -56.7051 C.3       20 UNK         0.1400 
    111 CB        -6.4108  -21.5726  -58.1469 C.3       20 UNK        -0.1800 
    112 C         -5.1607  -20.5034  -56.1953 C.2       20 UNK         0.5000 
    113 O         -5.0073  -19.2887  -56.0535 O.2       20 UNK        -0.5000 
    114 N         -4.2189  -21.4100  -55.9064 N.am      21 UNK        -0.5000 
    115 CA        -2.8900  -21.1267  -55.3671 C.3       21 UNK         0.1400 
    116 CB        -2.0789  -22.4300  -55.3142 C.3       21 UNK        -0.1800 
    117 C         -2.9737  -20.4478  -53.9871 C.2       21 UNK         0.5000 
    118 O         -3.3648  -21.0864  -53.0085 O.2       21 UNK        -0.5000 
    119 N         -2.6457  -19.1505  -53.9606 N.am      22 UNK        -0.5000 
    120 CA        -2.7914  -18.2468  -52.8086 C.3       22 UNK         0.1400 
    121 C         -4.2699  -18.0007  -52.3665 C.2       22 UNK         0.5000 
    122 N         -5.2521  -18.1932  -53.2409 N.am      22 UNK        -0.7600 
    123 O         -4.5376  -17.6035  -51.2368 O.2       22 UNK        -0.5000 
    124 C124       -1.8171  -18.6012  -51.6452 C.3       23 UNK        -0.0398 
    125 S125       -1.1247  -17.1107  -50.8463 S.3       23 UNK        -0.2404 
    126 C126        0.2616  -16.7050  -51.9605 C.3       23 UNK        -0.0205 
    127 H127       -0.3078  -10.6154  -47.3282 H         1 UNK         0.0600 
    128 H128       -0.7389  -12.1051  -48.1749 H         1 UNK         0.0600 
    129 H129        0.1533  -10.8358  -49.0197 H         1 UNK         0.0600 
    130 H130        2.3237  -11.3392  -49.2523 H         1 UNK         0.3000 
    131 H131        4.3462  -12.1438  -48.9756 H         1 UNK         0.0600 
    132 H132        3.3782  -14.3926  -47.1611 H         1 UNK         0.0800 
    133 H133        2.8664  -14.3425  -48.8120 H         1 UNK         0.0800 
    134 H134        4.5277  -14.2704  -50.9253 H         1 UNK         0.0800 
    135 H135        5.7694  -15.4946  -50.9105 H         1 UNK         0.0800 
    136 H136        2.2962  -14.9807  -51.3800 H         1 UNK         0.1150 
    137 H137        1.2569  -19.1298  -51.2286 H         1 UNK         0.1150 
    138 H138        5.0950  -17.8297  -49.8268 H         1 UNK         0.1150 
    139 H139        3.2102  -20.7565  -50.8699 H         1 UNK         0.0800 
    140 H140        4.6454  -20.1880  -50.0639 H         1 UNK         0.0800 
    141 H141        1.0324  -21.0123  -49.9310 H         1 UNK         0.0800 
    142 H142        0.6358  -19.7433  -48.7956 H         1 UNK         0.0800 
    143 H143        0.9429  -22.7019  -48.0621 H         1 UNK         0.0600 
    144 H144        0.6634  -20.4588  -46.3577 H         1 UNK         0.3000 
    145 H145       -1.0626  -22.0716  -43.6649 H         1 UNK         0.0600 
    146 H146        0.8732  -21.0500  -42.4715 H         1 UNK         0.0600 
    147 H147        1.3407  -22.5258  -43.3036 H         1 UNK         0.0600 
    148 H148        1.7804  -20.9651  -43.9796 H         1 UNK         0.0600 
    149 H149       -0.1493  -19.3829  -44.2580 H         1 UNK         0.3000 
    150 H150       -3.2575  -18.2058  -45.5381 H         1 UNK         0.0600 
    151 H151       -3.6936  -18.1555  -43.1319 H         1 UNK         0.0600 
    152 H152       -2.9302  -16.6320  -43.5735 H         1 UNK         0.0600 
    153 H153       -1.9912  -17.9034  -42.7806 H         1 UNK         0.0600 
    154 H154       -0.7961  -16.8980  -44.8415 H         1 UNK         0.3000 
    155 H155        0.7744  -17.3582  -48.0327 H         1 UNK         0.0600 
    156 H156       -0.9276  -15.4860  -48.2574 H         1 UNK         0.0600 
    157 H157       -0.3949  -14.8622  -46.7014 H         1 UNK         0.0600 
    158 H158        0.7211  -14.9270  -48.0667 H         1 UNK         0.0600 
    159 H159        1.7358  -15.8448  -45.9317 H         1 UNK         0.3000 
    160 H160        3.8169  -18.3938  -44.6515 H         1 UNK         0.0600 
    161 H161        3.5309  -15.3592  -44.9241 H         1 UNK         0.0600 
    162 H162        4.2844  -16.3998  -46.1371 H         1 UNK         0.0600 
    163 H163        4.9820  -16.2872  -44.5381 H         1 UNK         0.0600 
    164 H164        1.8248  -16.8044  -43.1461 H         1 UNK         0.3000 
    165 H165        2.4588  -18.4115  -40.3399 H         1 UNK         0.0600 
    166 H166        3.3535  -16.6911  -38.8188 H         1 UNK         0.0600 
    167 H167        4.6636  -17.4090  -39.7385 H         1 UNK         0.0600 
    168 H168        4.0602  -15.8125  -40.1685 H         1 UNK         0.0600 
    169 H169        1.7394  -15.5791  -40.9139 H         1 UNK         0.3000 
    170 H170       -1.6933  -16.3360  -41.2732 H         1 UNK         0.0600 
    171 H171       -0.3219  -14.9757  -38.9046 H         1 UNK         0.0600 
    172 H172       -1.9958  -14.7493  -39.4139 H         1 UNK         0.0600 
    173 H173       -1.4703  -16.3042  -38.7899 H         1 UNK         0.0600 
    174 H174       -0.4336  -13.8499  -41.1161 H         1 UNK         0.3000 
    175 H175        0.0775  -13.3732  -44.5133 H         1 UNK         0.0600 
    176 H176       -0.2166  -11.2410  -43.3704 H         1 UNK         0.0600 
    177 H177       -0.0829  -11.9886  -41.7856 H         1 UNK         0.0600 
    178 H178       -1.4672  -12.3411  -42.8204 H         1 UNK         0.0600 
    179 H179        2.1927  -12.6983  -44.2893 H         1 UNK         0.3000 
    180 H180        4.2413  -11.9351  -41.6762 H         1 UNK         0.0600 
    181 H181        5.0256  -14.3002  -41.5552 H         1 UNK         0.0600 
    182 H182        6.1364  -13.2898  -42.4584 H         1 UNK         0.0600 
    183 H183        5.0552  -14.3811  -43.3118 H         1 UNK         0.0600 
    184 H184        4.7435  -12.3039  -44.5303 H         1 UNK         0.3000 
    185 H185        3.8298   -8.9585  -45.3456 H         1 UNK         0.0600 
    186 H186        6.1361   -8.8822  -44.4579 H         1 UNK         0.0600 
    187 H187        6.5165  -10.4233  -45.2094 H         1 UNK         0.0600 
    188 H188        6.1533   -9.0176  -46.2092 H         1 UNK         0.0600 
    189 H189        3.2734  -10.2457  -47.0180 H         1 UNK         0.3000 
    190 H190       -1.7302  -20.2796  -47.8527 H         1 UNK         0.3000 
    191 H191       -3.4016  -21.4008  -49.8183 H         1 UNK         0.0600 
    192 H192       -3.7378  -19.1345  -48.9017 H         1 UNK         0.0600 
    193 H193       -5.1934  -20.0838  -48.6559 H         1 UNK         0.0600 
    194 H194       -4.1065  -19.7895  -47.3091 H         1 UNK         0.0600 
    195 H195       -3.3041  -22.0556  -46.2706 H         1 UNK         0.3000 
    196 H196       -5.4133  -23.9276  -46.1829 H         1 UNK         0.0600 
    197 H197       -4.3735  -24.6188  -44.0166 H         1 UNK         0.0600 
    198 H198       -4.4742  -22.8709  -44.1608 H         1 UNK         0.0600 
    199 H199       -2.9320  -23.6874  -44.4035 H         1 UNK         0.0600 
    200 H200       -1.8887  -24.4623  -46.6616 H         1 UNK         0.3000 
    201 H201       -1.9810  -27.2865  -46.9339 H         1 UNK         0.0600 
    202 H202        0.1090  -26.0401  -46.4805 H         1 UNK         0.0600 
    203 H203        0.0199  -25.2522  -48.0535 H         1 UNK         0.0600 
    204 H204        0.2841  -26.9888  -47.9495 H         1 UNK         0.0600 
    205 H205       -2.2854  -24.6763  -49.3581 H         1 UNK         0.3000 
    206 H206       -2.6431  -26.4404  -51.6299 H         1 UNK         0.0600 
    207 H207       -1.6094  -24.1897  -51.8418 H         1 UNK         0.0600 
    208 H208       -3.0615  -24.3113  -52.8225 H         1 UNK         0.0600 
    209 H209       -3.1081  -23.4340  -51.3008 H         1 UNK         0.0600 
    210 H210       -4.3641  -27.3639  -49.7922 H         1 UNK         0.3000 
    211 H211       -6.4412  -28.0420  -49.3635 H         1 UNK         0.0600 
    212 H212       -6.7617  -27.5776  -52.3720 H         1 UNK         0.0600 
    213 H213       -7.7559  -28.6495  -51.3923 H         1 UNK         0.0600 
    214 H214       -6.0503  -28.9975  -51.6132 H         1 UNK         0.0600 
    215 H215       -6.2216  -25.4485  -48.5745 H         1 UNK         0.3000 
    216 H216       -7.3321  -23.7038  -47.7884 H         1 UNK         0.0600 
    217 H217       -9.7612  -23.8153  -47.3934 H         1 UNK         0.0600 
    218 H218       -9.0136  -25.3521  -46.9881 H         1 UNK         0.0600 
    219 H219       -9.9238  -25.1793  -48.4879 H         1 UNK         0.0600 
    220 H220       -6.1874  -23.0566  -49.8667 H         1 UNK         0.3000 
    221 H221       -5.9066  -21.5802  -51.4746 H         1 UNK         0.0600 
    222 H222       -8.6240  -20.3926  -50.6974 H         1 UNK         0.0600 
    223 H223       -7.1108  -20.0541  -49.8677 H         1 UNK         0.0600 
    224 H224       -7.3182  -19.5747  -51.5418 H         1 UNK         0.0600 
    225 H225       -6.5532  -23.9416  -52.5177 H         1 UNK         0.3000 
    226 H226       -8.6215  -23.7526  -54.5698 H         1 UNK         0.0600 
    227 H227       -7.9924  -25.9291  -53.5883 H         1 UNK         0.0600 
    228 H228       -7.6515  -25.9128  -55.3124 H         1 UNK         0.0600 
    229 H229       -6.3334  -25.7452  -54.1598 H         1 UNK         0.0600 
    230 H230       -7.8700  -21.6289  -55.2166 H         1 UNK         0.3000 
    231 H231       -7.1950  -20.1874  -56.7258 H         1 UNK         0.0600 
    232 H232       -5.7209  -22.4125  -58.2297 H         1 UNK         0.0600 
    233 H233       -6.0542  -20.7944  -58.8226 H         1 UNK         0.0600 
    234 H234       -7.3834  -21.9005  -58.5137 H         1 UNK         0.0600 
    235 H235       -4.4771  -22.3880  -55.9990 H         1 UNK         0.3000 
    236 H236       -2.3854  -20.4507  -56.0605 H         1 UNK         0.0600 
    237 H237       -1.9002  -22.8214  -56.3157 H         1 UNK         0.0600 
    238 H238       -1.1062  -22.2703  -54.8472 H         1 UNK         0.0600 
    239 H239       -2.5973  -23.2006  -54.7457 H         1 UNK         0.0600 
    240 H240       -2.3807  -18.7051  -54.8277 H         1 UNK         0.3000 
    241 H241       -2.4819  -17.2815  -53.2101 H         1 UNK         0.0600 
    242 H242       -5.0569  -18.5043  -54.1863 H         1 UNK         0.3800 
    243 H243       -6.2014  -18.0080  -52.9616 H         1 UNK         0.3800 
    244 H244       -2.3098  -19.2179  -50.8925 H         1 UNK         0.0800 
    245 H245       -0.9847  -19.2038  -52.0093 H         1 UNK         0.0800 
    246 H246        0.1623  -17.2382  -52.9068 H         1 UNK         0.0800 
    247 H247        0.1955  -15.6443  -52.2066 H         1 UNK         0.0800 
@<TRIPOS>BOND
     1    1    2 1    
     2    1  127 1    
     3    1  128 1    
     4    1  129 1    
     5    2    3 2    
     6    2    4 am   BACKBONE|DICT|INTERRES
     7    4    5 1    
     8    4  130 1    
     9    5    6 1    
    10    5   65 1    
    11    5  131 1    
    12    6    7 1    
    13    6  132 1    
    14    6  133 1    
    15    7    8 1    
    16    8    9 1    
    17    8  134 1    
    18    8  135 1    
    19    9   10 ar   
    20    9   14 ar   
    21   10   11 ar   
    22   10  136 1    
    23   11   12 ar   
    24   11  126 1    
    25   12   13 ar   
    26   12  137 1    
    27   13   14 ar   
    28   13   15 1    
    29   14  138 1    
    30   15   16 1    
    31   15  139 1    
    32   15  140 1    
    33   16   17 1    
    34   17   18 1    
    35   17  141 1    
    36   17  142 1    
    37   18   19 1    
    38   18   67 1    
    39   18  143 1    
    40   19   20 am   BACKBONE|DICT|INTERRES
    41   19  144 1    
    42   20   21 2    
    43   20   22 1    
    44   22   23 1    
    45   22   24 1    
    46   22  145 1    
    47   23  146 1    
    48   23  147 1    
    49   23  148 1    
    50   24   25 am   BACKBONE|DICT|INTERRES
    51   24  149 1    
    52   25   26 2    
    53   25   27 1    
    54   27   28 1    
    55   27   29 1    
    56   27  150 1    
    57   28  151 1    
    58   28  152 1    
    59   28  153 1    
    60   29   30 am   BACKBONE|DICT|INTERRES
    61   29  154 1    
    62   30   31 2    
    63   30   32 1    
    64   32   33 1    
    65   32   34 1    
    66   32  155 1    
    67   33  156 1    
    68   33  157 1    
    69   33  158 1    
    70   34   35 am   BACKBONE|DICT|INTERRES
    71   34  159 1    
    72   35   36 2    
    73   35   37 1    
    74   37   38 1    
    75   37   39 1    
    76   37  160 1    
    77   38  161 1    
    78   38  162 1    
    79   38  163 1    
    80   39   40 am   BACKBONE|DICT|INTERRES
    81   39  164 1    
    82   40   41 2    
    83   40   42 1    
    84   42   43 1    
    85   42   44 1    
    86   42  165 1    
    87   43  166 1    
    88   43  167 1    
    89   43  168 1    
    90   44   45 am   BACKBONE|DICT|INTERRES
    91   44  169 1    
    92   45   46 2    
    93   45   47 1    
    94   47   48 1    
    95   47   49 1    
    96   47  170 1    
    97   48  171 1    
    98   48  172 1    
    99   48  173 1    
   100   49   50 am   BACKBONE|DICT|INTERRES
   101   49  174 1    
   102   50   51 2    
   103   50   52 1    
   104   52   53 1    
   105   52   54 1    
   106   52  175 1    
   107   53  176 1    
   108   53  177 1    
   109   53  178 1    
   110   54   55 am   BACKBONE|DICT|INTERRES
   111   54  179 1    
   112   55   56 2    
   113   55   57 1    
   114   57   58 1    
   115   57   59 1    
   116   57  180 1    
   117   58  181 1    
   118   58  182 1    
   119   58  183 1    
   120   59   60 am   BACKBONE|DICT|INTERRES
   121   59  184 1    
   122   60   61 2    
   123   60   62 1    
   124   62   63 1    
   125   62   64 1    
   126   62  185 1    
   127   63  186 1    
   128   63  187 1    
   129   63  188 1    
   130   64   65 am   BACKBONE|DICT|INTERRES
   131   64  189 1    
   132   65   66 2    
   133   67   68 2    
   134   67   69 am   BACKBONE|DICT|INTERRES
   135   69   70 1    
   136   69  190 1    
   137   70   71 1    
   138   70   72 1    
   139   70  191 1    
   140   71  192 1    
   141   71  193 1    
   142   71  194 1    
   143   72   73 2    
   144   72   74 am   BACKBONE|DICT|INTERRES
   145   74   75 1    
   146   74  195 1    
   147   75   76 1    
   148   75   77 1    
   149   75  196 1    
   150   76  197 1    
   151   76  198 1    
   152   76  199 1    
   153   77   78 2    
   154   77   79 am   BACKBONE|DICT|INTERRES
   155   79   80 1    
   156   79  200 1    
   157   80   81 1    
   158   80   82 1    
   159   80  201 1    
   160   81  202 1    
   161   81  203 1    
   162   81  204 1    
   163   82   83 2    
   164   82   84 am   BACKBONE|DICT|INTERRES
   165   84   85 1    
   166   84  205 1    
   167   85   86 1    
   168   85   87 1    
   169   85  206 1    
   170   86  207 1    
   171   86  208 1    
   172   86  209 1    
   173   87   88 2    
   174   87   89 am   BACKBONE|DICT|INTERRES
   175   89   90 1    
   176   89  210 1    
   177   90   91 1    
   178   90   92 1    
   179   90  211 1    
   180   91  212 1    
   181   91  213 1    
   182   91  214 1    
   183   92   93 2    
   184   92   94 am   BACKBONE|DICT|INTERRES
   185   94   95 1    
   186   94  215 1    
   187   95   96 1    
   188   95   97 1    
   189   95  216 1    
   190   96  217 1    
   191   96  218 1    
   192   96  219 1    
   193   97   98 2    
   194   97   99 am   BACKBONE|DICT|INTERRES
   195   99  100 1    
   196   99  220 1    
   197  100  101 1    
   198  100  102 1    
   199  100  221 1    
   200  101  222 1    
   201  101  223 1    
   202  101  224 1    
   203  102  103 2    
   204  102  104 am   BACKBONE|DICT|INTERRES
   205  104  105 1    
   206  104  225 1    
   207  105  106 1    
   208  105  107 1    
   209  105  226 1    
   210  106  227 1    
   211  106  228 1    
   212  106  229 1    
   213  107  108 2    
   214  107  109 am   BACKBONE|DICT|INTERRES
   215  109  110 1    
   216  109  230 1    
   217  110  111 1    
   218  110  112 1    
   219  110  231 1    
   220  111  232 1    
   221  111  233 1    
   222  111  234 1    
   223  112  113 2    
   224  112  114 am   BACKBONE|DICT|INTERRES
   225  114  115 1    
   226  114  235 1    
   227  115  116 1    
   228  115  117 1    
   229  115  236 1    
   230  116  237 1    
   231  116  238 1    
   232  116  239 1    
   233  117  118 2    
   234  117  119 am   BACKBONE|DICT|INTERRES
   235  119  120 1    
   236  119  240 1    
   237  120  121 1    
   238  120  124 1    
   239  120  241 1    
   240  121  122 am   BACKBONE|DICT|INTERRES
   241  121  123 2    
   242  122  242 1    
   243  122  243 1    
   244  124  125 1    
   245  124  244 1    
   246  124  245 1    
   247  125  126 1    
   248  126  246 1    
   249  126  247 1    
@<TRIPOS>SUBSTRUCTURE
     1 UNK         1 GROUP             0       ****    0 ROOT    
