@<TRIPOS>MOLECULE
3R540
247   249    1
SMALL
USER_CHARGES


@<TRIPOS>ATOM
      1 CA          7.6285  -15.9276  -46.5185 C.3       0 UNK        -0.1800 
      2 C           6.2902  -15.2812  -46.1893 C.2       0 UNK         0.5000 
      3 O           6.0404  -14.9492  -45.0305 O.2       0 UNK        -0.5000 
      4 N           5.4299  -15.1129  -47.2010 N.am      1 UNK        -0.5000 
      5 CA          4.1089  -14.4840  -47.0934 C.3       1 UNK         0.1400 
      6 C6          3.2637  -14.6994  -48.3704 C.3       23 UNK        -0.0398 
      7 S7          2.8416  -16.4571  -48.5829 S.3       23 UNK        -0.2404 
      8 C8          2.1294  -16.4617  -50.2563 C.3       23 UNK        -0.0205 
      9 C9          1.2025  -17.6542  -50.4159 C.ar      23 UNK        -0.0193 
     10 C10        -0.1796  -17.4889  -50.2978 C.ar      23 UNK        -0.1150 
     11 C11        -1.0348  -18.5932  -50.3324 C.ar      23 UNK        -0.0193 
     12 C12        -0.4894  -19.8734  -50.4879 C.ar      23 UNK        -0.1150 
     13 C13         0.8892  -20.0499  -50.6362 C.ar      23 UNK        -0.0193 
     14 C14         1.7288  -18.9324  -50.6169 C.ar      23 UNK        -0.1150 
     15 C15         1.4682  -21.4537  -50.7666 C.3       23 UNK        -0.0205 
     16 S16         2.7343  -21.8319  -49.5030 S.3       23 UNK        -0.2404 
     17 C17         1.9066  -21.3624  -47.9412 C.3       23 UNK        -0.0398 
     18 CA          1.2814  -22.5496  -47.1767 C.3       11 UNK         0.1400 
     19 N           0.9260  -22.1738  -45.8070 N.am      11 UNK        -0.5000 
     20 C           0.4978  -23.0235  -44.8636 C.2       10 UNK         0.5000 
     21 O           0.3982  -24.2382  -45.0312 O.2       10 UNK        -0.5000 
     22 CA          0.0549  -22.4069  -43.5258 C.3       10 UNK         0.1400 
     23 CB          1.2705  -22.0636  -42.6524 C.3       10 UNK        -0.1800 
     24 N          -0.7776  -21.2174  -43.7094 N.am      10 UNK        -0.5000 
     25 C          -1.9804  -21.2186  -44.3032 C.2       9 UNK         0.5000 
     26 O          -2.5399  -22.2370  -44.7106 O.2       9 UNK        -0.5000 
     27 CA         -2.6498  -19.8486  -44.5200 C.3       9 UNK         0.1400 
     28 CB         -3.3115  -19.3479  -43.2276 C.3       9 UNK        -0.1800 
     29 N          -1.7172  -18.8361  -45.0157 N.am      9 UNK        -0.5000 
     30 C          -1.0731  -18.9022  -46.1893 C.2       8 UNK         0.5000 
     31 O          -1.2232  -19.8131  -47.0010 O.2       8 UNK        -0.5000 
     32 CA         -0.0477  -17.7940  -46.4778 C.3       8 UNK         0.1400 
     33 CB         -0.7378  -16.5090  -46.9622 C.3       8 UNK        -0.1800 
     34 N           0.7790  -17.4997  -45.3075 N.am      8 UNK        -0.5000 
     35 C           1.6703  -18.3492  -44.7777 C.2       7 UNK         0.5000 
     36 O           1.9161  -19.4625  -45.2409 O.2       7 UNK        -0.5000 
     37 CA          2.3684  -17.8954  -43.4829 C.3       7 UNK         0.1400 
     38 CB          3.5507  -16.9676  -43.7965 C.3       7 UNK        -0.1800 
     39 N           1.4561  -17.2207  -42.5584 N.am      7 UNK        -0.5000 
     40 C           0.4317  -17.8182  -41.9338 C.2       6 UNK         0.5000 
     41 O           0.1643  -19.0138  -42.0471 O.2       6 UNK        -0.5000 
     42 CA         -0.4755  -16.9142  -41.0791 C.3       6 UNK         0.1400 
     43 CB          0.1171  -16.7226  -39.6753 C.3       6 UNK        -0.1800 
     44 N          -0.7252  -15.6019  -41.6811 N.am      6 UNK        -0.5000 
     45 C          -1.3033  -15.3914  -42.8702 C.2       5 UNK         0.5000 
     46 O          -1.6571  -16.3075  -43.6123 O.2       5 UNK        -0.5000 
     47 CA         -1.5004  -13.9369  -43.3458 C.3       5 UNK         0.1400 
     48 CB         -2.9926  -13.5558  -43.3386 C.3       5 UNK        -0.1800 
     49 N          -0.6960  -12.9110  -42.6649 N.am      5 UNK        -0.5000 
     50 C          -0.7620  -12.4901  -41.3907 C.2       4 UNK         0.5000 
     51 O          -1.4625  -13.0223  -40.5303 O.2       4 UNK        -0.5000 
     52 CA          0.1135  -11.2801  -40.9988 C.3       4 UNK         0.1400 
     53 CB          1.3921  -11.7569  -40.2924 C.3       4 UNK        -0.1800 
     54 N           0.4900  -10.4369  -42.1352 N.am      4 UNK        -0.5000 
     55 C          -0.3591   -9.7239  -42.8893 C.2       3 UNK         0.5000 
     56 O          -1.5547   -9.5912  -42.6258 O.2       3 UNK        -0.5000 
     57 CA          0.2087   -9.0711  -44.1688 C.3       3 UNK         0.1400 
     58 CB          0.3225   -7.5491  -43.9883 C.3       3 UNK        -0.1800 
     59 N           1.5091   -9.5898  -44.6158 N.am      3 UNK        -0.5000 
     60 C           1.7824  -10.8553  -44.9617 C.2       2 UNK         0.5000 
     61 O           0.9676  -11.7813  -44.8880 O.2       2 UNK        -0.5000 
     62 CA          3.2214  -11.1343  -45.4207 C.3       2 UNK         0.1400 
     63 CB          4.2209  -10.9533  -44.2613 C.3       2 UNK        -0.1800 
     64 N           3.2959  -12.5012  -45.9218 N.am      2 UNK        -0.5000 
     65 C           4.2235  -12.9839  -46.7533 C.2       1 UNK         0.5000 
     66 O           5.1241  -12.3026  -47.2508 O.2       1 UNK        -0.5000 
     67 C           0.0810  -23.1589  -47.9298 C.2       11 UNK         0.5000 
     68 O           0.2254  -24.2279  -48.5205 O.2       11 UNK        -0.5000 
     69 N          -1.0895  -22.5090  -47.8518 N.am      12 UNK        -0.5000 
     70 CA         -2.3373  -22.9772  -48.4573 C.3       12 UNK         0.1400 
     71 CB         -3.4299  -21.9131  -48.2876 C.3       12 UNK        -0.1800 
     72 C          -2.8156  -24.3360  -47.9129 C.2       12 UNK         0.5000 
     73 O          -3.3986  -25.1146  -48.6658 O.2       12 UNK        -0.5000 
     74 N          -2.5484  -24.6103  -46.6302 N.am      13 UNK        -0.5000 
     75 CA         -2.8097  -25.9025  -46.0032 C.3       13 UNK         0.1400 
     76 CB         -2.8259  -25.7373  -44.4753 C.3       13 UNK        -0.1800 
     77 C          -1.7901  -26.9743  -46.4339 C.2       13 UNK         0.5000 
     78 O          -2.1908  -28.0803  -46.7982 O.2       13 UNK        -0.5000 
     79 N          -0.4950  -26.6385  -46.3659 N.am      14 UNK        -0.5000 
     80 CA          0.6107  -27.5748  -46.5698 C.3       14 UNK         0.1400 
     81 CB          1.8804  -27.0025  -45.9199 C.3       14 UNK        -0.1800 
     82 C           0.8819  -27.9223  -48.0441 C.2       14 UNK         0.5000 
     83 O           1.1356  -29.0884  -48.3495 O.2       14 UNK        -0.5000 
     84 N           0.8616  -26.9116  -48.9204 N.am      15 UNK        -0.5000 
     85 CA          1.2975  -27.0016  -50.3174 C.3       15 UNK         0.1400 
     86 CB          2.4029  -25.9541  -50.5446 C.3       15 UNK        -0.1800 
     87 C           0.1428  -26.8073  -51.3182 C.2       15 UNK         0.5000 
     88 O           0.4039  -26.7538  -52.5213 O.2       15 UNK        -0.5000 
     89 N          -1.0946  -26.7124  -50.8091 N.am      16 UNK        -0.5000 
     90 CA         -2.3433  -26.3622  -51.4980 C.3       16 UNK         0.1400 
     91 CB         -2.6043  -27.2518  -52.7312 C.3       16 UNK        -0.1800 
     92 C          -2.4211  -24.8614  -51.8468 C.2       16 UNK         0.5000 
     93 O          -1.4016  -24.1712  -51.9245 O.2       16 UNK        -0.5000 
     94 N          -3.6537  -24.3686  -52.0183 N.am      17 UNK        -0.5000 
     95 CA         -3.9437  -22.9701  -52.3280 C.3       17 UNK         0.1400 
     96 CB         -5.4445  -22.7116  -52.1321 C.3       17 UNK        -0.1800 
     97 C          -3.4999  -22.5873  -53.7526 C.2       17 UNK         0.5000 
     98 O          -3.6160  -23.3958  -54.6765 O.2       17 UNK        -0.5000 
     99 N          -3.0205  -21.3479  -53.9000 N.am      18 UNK        -0.5000 
    100 CA        -2.5163  -20.7807  -55.1522 C.3       18 UNK         0.1400 
    101 CB        -1.5753  -19.6157  -54.8033 C.3       18 UNK        -0.1800 
    102 C         -3.6291  -20.3051  -56.1094 C.2       18 UNK         0.5000 
    103 O         -3.3453  -20.0318  -57.2764 O.2       18 UNK        -0.5000 
    104 N         -4.8627  -20.1985  -55.6061 N.am      19 UNK        -0.5000 
    105 CA        -6.0558  -19.7327  -56.3051 C.3       19 UNK         0.1400 
    106 CB        -6.0179  -18.1962  -56.4309 C.3       19 UNK        -0.1800 
    107 C         -7.2897  -20.2028  -55.5183 C.2       19 UNK         0.5000 
    108 O         -7.1385  -20.8265  -54.4627 O.2       19 UNK        -0.5000 
    109 N         -8.4894  -19.8744  -56.0173 N.am      20 UNK        -0.5000 
    110 CA        -9.7722  -20.1077  -55.3466 C.3       20 UNK         0.1400 
    111 CB       -10.9149  -19.6276  -56.2548 C.3       20 UNK        -0.1800 
    112 C         -9.8171  -19.4016  -53.9774 C.2       20 UNK         0.5000 
    113 O         -9.6975  -18.1748  -53.9225 O.2       20 UNK        -0.5000 
    114 N         -9.8883  -20.2011  -52.9019 N.am      21 UNK        -0.5000 
    115 CA        -9.7637  -19.8033  -51.4897 C.3       21 UNK         0.1400 
    116 CB       -10.9847  -18.9664  -51.0551 C.3       21 UNK        -0.1800 
    117 C         -8.4219  -19.1062  -51.1541 C.2       21 UNK         0.5000 
    118 O         -8.3336  -18.3838  -50.1602 O.2       21 UNK        -0.5000 
    119 N         -7.4084  -19.3232  -52.0031 N.am      22 UNK        -0.5000 
    120 CA        -6.1181  -18.6231  -52.0317 C.3       22 UNK         0.1400 
    121 C         -6.2064  -17.0999  -52.3611 C.2       22 UNK         0.5000 
    122 N         -7.2877  -16.6185  -52.9661 N.am      22 UNK        -0.7600 
    123 O         -5.2767  -16.3438  -52.0949 O.2       22 UNK        -0.5000 
    124 C124       -5.2223  -18.9658  -50.8070 C.3       23 UNK        -0.0398 
    125 S125       -3.5203  -19.3577  -51.3270 S.3       23 UNK        -0.2404 
    126 C126       -2.5343  -18.3931  -50.1422 C.3       23 UNK        -0.0205 
    127 H127        7.7081  -16.1800  -47.5762 H         1 UNK         0.0600 
    128 H128        7.7551  -16.8429  -45.9402 H         1 UNK         0.0600 
    129 H129        8.4441  -15.2491  -46.2684 H         1 UNK         0.0600 
    130 H130        5.6984  -15.4005  -48.1307 H         1 UNK         0.3000 
    131 H131        3.5900  -14.9673  -46.2637 H         1 UNK         0.0600 
    132 H132        3.7934  -14.3398  -49.2545 H         1 UNK         0.0800 
    133 H133        2.3274  -14.1403  -48.3171 H         1 UNK         0.0800 
    134 H134        2.9294  -16.5015  -50.9969 H         1 UNK         0.0800 
    135 H135        1.5841  -15.5329  -50.4314 H         1 UNK         0.0800 
    136 H136       -0.5865  -16.4997  -50.1423 H         1 UNK         0.1150 
    137 H137       -1.1400  -20.7363  -50.4800 H         1 UNK         0.1150 
    138 H138        2.7985  -19.0635  -50.7008 H         1 UNK         0.1150 
    139 H139        0.6789  -22.2055  -50.7098 H         1 UNK         0.0800 
    140 H140        1.9158  -21.5591  -51.7554 H         1 UNK         0.0800 
    141 H141        1.1717  -20.5739  -48.1001 H         1 UNK         0.0800 
    142 H142        2.6806  -20.9082  -47.3219 H         1 UNK         0.0800 
    143 H143        2.0413  -23.3301  -47.0966 H         1 UNK         0.0600 
    144 H144        1.0143  -21.1891  -45.5744 H         1 UNK         0.3000 
    145 H145       -0.5420  -23.1538  -42.9982 H         1 UNK         0.0600 
    146 H146        0.9605  -21.7110  -41.6686 H         1 UNK         0.0600 
    147 H147        1.8874  -21.2873  -43.1059 H         1 UNK         0.0600 
    148 H148        1.9022  -22.9396  -42.4998 H         1 UNK         0.0600 
    149 H149       -0.4072  -20.3429  -43.3486 H         1 UNK         0.3000 
    150 H150       -3.4296  -19.9765  -45.2735 H         1 UNK         0.0600 
    151 H151       -4.0402  -20.0700  -42.8573 H         1 UNK         0.0600 
    152 H152       -3.8383  -18.4079  -43.3936 H         1 UNK         0.0600 
    153 H153       -2.5794  -19.1844  -42.4367 H         1 UNK         0.0600 
    154 H154       -1.5665  -18.0232  -44.4239 H         1 UNK         0.3000 
    155 H155        0.6049  -18.1505  -47.2777 H         1 UNK         0.0600 
    156 H156       -1.3968  -16.7147  -47.8054 H         1 UNK         0.0600 
    157 H157       -0.0067  -15.7712  -47.2926 H         1 UNK         0.0600 
    158 H158       -1.3482  -16.0521  -46.1845 H         1 UNK         0.0600 
    159 H159        0.5910  -16.6337  -44.8267 H         1 UNK         0.3000 
    160 H160        2.7576  -18.7876  -42.9878 H         1 UNK         0.0600 
    161 H161        3.2168  -16.0124  -44.2011 H         1 UNK         0.0600 
    162 H162        4.2229  -17.4184  -44.5281 H         1 UNK         0.0600 
    163 H163        4.1381  -16.7619  -42.9016 H         1 UNK         0.0600 
    164 H164        1.6000  -16.2333  -42.4078 H         1 UNK         0.3000 
    165 H165       -1.4388  -17.4178  -40.9771 H         1 UNK         0.0600 
    166 H166       -0.5623  -16.1601  -39.0346 H         1 UNK         0.0600 
    167 H167        0.2970  -17.6841  -39.1925 H         1 UNK         0.0600 
    168 H168        1.0670  -16.1875  -39.7080 H         1 UNK         0.0600 
    169 H169       -0.5479  -14.7891  -41.1044 H         1 UNK         0.3000 
    170 H170       -1.1666  -13.9182  -44.3844 H         1 UNK         0.0600 
    171 H171       -3.5749  -14.2467  -43.9498 H         1 UNK         0.0600 
    172 H172       -3.4134  -13.5781  -42.3331 H         1 UNK         0.0600 
    173 H173       -3.1453  -12.5556  -43.7446 H         1 UNK         0.0600 
    174 H174       -0.0566  -12.4182  -43.2813 H         1 UNK         0.3000 
    175 H175       -0.4620  -10.6701  -40.2997 H         1 UNK         0.0600 
    176 H176        2.0174  -12.3584  -40.9536 H         1 UNK         0.0600 
    177 H177        1.9874  -10.9134  -39.9421 H         1 UNK         0.0600 
    178 H178        1.1534  -12.3677  -39.4206 H         1 UNK         0.0600 
    179 H179        1.4561  -10.4735  -42.4233 H         1 UNK         0.3000 
    180 H180       -0.5101   -9.2666  -44.9670 H         1 UNK         0.0600 
    181 H181        0.6218   -7.0619  -44.9164 H         1 UNK         0.0600 
    182 H182        1.0525   -7.2897  -43.2205 H         1 UNK         0.0600 
    183 H183       -0.6337   -7.1159  -43.6915 H         1 UNK         0.0600 
    184 H184        2.2471   -8.9044  -44.6910 H         1 UNK         0.3000 
    185 H185        3.4597  -10.4387  -46.2280 H         1 UNK         0.0600 
    186 H186        3.9991  -11.6271  -43.4326 H         1 UNK         0.0600 
    187 H187        5.2429  -11.1515  -44.5848 H         1 UNK         0.0600 
    188 H188        4.2021   -9.9346  -43.8728 H         1 UNK         0.0600 
    189 H189        2.5335  -13.0875  -45.6051 H         1 UNK         0.3000 
    190 H190       -1.1270  -21.6080  -47.3785 H         1 UNK         0.3000 
    191 H191       -2.1486  -23.0969  -49.5241 H         1 UNK         0.0600 
    192 H192       -3.1284  -20.9692  -48.7371 H         1 UNK         0.0600 
    193 H193       -3.6507  -21.7271  -47.2363 H         1 UNK         0.0600 
    194 H194       -4.3568  -22.2219  -48.7724 H         1 UNK         0.0600 
    195 H195       -2.1189  -23.8943  -46.0559 H         1 UNK         0.3000 
    196 H196       -3.8014  -26.2423  -46.3097 H         1 UNK         0.0600 
    197 H197       -3.5941  -25.0284  -44.1656 H         1 UNK         0.0600 
    198 H198       -1.8700  -25.3773  -44.0943 H         1 UNK         0.0600 
    199 H199       -3.0398  -26.6863  -43.9823 H         1 UNK         0.0600 
    200 H200       -0.2442  -25.7107  -46.0329 H         1 UNK         0.3000 
    201 H201        0.3667  -28.5056  -46.0530 H         1 UNK         0.0600 
    202 H202        1.7358  -26.8369  -44.8522 H         1 UNK         0.0600 
    203 H203        2.1675  -26.0508  -46.3693 H         1 UNK         0.0600 
    204 H204        2.7220  -27.6872  -46.0320 H         1 UNK         0.0600 
    205 H205        0.6159  -25.9740  -48.6021 H         1 UNK         0.3000 
    206 H206        1.7242  -27.9853  -50.5217 H         1 UNK         0.0600 
    207 H207        2.0225  -24.9379  -50.4328 H         1 UNK         0.0600 
    208 H208        3.2223  -26.0843  -49.8376 H         1 UNK         0.0600 
    209 H209        2.8246  -26.0367  -51.5469 H         1 UNK         0.0600 
    210 H210       -1.1641  -26.7512  -49.8020 H         1 UNK         0.3000 
    211 H211       -3.1363  -26.5725  -50.7800 H         1 UNK         0.0600 
    212 H212       -1.9413  -27.0081  -53.5615 H         1 UNK         0.0600 
    213 H213       -3.6252  -27.1229  -53.0919 H         1 UNK         0.0600 
    214 H214       -2.4757  -28.3078  -52.4934 H         1 UNK         0.0600 
    215 H215       -4.4463  -24.9905  -51.9603 H         1 UNK         0.3000 
    216 H216       -3.3959  -22.3530  -51.6129 H         1 UNK         0.0600 
    217 H217       -5.6819  -21.6619  -52.3009 H         1 UNK         0.0600 
    218 H218       -5.7591  -22.9530  -51.1166 H         1 UNK         0.0600 
    219 H219       -6.0498  -23.2989  -52.8238 H         1 UNK         0.0600 
    220 H220       -2.9768  -20.7404  -53.0913 H         1 UNK         0.3000 
    221 H221       -1.9367  -21.5442  -55.6753 H         1 UNK         0.0600 
    222 H222       -2.1022  -18.8161  -54.2804 H         1 UNK         0.0600 
    223 H223       -0.7549  -19.9470  -54.1659 H         1 UNK         0.0600 
    224 H224       -1.1334  -19.1848  -55.7026 H         1 UNK         0.0600 
    225 H225       -5.0405  -20.5282  -54.6666 H         1 UNK         0.3000 
    226 H226       -6.0928  -20.1868  -57.2971 H         1 UNK         0.0600 
    227 H227       -5.1385  -17.8634  -56.9822 H         1 UNK         0.0600 
    228 H228       -6.8889  -17.8164  -56.9654 H         1 UNK         0.0600 
    229 H229       -5.9973  -17.7154  -55.4525 H         1 UNK         0.0600 
    230 H230       -8.5295  -19.3436  -56.8749 H         1 UNK         0.3000 
    231 H231       -9.8832  -21.1839  -55.1989 H         1 UNK         0.0600 
    232 H232      -11.8840  -19.7970  -55.7838 H         1 UNK         0.0600 
    233 H233      -10.9171  -20.1641  -57.2038 H         1 UNK         0.0600 
    234 H234      -10.8374  -18.5613  -56.4718 H         1 UNK         0.0600 
    235 H235       -9.9413  -21.1983  -53.0594 H         1 UNK         0.3000 
    236 H236       -9.7735  -20.7276  -50.9105 H         1 UNK         0.0600 
    237 H237      -11.0016  -17.9913  -51.5427 H         1 UNK         0.0600 
    238 H238      -11.9177  -19.4769  -51.2934 H         1 UNK         0.0600 
    239 H239      -10.9785  -18.7925  -49.9785 H         1 UNK         0.0600 
    240 H240       -7.5683  -19.9454  -52.7895 H         1 UNK         0.3000 
    241 H241       -5.6410  -19.0379  -52.9194 H         1 UNK         0.0600 
    242 H242       -7.3318  -15.6351  -53.1805 H         1 UNK         0.3800 
    243 H243       -8.0721  -17.2158  -53.2064 H         1 UNK         0.3800 
    244 H244       -5.5979  -19.8481  -50.2869 H         1 UNK         0.0800 
    245 H245       -5.2313  -18.1646  -50.0660 H         1 UNK         0.0800 
    246 H246       -2.8002  -18.6772  -49.1236 H         1 UNK         0.0800 
    247 H247       -2.7971  -17.3398  -50.2533 H         1 UNK         0.0800 
@<TRIPOS>BOND
     1    1    2 1    
     2    1  127 1    
     3    1  128 1    
     4    1  129 1    
     5    2    3 2    
     6    2    4 am   BACKBONE|DICT|INTERRES
     7    4    5 1    
     8    4  130 1    
     9    5    6 1    
    10    5   65 1    
    11    5  131 1    
    12    6    7 1    
    13    6  132 1    
    14    6  133 1    
    15    7    8 1    
    16    8    9 1    
    17    8  134 1    
    18    8  135 1    
    19    9   10 ar   
    20    9   14 ar   
    21   10   11 ar   
    22   10  136 1    
    23   11   12 ar   
    24   11  126 1    
    25   12   13 ar   
    26   12  137 1    
    27   13   14 ar   
    28   13   15 1    
    29   14  138 1    
    30   15   16 1    
    31   15  139 1    
    32   15  140 1    
    33   16   17 1    
    34   17   18 1    
    35   17  141 1    
    36   17  142 1    
    37   18   19 1    
    38   18   67 1    
    39   18  143 1    
    40   19   20 am   BACKBONE|DICT|INTERRES
    41   19  144 1    
    42   20   21 2    
    43   20   22 1    
    44   22   23 1    
    45   22   24 1    
    46   22  145 1    
    47   23  146 1    
    48   23  147 1    
    49   23  148 1    
    50   24   25 am   BACKBONE|DICT|INTERRES
    51   24  149 1    
    52   25   26 2    
    53   25   27 1    
    54   27   28 1    
    55   27   29 1    
    56   27  150 1    
    57   28  151 1    
    58   28  152 1    
    59   28  153 1    
    60   29   30 am   BACKBONE|DICT|INTERRES
    61   29  154 1    
    62   30   31 2    
    63   30   32 1    
    64   32   33 1    
    65   32   34 1    
    66   32  155 1    
    67   33  156 1    
    68   33  157 1    
    69   33  158 1    
    70   34   35 am   BACKBONE|DICT|INTERRES
    71   34  159 1    
    72   35   36 2    
    73   35   37 1    
    74   37   38 1    
    75   37   39 1    
    76   37  160 1    
    77   38  161 1    
    78   38  162 1    
    79   38  163 1    
    80   39   40 am   BACKBONE|DICT|INTERRES
    81   39  164 1    
    82   40   41 2    
    83   40   42 1    
    84   42   43 1    
    85   42   44 1    
    86   42  165 1    
    87   43  166 1    
    88   43  167 1    
    89   43  168 1    
    90   44   45 am   BACKBONE|DICT|INTERRES
    91   44  169 1    
    92   45   46 2    
    93   45   47 1    
    94   47   48 1    
    95   47   49 1    
    96   47  170 1    
    97   48  171 1    
    98   48  172 1    
    99   48  173 1    
   100   49   50 am   BACKBONE|DICT|INTERRES
   101   49  174 1    
   102   50   51 2    
   103   50   52 1    
   104   52   53 1    
   105   52   54 1    
   106   52  175 1    
   107   53  176 1    
   108   53  177 1    
   109   53  178 1    
   110   54   55 am   BACKBONE|DICT|INTERRES
   111   54  179 1    
   112   55   56 2    
   113   55   57 1    
   114   57   58 1    
   115   57   59 1    
   116   57  180 1    
   117   58  181 1    
   118   58  182 1    
   119   58  183 1    
   120   59   60 am   BACKBONE|DICT|INTERRES
   121   59  184 1    
   122   60   61 2    
   123   60   62 1    
   124   62   63 1    
   125   62   64 1    
   126   62  185 1    
   127   63  186 1    
   128   63  187 1    
   129   63  188 1    
   130   64   65 am   BACKBONE|DICT|INTERRES
   131   64  189 1    
   132   65   66 2    
   133   67   68 2    
   134   67   69 am   BACKBONE|DICT|INTERRES
   135   69   70 1    
   136   69  190 1    
   137   70   71 1    
   138   70   72 1    
   139   70  191 1    
   140   71  192 1    
   141   71  193 1    
   142   71  194 1    
   143   72   73 2    
   144   72   74 am   BACKBONE|DICT|INTERRES
   145   74   75 1    
   146   74  195 1    
   147   75   76 1    
   148   75   77 1    
   149   75  196 1    
   150   76  197 1    
   151   76  198 1    
   152   76  199 1    
   153   77   78 2    
   154   77   79 am   BACKBONE|DICT|INTERRES
   155   79   80 1    
   156   79  200 1    
   157   80   81 1    
   158   80   82 1    
   159   80  201 1    
   160   81  202 1    
   161   81  203 1    
   162   81  204 1    
   163   82   83 2    
   164   82   84 am   BACKBONE|DICT|INTERRES
   165   84   85 1    
   166   84  205 1    
   167   85   86 1    
   168   85   87 1    
   169   85  206 1    
   170   86  207 1    
   171   86  208 1    
   172   86  209 1    
   173   87   88 2    
   174   87   89 am   BACKBONE|DICT|INTERRES
   175   89   90 1    
   176   89  210 1    
   177   90   91 1    
   178   90   92 1    
   179   90  211 1    
   180   91  212 1    
   181   91  213 1    
   182   91  214 1    
   183   92   93 2    
   184   92   94 am   BACKBONE|DICT|INTERRES
   185   94   95 1    
   186   94  215 1    
   187   95   96 1    
   188   95   97 1    
   189   95  216 1    
   190   96  217 1    
   191   96  218 1    
   192   96  219 1    
   193   97   98 2    
   194   97   99 am   BACKBONE|DICT|INTERRES
   195   99  100 1    
   196   99  220 1    
   197  100  101 1    
   198  100  102 1    
   199  100  221 1    
   200  101  222 1    
   201  101  223 1    
   202  101  224 1    
   203  102  103 2    
   204  102  104 am   BACKBONE|DICT|INTERRES
   205  104  105 1    
   206  104  225 1    
   207  105  106 1    
   208  105  107 1    
   209  105  226 1    
   210  106  227 1    
   211  106  228 1    
   212  106  229 1    
   213  107  108 2    
   214  107  109 am   BACKBONE|DICT|INTERRES
   215  109  110 1    
   216  109  230 1    
   217  110  111 1    
   218  110  112 1    
   219  110  231 1    
   220  111  232 1    
   221  111  233 1    
   222  111  234 1    
   223  112  113 2    
   224  112  114 am   BACKBONE|DICT|INTERRES
   225  114  115 1    
   226  114  235 1    
   227  115  116 1    
   228  115  117 1    
   229  115  236 1    
   230  116  237 1    
   231  116  238 1    
   232  116  239 1    
   233  117  118 2    
   234  117  119 am   BACKBONE|DICT|INTERRES
   235  119  120 1    
   236  119  240 1    
   237  120  121 1    
   238  120  124 1    
   239  120  241 1    
   240  121  122 am   BACKBONE|DICT|INTERRES
   241  121  123 2    
   242  122  242 1    
   243  122  243 1    
   244  124  125 1    
   245  124  244 1    
   246  124  245 1    
   247  125  126 1    
   248  126  246 1    
   249  126  247 1    
@<TRIPOS>SUBSTRUCTURE
     1 UNK         1 GROUP             0       ****    0 ROOT    
