@<TRIPOS>MOLECULE
3R540
247   249    1
SMALL
USER_CHARGES


@<TRIPOS>ATOM
      1 CA          0.9832  -11.2535  -45.8229 C.3       0 UNK        -0.1800 
      2 C           2.3699  -11.5507  -46.3741 C.2       0 UNK         0.5000 
      3 O           3.3647  -11.0865  -45.8177 O.2       0 UNK        -0.5000 
      4 N           2.4448  -12.3360  -47.4569 N.am      1 UNK        -0.5000 
      5 CA          3.6822  -12.6973  -48.1654 C.3       1 UNK         0.1400 
      6 C6          3.3855  -13.3416  -49.5412 C.3       23 UNK        -0.0398 
      7 S7          2.3948  -14.8776  -49.4575 S.3       23 UNK        -0.2404 
      8 C8          3.4565  -16.0058  -50.4111 C.3       23 UNK        -0.0205 
      9 C9          2.7904  -17.3555  -50.6233 C.ar      23 UNK        -0.0193 
     10 C10         1.7737  -17.4917  -51.5727 C.ar      23 UNK        -0.1150 
     11 C11         1.1626  -18.7297  -51.7875 C.ar      23 UNK        -0.0193 
     12 C12         1.5724  -19.8361  -51.0387 C.ar      23 UNK        -0.1150 
     13 C13         2.6000  -19.7198  -50.0969 C.ar      23 UNK        -0.0193 
     14 C14         3.2062  -18.4742  -49.8958 C.ar      23 UNK        -0.1150 
     15 C15         3.0753  -20.9603  -49.3467 C.3       23 UNK        -0.0205 
     16 S16         3.3610  -20.7110  -47.5611 S.3       23 UNK        -0.2404 
     17 C17         1.7710  -20.0380  -46.9757 C.3       23 UNK        -0.0398 
     18 CA          0.7081  -21.1308  -46.6873 C.3       11 UNK         0.1400 
     19 N          -0.0880  -20.8323  -45.4931 N.am      11 UNK        -0.5000 
     20 C          -0.9941  -21.6527  -44.9420 C.2       10 UNK         0.5000 
     21 O          -1.2200  -22.7930  -45.3455 O.2       10 UNK        -0.5000 
     22 CA         -1.8283  -21.0850  -43.7784 C.3       10 UNK         0.1400 
     23 CB         -1.0618  -21.1767  -42.4507 C.3       10 UNK        -0.1800 
     24 N          -2.2509  -19.7036  -44.0170 N.am      10 UNK        -0.5000 
     25 C          -3.0824  -19.3333  -45.0021 C.2       9 UNK         0.5000 
     26 O          -3.6287  -20.1283  -45.7665 O.2       9 UNK        -0.5000 
     27 CA         -3.3058  -17.8233  -45.2006 C.3       9 UNK         0.1400 
     28 CB         -4.3462  -17.2897  -44.2052 C.3       9 UNK        -0.1800 
     29 N          -2.0692  -17.0487  -45.0879 N.am      9 UNK        -0.5000 
     30 C          -1.0157  -17.1722  -45.9084 C.2       8 UNK         0.5000 
     31 O          -0.9920  -17.9212  -46.8835 O.2       8 UNK        -0.5000 
     32 CA          0.2487  -16.3761  -45.5427 C.3       8 UNK         0.1400 
     33 CB          0.1423  -14.9164  -46.0048 C.3       8 UNK        -0.1800 
     34 N           0.5374  -16.4190  -44.1095 N.am      8 UNK        -0.5000 
     35 C           0.8442  -17.5345  -43.4317 C.2       7 UNK         0.5000 
     36 O           0.9369  -18.6450  -43.9499 O.2       7 UNK        -0.5000 
     37 CA          1.0316  -17.3963  -41.9133 C.3       7 UNK         0.1400 
     38 CB          2.4301  -16.8590  -41.5752 C.3       7 UNK        -0.1800 
     39 N           0.0081  -16.5387  -41.3193 N.am      7 UNK        -0.5000 
     40 C          -1.2914  -16.8611  -41.2436 C.2       6 UNK         0.5000 
     41 O          -1.7550  -17.9362  -41.6244 O.2       6 UNK        -0.5000 
     42 CA         -2.2342  -15.7776  -40.6915 C.3       6 UNK         0.1400 
     43 CB         -2.2442  -15.7967  -39.1558 C.3       6 UNK        -0.1800 
     44 N          -1.8759  -14.4376  -41.1599 N.am      6 UNK        -0.5000 
     45 C          -1.9646  -14.0356  -42.4357 C.2       5 UNK         0.5000 
     46 O          -2.3834  -14.7446  -43.3496 O.2       5 UNK        -0.5000 
     47 CA         -1.4514  -12.6198  -42.7483 C.3       5 UNK         0.1400 
     48 CB         -2.5377  -11.5719  -42.4658 C.3       5 UNK        -0.1800 
     49 N          -0.2343  -12.2762  -42.0075 N.am      5 UNK        -0.5000 
     50 C           0.9475  -12.8791  -42.1834 C.2       4 UNK         0.5000 
     51 O           1.1291  -13.8206  -42.9607 O.2       4 UNK        -0.5000 
     52 CA          2.1238  -12.3494  -41.3583 C.3       4 UNK         0.1400 
     53 CB          2.3116  -13.1623  -40.0660 C.3       4 UNK        -0.1800 
     54 N           3.3118  -12.4300  -42.1967 N.am      4 UNK        -0.5000 
     55 C           4.4277  -11.7079  -42.0572 C.2       3 UNK         0.5000 
     56 O           4.6243  -10.9438  -41.1107 O.2       3 UNK        -0.5000 
     57 CA          5.4776  -11.8053  -43.1840 C.3       3 UNK         0.1400 
     58 CB          6.9219  -11.9031  -42.6491 C.3       3 UNK        -0.1800 
     59 N           5.1852  -12.8347  -44.1914 N.am      3 UNK        -0.5000 
     60 C           5.3343  -14.1661  -44.1006 C.2       2 UNK         0.5000 
     61 O           5.7718  -14.7359  -43.1013 O.2       2 UNK        -0.5000 
     62 CA          4.8998  -15.0132  -45.3197 C.3       2 UNK         0.1400 
     63 CB          4.0404  -16.2104  -44.8880 C.3       2 UNK        -0.1800 
     64 N           4.1413  -14.2406  -46.3051 N.am      2 UNK        -0.5000 
     65 C           4.6636  -13.5485  -47.3259 C.2       1 UNK         0.5000 
     66 O           5.8651  -13.5318  -47.5943 O.2       1 UNK        -0.5000 
     67 C          -0.1912  -21.3735  -47.9160 C.2       11 UNK         0.5000 
     68 O          -0.0335  -22.3881  -48.5940 O.2       11 UNK        -0.5000 
     69 N          -1.1498  -20.4643  -48.1443 N.am      12 UNK        -0.5000 
     70 CA         -2.1491  -20.5482  -49.2076 C.3       12 UNK         0.1400 
     71 CB         -3.0213  -19.2827  -49.1983 C.3       12 UNK        -0.1800 
     72 C          -3.0264  -21.8057  -49.1012 C.2       12 UNK         0.5000 
     73 O          -3.2709  -22.4505  -50.1160 O.2       12 UNK        -0.5000 
     74 N          -3.4670  -22.1386  -47.8796 N.am      13 UNK        -0.5000 
     75 CA         -4.2578  -23.3325  -47.5834 C.3       13 UNK         0.1400 
     76 CB         -4.8070  -23.2400  -46.1524 C.3       13 UNK        -0.1800 
     77 C          -3.4820  -24.6465  -47.7895 C.2       13 UNK         0.5000 
     78 O          -4.0732  -25.6285  -48.2388 O.2       13 UNK        -0.5000 
     79 N          -2.1846  -24.6462  -47.4537 N.am      14 UNK        -0.5000 
     80 CA         -1.2801  -25.7785  -47.6516 C.3       14 UNK         0.1400 
     81 CB         -0.0063  -25.5656  -46.8189 C.3       14 UNK        -0.1800 
     82 C          -0.9307  -26.0062  -49.1341 C.2       14 UNK         0.5000 
     83 O          -0.8293  -27.1565  -49.5639 O.2       14 UNK        -0.5000 
     84 N          -0.7462  -24.9124  -49.8834 N.am      15 UNK        -0.5000 
     85 CA         -0.4787  -24.9130  -51.3194 C.3       15 UNK         0.1400 
     86 CB         -0.0443  -23.5016  -51.7434 C.3       15 UNK        -0.1800 
     87 C          -1.6934  -25.3776  -52.1457 C.2       15 UNK         0.5000 
     88 O          -2.8378  -25.1571  -51.7457 O.2       15 UNK        -0.5000 
     89 N          -1.4072  -25.9915  -53.3029 N.am      16 UNK        -0.5000 
     90 CA         -2.3325  -26.4955  -54.3263 C.3       16 UNK         0.1400 
     91 CB         -3.1233  -25.3414  -54.9765 C.3       16 UNK        -0.1800 
     92 C          -3.2666  -27.6211  -53.8377 C.2       16 UNK         0.5000 
     93 O          -3.1366  -28.7570  -54.2952 O.2       16 UNK        -0.5000 
     94 N          -4.1789  -27.2788  -52.9240 N.am      17 UNK        -0.5000 
     95 CA         -5.1942  -28.1317  -52.3059 C.3       17 UNK         0.1400 
     96 CB         -6.1564  -28.7243  -53.3569 C.3       17 UNK        -0.1800 
     97 C          -5.9975  -27.3331  -51.2662 C.2       17 UNK         0.5000 
     98 O          -6.4097  -27.9004  -50.2538 O.2       17 UNK        -0.5000 
     99 N          -6.2129  -26.0401  -51.5365 N.am      18 UNK        -0.5000 
    100 CA        -6.9341  -25.0907  -50.6982 C.3       18 UNK         0.1400 
    101 CB        -8.4531  -25.3012  -50.8511 C.3       18 UNK        -0.1800 
    102 C         -6.5289  -23.6692  -51.1152 C.2       18 UNK         0.5000 
    103 O         -5.9391  -23.4896  -52.1826 O.2       18 UNK        -0.5000 
    104 N         -6.8890  -22.6837  -50.2819 N.am      19 UNK        -0.5000 
    105 CA        -6.5220  -21.2710  -50.4326 C.3       19 UNK         0.1400 
    106 CB        -6.7820  -20.5444  -49.1028 C.3       19 UNK        -0.1800 
    107 C         -7.1963  -20.5333  -51.6059 C.2       19 UNK         0.5000 
    108 O         -6.8130  -19.3968  -51.8893 O.2       19 UNK        -0.5000 
    109 N         -8.1683  -21.1726  -52.2726 N.am      20 UNK        -0.5000 
    110 CA        -8.8332  -20.6925  -53.4851 C.3       20 UNK         0.1400 
    111 CB        -9.8708  -21.7338  -53.9334 C.3       20 UNK        -0.1800 
    112 C         -7.8136  -20.4030  -54.6041 C.2       20 UNK         0.5000 
    113 O         -7.1459  -21.3265  -55.0753 O.2       20 UNK        -0.5000 
    114 N         -7.6608  -19.1139  -54.9412 N.am      21 UNK        -0.5000 
    115 CA        -6.6656  -18.5521  -55.8661 C.3       21 UNK         0.1400 
    116 CB        -6.9728  -18.9831  -57.3156 C.3       21 UNK        -0.1800 
    117 C         -5.2004  -18.8413  -55.4583 C.2       21 UNK         0.5000 
    118 O         -4.3176  -18.8553  -56.3178 O.2       21 UNK        -0.5000 
    119 N         -4.9688  -19.0731  -54.1575 N.am      22 UNK        -0.5000 
    120 CA        -3.6976  -19.5269  -53.5695 C.3       22 UNK         0.1400 
    121 C         -3.2928  -20.9844  -53.9610 C.2       22 UNK         0.5000 
    122 N         -4.1992  -21.8102  -54.4715 N.am      22 UNK        -0.7600 
    123 O         -2.1451  -21.3842  -53.7942 O.2       22 UNK        -0.5000 
    124 C124       -2.5531  -18.4856  -53.7554 C.3       23 UNK        -0.0398 
    125 S125       -1.5237  -18.2792  -52.2625 S.3       23 UNK        -0.2404 
    126 C126        0.0874  -18.8755  -52.8534 C.3       23 UNK        -0.0205 
    127 H127        0.2103  -11.8281  -46.3337 H         1 UNK         0.0600 
    128 H128        0.7542  -10.1943  -45.9381 H         1 UNK         0.0600 
    129 H129        0.9425  -11.4965  -44.7627 H         1 UNK         0.0600 
    130 H130        1.5957  -12.6976  -47.8682 H         1 UNK         0.3000 
    131 H131        4.2046  -11.7590  -48.3648 H         1 UNK         0.0600 
    132 H132        4.3191  -13.5263  -50.0755 H         1 UNK         0.0800 
    133 H133        2.8377  -12.6307  -50.1613 H         1 UNK         0.0800 
    134 H134        3.6809  -15.5612  -51.3820 H         1 UNK         0.0800 
    135 H135        4.4107  -16.1243  -49.8950 H         1 UNK         0.0800 
    136 H136        1.4579  -16.6316  -52.1466 H         1 UNK         0.1150 
    137 H137        1.1020  -20.7944  -51.2060 H         1 UNK         0.1150 
    138 H138        4.0066  -18.3770  -49.1759 H         1 UNK         0.1150 
    139 H139        2.3725  -21.7834  -49.4765 H         1 UNK         0.0800 
    140 H140        4.0102  -21.2931  -49.7989 H         1 UNK         0.0800 
    141 H141        1.4051  -19.2639  -47.6528 H         1 UNK         0.0800 
    142 H142        2.0186  -19.5076  -46.0578 H         1 UNK         0.0800 
    143 H143        1.2225  -22.0700  -46.4721 H         1 UNK         0.0600 
    144 H144        0.0754  -19.9303  -45.0538 H         1 UNK         0.3000 
    145 H145       -2.7284  -21.6965  -43.6887 H         1 UNK         0.0600 
    146 H146       -1.6770  -20.8373  -41.6172 H         1 UNK         0.0600 
    147 H147       -0.7683  -22.2059  -42.2411 H         1 UNK         0.0600 
    148 H148       -0.1547  -20.5731  -42.4628 H         1 UNK         0.0600 
    149 H149       -1.8745  -18.9953  -43.3960 H         1 UNK         0.3000 
    150 H150       -3.6970  -17.6769  -46.2094 H         1 UNK         0.0600 
    151 H151       -5.2819  -17.8448  -44.2827 H         1 UNK         0.0600 
    152 H152       -4.5730  -16.2410  -44.3976 H         1 UNK         0.0600 
    153 H153       -3.9984  -17.3725  -43.1752 H         1 UNK         0.0600 
    154 H154       -2.0275  -16.3661  -44.3363 H         1 UNK         0.3000 
    155 H155        1.0910  -16.8341  -46.0655 H         1 UNK         0.0600 
    156 H156       -0.6926  -14.4017  -45.5291 H         1 UNK         0.0600 
    157 H157       -0.0051  -14.8591  -47.0839 H         1 UNK         0.0600 
    158 H158        1.0513  -14.3659  -45.7677 H         1 UNK         0.0600 
    159 H159        0.5253  -15.5317  -43.6150 H         1 UNK         0.3000 
    160 H160        0.9372  -18.3914  -41.4732 H         1 UNK         0.0600 
    161 H161        2.5963  -15.8648  -41.9891 H         1 UNK         0.0600 
    162 H162        3.2045  -17.5123  -41.9790 H         1 UNK         0.0600 
    163 H163        2.5821  -16.8047  -40.4972 H         1 UNK         0.0600 
    164 H164        0.2978  -15.6202  -41.0208 H         1 UNK         0.3000 
    165 H165       -3.2433  -16.0030  -41.0432 H         1 UNK         0.0600 
    166 H166       -2.9652  -15.0826  -38.7576 H         1 UNK         0.0600 
    167 H167       -2.5233  -16.7822  -38.7803 H         1 UNK         0.0600 
    168 H168       -1.2652  -15.5526  -38.7414 H         1 UNK         0.0600 
    169 H169       -1.5195  -13.7902  -40.4726 H         1 UNK         0.3000 
    170 H170       -1.2174  -12.5843  -43.8144 H         1 UNK         0.0600 
    171 H171       -3.4504  -11.7974  -43.0193 H         1 UNK         0.0600 
    172 H172       -2.7968  -11.5329  -41.4071 H         1 UNK         0.0600 
    173 H173       -2.2132  -10.5765  -42.7696 H         1 UNK         0.0600 
    174 H174       -0.3064  -11.5118  -41.3513 H         1 UNK         0.3000 
    175 H175        1.9334  -11.3037  -41.1075 H         1 UNK         0.0600 
    176 H176        1.4064  -13.1481  -39.4579 H         1 UNK         0.0600 
    177 H177        2.5532  -14.2038  -40.2750 H         1 UNK         0.0600 
    178 H178        3.1167  -12.7523  -39.4562 H         1 UNK         0.0600 
    179 H179        3.2073  -13.0244  -43.0082 H         1 UNK         0.3000 
    180 H180        5.4050  -10.8594  -43.7226 H         1 UNK         0.0600 
    181 H181        7.0579  -12.7633  -41.9936 H         1 UNK         0.0600 
    182 H182        7.1828  -11.0156  -42.0715 H         1 UNK         0.0600 
    183 H183        7.6417  -11.9810  -43.4639 H         1 UNK         0.0600 
    184 H184        4.7659  -12.4683  -45.0387 H         1 UNK         0.3000 
    185 H185        5.8087  -15.4009  -45.7841 H         1 UNK         0.0600 
    186 H186        4.5895  -16.8745  -44.2197 H         1 UNK         0.0600 
    187 H187        3.1510  -15.8733  -44.3598 H         1 UNK         0.0600 
    188 H188        3.7217  -16.8044  -45.7450 H         1 UNK         0.0600 
    189 H189        3.1438  -14.1868  -46.1643 H         1 UNK         0.3000 
    190 H190       -1.1845  -19.6318  -47.5596 H         1 UNK         0.3000 
    191 H191       -1.6135  -20.5913  -50.1583 H         1 UNK         0.0600 
    192 H192       -3.5909  -19.1887  -48.2744 H         1 UNK         0.0600 
    193 H193       -3.7353  -19.2951  -50.0222 H         1 UNK         0.0600 
    194 H194       -2.4136  -18.3843  -49.3074 H         1 UNK         0.0600 
    195 H195       -3.2707  -21.5159  -47.1010 H         1 UNK         0.3000 
    196 H196       -5.1066  -23.3470  -48.2675 H         1 UNK         0.0600 
    197 H197       -5.4207  -24.1089  -45.9119 H         1 UNK         0.0600 
    198 H198       -5.4312  -22.3552  -46.0262 H         1 UNK         0.0600 
    199 H199       -4.0038  -23.1902  -45.4167 H         1 UNK         0.0600 
    200 H200       -1.7881  -23.8138  -47.0299 H         1 UNK         0.3000 
    201 H201       -1.7759  -26.6796  -47.2845 H         1 UNK         0.0600 
    202 H202       -0.2397  -25.4801  -45.7575 H         1 UNK         0.0600 
    203 H203        0.5242  -24.6608  -47.1174 H         1 UNK         0.0600 
    204 H204        0.6815  -26.4041  -46.9350 H         1 UNK         0.0600 
    205 H205       -0.8210  -24.0019  -49.4409 H         1 UNK         0.3000 
    206 H206        0.3505  -25.5989  -51.5044 H         1 UNK         0.0600 
    207 H207        0.8596  -23.1957  -51.2169 H         1 UNK         0.0600 
    208 H208        0.1688  -23.4567  -52.8120 H         1 UNK         0.0600 
    209 H209       -0.8212  -22.7646  -51.5347 H         1 UNK         0.0600 
    210 H210       -0.4313  -26.1409  -53.5185 H         1 UNK         0.3000 
    211 H211       -1.7034  -26.9302  -55.1048 H         1 UNK         0.0600 
    212 H212       -3.7685  -24.8303  -54.2616 H         1 UNK         0.0600 
    213 H213       -3.7589  -25.7112  -55.7820 H         1 UNK         0.0600 
    214 H214       -2.4504  -24.5998  -55.4073 H         1 UNK         0.0600 
    215 H215       -4.0587  -26.3594  -52.5017 H         1 UNK         0.3000 
    216 H216       -4.6854  -28.9450  -51.7851 H         1 UNK         0.0600 
    217 H217       -6.6055  -27.9444  -53.9729 H         1 UNK         0.0600 
    218 H218       -6.9691  -29.2719  -52.8776 H         1 UNK         0.0600 
    219 H219       -5.6522  -29.4268  -54.0194 H         1 UNK         0.0600 
    220 H220       -5.8254  -25.6200  -52.3723 H         1 UNK         0.3000 
    221 H221       -6.6397  -25.2392  -49.6571 H         1 UNK         0.0600 
    222 H222       -8.7484  -26.3049  -50.5452 H         1 UNK         0.0600 
    223 H223       -8.7743  -25.1595  -51.8838 H         1 UNK         0.0600 
    224 H224       -9.0149  -24.6008  -50.2323 H         1 UNK         0.0600 
    225 H225       -7.4158  -22.9163  -49.4526 H         1 UNK         0.3000 
    226 H226       -5.4534  -21.2242  -50.6382 H         1 UNK         0.0600 
    227 H227       -6.2160  -20.9941  -48.2871 H         1 UNK         0.0600 
    228 H228       -6.4794  -19.4979  -49.1605 H         1 UNK         0.0600 
    229 H229       -7.8384  -20.5665  -48.8330 H         1 UNK         0.0600 
    230 H230       -8.3867  -22.1144  -51.9861 H         1 UNK         0.3000 
    231 H231       -9.3616  -19.7705  -53.2343 H         1 UNK         0.0600 
    232 H232       -9.4070  -22.6966  -54.1525 H         1 UNK         0.0600 
    233 H233      -10.3875  -21.4052  -54.8360 H         1 UNK         0.0600 
    234 H234      -10.6279  -21.8932  -53.1654 H         1 UNK         0.0600 
    235 H235       -8.2279  -18.4300  -54.4590 H         1 UNK         0.3000 
    236 H236       -6.7806  -17.4686  -55.8143 H         1 UNK         0.0600 
    237 H237       -6.3363  -18.4545  -58.0260 H         1 UNK         0.0600 
    238 H238       -6.8097  -20.0511  -57.4633 H         1 UNK         0.0600 
    239 H239       -8.0061  -18.7614  -57.5825 H         1 UNK         0.0600 
    240 H240       -5.7533  -19.0484  -53.5128 H         1 UNK         0.3000 
    241 H241       -3.9192  -19.5921  -52.5041 H         1 UNK         0.0600 
    242 H242       -3.9260  -22.7539  -54.6848 H         1 UNK         0.3800 
    243 H243       -5.1634  -21.5278  -54.6078 H         1 UNK         0.3800 
    244 H244       -2.9710  -17.5000  -53.9644 H         1 UNK         0.0800 
    245 H245       -1.9367  -18.7247  -54.6236 H         1 UNK         0.0800 
    246 H246       -0.0022  -19.9182  -53.1611 H         1 UNK         0.0800 
    247 H247        0.3790  -18.3142  -53.7423 H         1 UNK         0.0800 
@<TRIPOS>BOND
     1    1    2 1    
     2    1  127 1    
     3    1  128 1    
     4    1  129 1    
     5    2    3 2    
     6    2    4 am   BACKBONE|DICT|INTERRES
     7    4    5 1    
     8    4  130 1    
     9    5    6 1    
    10    5   65 1    
    11    5  131 1    
    12    6    7 1    
    13    6  132 1    
    14    6  133 1    
    15    7    8 1    
    16    8    9 1    
    17    8  134 1    
    18    8  135 1    
    19    9   10 ar   
    20    9   14 ar   
    21   10   11 ar   
    22   10  136 1    
    23   11   12 ar   
    24   11  126 1    
    25   12   13 ar   
    26   12  137 1    
    27   13   14 ar   
    28   13   15 1    
    29   14  138 1    
    30   15   16 1    
    31   15  139 1    
    32   15  140 1    
    33   16   17 1    
    34   17   18 1    
    35   17  141 1    
    36   17  142 1    
    37   18   19 1    
    38   18   67 1    
    39   18  143 1    
    40   19   20 am   BACKBONE|DICT|INTERRES
    41   19  144 1    
    42   20   21 2    
    43   20   22 1    
    44   22   23 1    
    45   22   24 1    
    46   22  145 1    
    47   23  146 1    
    48   23  147 1    
    49   23  148 1    
    50   24   25 am   BACKBONE|DICT|INTERRES
    51   24  149 1    
    52   25   26 2    
    53   25   27 1    
    54   27   28 1    
    55   27   29 1    
    56   27  150 1    
    57   28  151 1    
    58   28  152 1    
    59   28  153 1    
    60   29   30 am   BACKBONE|DICT|INTERRES
    61   29  154 1    
    62   30   31 2    
    63   30   32 1    
    64   32   33 1    
    65   32   34 1    
    66   32  155 1    
    67   33  156 1    
    68   33  157 1    
    69   33  158 1    
    70   34   35 am   BACKBONE|DICT|INTERRES
    71   34  159 1    
    72   35   36 2    
    73   35   37 1    
    74   37   38 1    
    75   37   39 1    
    76   37  160 1    
    77   38  161 1    
    78   38  162 1    
    79   38  163 1    
    80   39   40 am   BACKBONE|DICT|INTERRES
    81   39  164 1    
    82   40   41 2    
    83   40   42 1    
    84   42   43 1    
    85   42   44 1    
    86   42  165 1    
    87   43  166 1    
    88   43  167 1    
    89   43  168 1    
    90   44   45 am   BACKBONE|DICT|INTERRES
    91   44  169 1    
    92   45   46 2    
    93   45   47 1    
    94   47   48 1    
    95   47   49 1    
    96   47  170 1    
    97   48  171 1    
    98   48  172 1    
    99   48  173 1    
   100   49   50 am   BACKBONE|DICT|INTERRES
   101   49  174 1    
   102   50   51 2    
   103   50   52 1    
   104   52   53 1    
   105   52   54 1    
   106   52  175 1    
   107   53  176 1    
   108   53  177 1    
   109   53  178 1    
   110   54   55 am   BACKBONE|DICT|INTERRES
   111   54  179 1    
   112   55   56 2    
   113   55   57 1    
   114   57   58 1    
   115   57   59 1    
   116   57  180 1    
   117   58  181 1    
   118   58  182 1    
   119   58  183 1    
   120   59   60 am   BACKBONE|DICT|INTERRES
   121   59  184 1    
   122   60   61 2    
   123   60   62 1    
   124   62   63 1    
   125   62   64 1    
   126   62  185 1    
   127   63  186 1    
   128   63  187 1    
   129   63  188 1    
   130   64   65 am   BACKBONE|DICT|INTERRES
   131   64  189 1    
   132   65   66 2    
   133   67   68 2    
   134   67   69 am   BACKBONE|DICT|INTERRES
   135   69   70 1    
   136   69  190 1    
   137   70   71 1    
   138   70   72 1    
   139   70  191 1    
   140   71  192 1    
   141   71  193 1    
   142   71  194 1    
   143   72   73 2    
   144   72   74 am   BACKBONE|DICT|INTERRES
   145   74   75 1    
   146   74  195 1    
   147   75   76 1    
   148   75   77 1    
   149   75  196 1    
   150   76  197 1    
   151   76  198 1    
   152   76  199 1    
   153   77   78 2    
   154   77   79 am   BACKBONE|DICT|INTERRES
   155   79   80 1    
   156   79  200 1    
   157   80   81 1    
   158   80   82 1    
   159   80  201 1    
   160   81  202 1    
   161   81  203 1    
   162   81  204 1    
   163   82   83 2    
   164   82   84 am   BACKBONE|DICT|INTERRES
   165   84   85 1    
   166   84  205 1    
   167   85   86 1    
   168   85   87 1    
   169   85  206 1    
   170   86  207 1    
   171   86  208 1    
   172   86  209 1    
   173   87   88 2    
   174   87   89 am   BACKBONE|DICT|INTERRES
   175   89   90 1    
   176   89  210 1    
   177   90   91 1    
   178   90   92 1    
   179   90  211 1    
   180   91  212 1    
   181   91  213 1    
   182   91  214 1    
   183   92   93 2    
   184   92   94 am   BACKBONE|DICT|INTERRES
   185   94   95 1    
   186   94  215 1    
   187   95   96 1    
   188   95   97 1    
   189   95  216 1    
   190   96  217 1    
   191   96  218 1    
   192   96  219 1    
   193   97   98 2    
   194   97   99 am   BACKBONE|DICT|INTERRES
   195   99  100 1    
   196   99  220 1    
   197  100  101 1    
   198  100  102 1    
   199  100  221 1    
   200  101  222 1    
   201  101  223 1    
   202  101  224 1    
   203  102  103 2    
   204  102  104 am   BACKBONE|DICT|INTERRES
   205  104  105 1    
   206  104  225 1    
   207  105  106 1    
   208  105  107 1    
   209  105  226 1    
   210  106  227 1    
   211  106  228 1    
   212  106  229 1    
   213  107  108 2    
   214  107  109 am   BACKBONE|DICT|INTERRES
   215  109  110 1    
   216  109  230 1    
   217  110  111 1    
   218  110  112 1    
   219  110  231 1    
   220  111  232 1    
   221  111  233 1    
   222  111  234 1    
   223  112  113 2    
   224  112  114 am   BACKBONE|DICT|INTERRES
   225  114  115 1    
   226  114  235 1    
   227  115  116 1    
   228  115  117 1    
   229  115  236 1    
   230  116  237 1    
   231  116  238 1    
   232  116  239 1    
   233  117  118 2    
   234  117  119 am   BACKBONE|DICT|INTERRES
   235  119  120 1    
   236  119  240 1    
   237  120  121 1    
   238  120  124 1    
   239  120  241 1    
   240  121  122 am   BACKBONE|DICT|INTERRES
   241  121  123 2    
   242  122  242 1    
   243  122  243 1    
   244  124  125 1    
   245  124  244 1    
   246  124  245 1    
   247  125  126 1    
   248  126  246 1    
   249  126  247 1    
@<TRIPOS>SUBSTRUCTURE
     1 UNK         1 GROUP             0       ****    0 ROOT    
