@<TRIPOS>MOLECULE
3R540
247   249    1
SMALL
USER_CHARGES


@<TRIPOS>ATOM
      1 CA          6.3374   -9.8166  -49.6175 C.3       0 UNK        -0.1800 
      2 C           5.4164  -10.9704  -49.2500 C.2       0 UNK         0.5000 
      3 O           4.2020  -10.7823  -49.1704 O.2       0 UNK        -0.5000 
      4 N           5.9870  -12.1594  -49.0061 N.am      1 UNK        -0.5000 
      5 CA          5.2759  -13.4024  -48.6695 C.3       1 UNK         0.1400 
      6 C6          4.4271  -13.9173  -49.8640 C.3       23 UNK        -0.0398 
      7 S7          4.1416  -15.7155  -49.7993 S.3       23 UNK        -0.2404 
      8 C8          2.5956  -15.8793  -50.7442 C.3       23 UNK        -0.0205 
      9 C9          1.7015  -16.9548  -50.1496 C.ar      23 UNK        -0.0193 
     10 C10         0.5573  -16.6003  -49.4290 C.ar      23 UNK        -0.1150 
     11 C11        -0.2802  -17.5842  -48.8966 C.ar      23 UNK        -0.0193 
     12 C12         0.0367  -18.9305  -49.0896 C.ar      23 UNK        -0.1150 
     13 C13         1.1912  -19.2996  -49.7866 C.ar      23 UNK        -0.0193 
     14 C14         2.0145  -18.3062  -50.3232 C.ar      23 UNK        -0.1150 
     15 C15         1.5412  -20.7686  -49.9746 C.3       23 UNK        -0.0205 
     16 S16         2.7057  -21.3945  -48.7104 S.3       23 UNK        -0.2404 
     17 C17         1.7536  -21.2750  -47.1514 C.3       23 UNK        -0.0398 
     18 CA          0.9815  -22.5516  -46.7330 C.3       11 UNK         0.1400 
     19 N           0.3365  -22.3685  -45.4276 N.am      11 UNK        -0.5000 
     20 C          -0.3043  -23.3319  -44.7470 C.2       10 UNK         0.5000 
     21 O          -0.3248  -24.5120  -45.0930 O.2       10 UNK        -0.5000 
     22 CA         -1.1241  -22.8990  -43.5168 C.3       10 UNK         0.1400 
     23 CB         -0.3101  -23.0477  -42.2256 C.3       10 UNK        -0.1800 
     24 N          -1.6562  -21.5367  -43.6319 N.am      10 UNK        -0.5000 
     25 C          -2.5991  -21.1903  -44.5249 C.2       9 UNK         0.5000 
     26 O          -3.0690  -21.9909  -45.3340 O.2       9 UNK        -0.5000 
     27 CA         -3.0963  -19.7335  -44.5512 C.3       9 UNK         0.1400 
     28 CB         -4.6328  -19.6532  -44.5751 C.3       9 UNK        -0.1800 
     29 N          -2.5850  -18.9625  -43.4218 N.am      9 UNK        -0.5000 
     30 C          -2.1424  -17.7033  -43.4854 C.2       8 UNK         0.5000 
     31 O          -2.1696  -17.0122  -44.5037 O.2       8 UNK        -0.5000 
     32 CA         -1.5296  -17.1256  -42.1976 C.3       8 UNK         0.1400 
     33 CB         -2.3441  -17.4487  -40.9263 C.3       8 UNK        -0.1800 
     34 N          -0.1262  -17.5211  -42.0687 N.am      8 UNK        -0.5000 
     35 C           0.3759  -18.7555  -41.9067 C.2       7 UNK         0.5000 
     36 O          -0.3109  -19.7615  -41.7145 O.2       7 UNK        -0.5000 
     37 CA          1.9098  -18.8709  -42.0501 C.3       7 UNK         0.1400 
     38 CB          2.4188  -20.3234  -42.1241 C.3       7 UNK        -0.1800 
     39 N           2.4133  -18.0973  -43.1894 N.am      7 UNK        -0.5000 
     40 C           2.0249  -18.2078  -44.4688 C.2       6 UNK         0.5000 
     41 O           1.2296  -19.0533  -44.8875 O.2       6 UNK        -0.5000 
     42 CA          2.5903  -17.1438  -45.4267 C.3       6 UNK         0.1400 
     43 CB          3.1517  -17.7879  -46.7009 C.3       6 UNK        -0.1800 
     44 N           1.5836  -16.1449  -45.7897 N.am      6 UNK        -0.5000 
     45 C           0.9153  -15.3610  -44.9301 C.2       5 UNK         0.5000 
     46 O           1.1110  -15.3595  -43.7122 O.2       5 UNK        -0.5000 
     47 CA         -0.1208  -14.4076  -45.5442 C.3       5 UNK         0.1400 
     48 CB         -0.7154  -13.4137  -44.5265 C.3       5 UNK        -0.1800 
     49 N           0.4646  -13.6875  -46.6729 N.am      5 UNK        -0.5000 
     50 C          -0.2266  -13.1864  -47.7021 C.2       4 UNK         0.5000 
     51 O          -1.4384  -13.3494  -47.8538 O.2       4 UNK        -0.5000 
     52 CA          0.5827  -12.3593  -48.7238 C.3       4 UNK         0.1400 
     53 CB         -0.2949  -11.7102  -49.8130 C.3       4 UNK        -0.1800 
     54 N           1.4413  -11.3544  -48.0870 N.am      4 UNK        -0.5000 
     55 C           1.0763  -10.3751  -47.2448 C.2       3 UNK         0.5000 
     56 O          -0.0891  -10.1286  -46.9290 O.2       3 UNK        -0.5000 
     57 CA          2.2369   -9.5463  -46.6541 C.3       3 UNK         0.1400 
     58 CB          1.7925   -8.5509  -45.5611 C.3       3 UNK        -0.1800 
     59 N           3.3330  -10.4037  -46.1862 N.am      3 UNK        -0.5000 
     60 C           3.2968  -11.3105  -45.1964 C.2       2 UNK         0.5000 
     61 O           2.3399  -11.4655  -44.4385 O.2       2 UNK        -0.5000 
     62 CA          4.5477  -12.2086  -45.0593 C.3       2 UNK         0.1400 
     63 CB          4.3109  -13.4508  -44.1757 C.3       2 UNK        -0.1800 
     64 N           5.1093  -12.5985  -46.3596 N.am      2 UNK        -0.5000 
     65 C           4.4861  -13.2716  -47.3417 C.2       1 UNK         0.5000 
     66 O           3.3376  -13.7087  -47.2457 O.2       1 UNK        -0.5000 
     67 C          -0.0498  -22.9762  -47.8009 C.2       11 UNK         0.5000 
     68 O           0.1957  -23.9230  -48.5476 O.2       11 UNK        -0.5000 
     69 N          -1.1975  -22.2830  -47.8346 N.am      12 UNK        -0.5000 
     70 CA         -2.2939  -22.5494  -48.7644 C.3       12 UNK         0.1400 
     71 CB         -3.3070  -21.3968  -48.7078 C.3       12 UNK        -0.1800 
     72 C          -2.9656  -23.9040  -48.4851 C.2       12 UNK         0.5000 
     73 O          -3.2616  -24.6395  -49.4259 O.2       12 UNK        -0.5000 
     74 N          -3.1462  -24.2323  -47.1986 N.am      13 UNK        -0.5000 
     75 CA         -3.6429  -25.5280  -46.7366 C.3       13 UNK         0.1400 
     76 CB         -3.8831  -25.4811  -45.2212 C.3       13 UNK        -0.1800 
     77 C          -2.7071  -26.6911  -47.1162 C.2       13 UNK         0.5000 
     78 O          -3.1861  -27.7058  -47.6222 O.2       13 UNK        -0.5000 
     79 N          -1.3923  -26.5079  -46.9220 N.am      14 UNK        -0.5000 
     80 CA         -0.3503  -27.4633  -47.3124 C.3       14 UNK         0.1400 
     81 CB          1.0032  -27.0111  -46.7441 C.3       14 UNK        -0.1800 
     82 C          -0.2583  -27.6692  -48.8370 C.2       14 UNK         0.5000 
     83 O          -0.0143  -28.7897  -49.2857 O.2       14 UNK        -0.5000 
     84 N          -0.4952  -26.5967  -49.6039 N.am      15 UNK        -0.5000 
     85 CA         -0.5883  -26.6074  -51.0654 C.3       15 UNK         0.1400 
     86 CB         -0.4160  -25.1688  -51.5814 C.3       15 UNK        -0.1800 
     87 C          -1.9022  -27.2180  -51.6010 C.2       15 UNK         0.5000 
     88 O          -2.0117  -27.4187  -52.8113 O.2       15 UNK        -0.5000 
     89 N          -2.8706  -27.4850  -50.7095 N.am      16 UNK        -0.5000 
     90 CA         -4.2314  -27.9622  -50.9796 C.3       16 UNK         0.1400 
     91 CB         -4.2147  -29.3840  -51.5785 C.3       16 UNK        -0.1800 
     92 C          -5.0525  -26.9546  -51.8124 C.2       16 UNK         0.5000 
     93 O          -5.8244  -27.3479  -52.6890 O.2       16 UNK        -0.5000 
     94 N          -4.8611  -25.6651  -51.5161 N.am      17 UNK        -0.5000 
     95 CA         -5.4638  -24.5247  -52.1970 C.3       17 UNK         0.1400 
     96 CB         -4.4830  -24.0064  -53.2646 C.3       17 UNK        -0.1800 
     97 C          -5.8522  -23.4571  -51.1598 C.2       17 UNK         0.5000 
     98 O          -5.6145  -22.2658  -51.3761 O.2       17 UNK        -0.5000 
     99 N          -6.4230  -23.9112  -50.0334 N.am      18 UNK        -0.5000 
    100 CA        -6.8514  -23.1048  -48.8891 C.3       18 UNK         0.1400 
    101 CB        -7.4859  -24.0223  -47.8324 C.3       18 UNK        -0.1800 
    102 C         -7.8184  -21.9799  -49.3014 C.2       18 UNK         0.5000 
    103 O         -8.9175  -22.2671  -49.7786 O.2       18 UNK        -0.5000 
    104 N         -7.3551  -20.7306  -49.1534 N.am      19 UNK        -0.5000 
    105 CA        -8.0079  -19.4767  -49.5541 C.3       19 UNK         0.1400 
    106 CB        -9.3400  -19.2759  -48.8020 C.3       19 UNK        -0.1800 
    107 C         -8.1626  -19.2865  -51.0814 C.2       19 UNK         0.5000 
    108 O         -8.8041  -18.3226  -51.5013 O.2       19 UNK        -0.5000 
    109 N         -7.5502  -20.1638  -51.8878 N.am      20 UNK        -0.5000 
    110 CA        -7.4955  -20.0690  -53.3470 C.3       20 UNK         0.1400 
    111 CB        -7.8267  -21.4368  -53.9639 C.3       20 UNK        -0.1800 
    112 C         -6.1122  -19.5804  -53.8074 C.2       20 UNK         0.5000 
    113 O         -6.0330  -18.8120  -54.7660 O.2       20 UNK        -0.5000 
    114 N         -5.0509  -19.9998  -53.1008 N.am      21 UNK        -0.5000 
    115 CA        -3.6670  -19.5796  -53.3422 C.3       21 UNK         0.1400 
    116 CB        -2.7205  -20.4902  -52.5436 C.3       21 UNK        -0.1800 
    117 C         -3.4008  -18.1047  -52.9816 C.2       21 UNK         0.5000 
    118 O         -2.5086  -17.4884  -53.5658 O.2       21 UNK        -0.5000 
    119 N         -4.1664  -17.5760  -52.0218 N.am      22 UNK        -0.5000 
    120 CA        -3.9907  -16.2395  -51.4338 C.3       22 UNK         0.1400 
    121 C         -5.3199  -15.5919  -50.9481 C.2       22 UNK         0.5000 
    122 N         -6.4819  -16.0734  -51.3723 N.am      22 UNK        -0.7600 
    123 O         -5.3074  -14.6212  -50.1966 O.2       22 UNK        -0.5000 
    124 C124       -2.8534  -16.2155  -50.3758 C.3       23 UNK        -0.0398 
    125 S125       -3.0548  -17.4538  -49.0458 S.3       23 UNK        -0.2404 
    126 C126       -1.5203  -17.1960  -48.1044 C.3       23 UNK        -0.0205 
    127 H127        6.0771   -9.4302  -50.6028 H         1 UNK         0.0600 
    128 H128        7.3836  -10.1227  -49.6370 H         1 UNK         0.0600 
    129 H129        6.2320   -9.0080  -48.8943 H         1 UNK         0.0600 
    130 H130        6.9919  -12.2429  -49.0787 H         1 UNK         0.3000 
    131 H131        6.0599  -14.1362  -48.4761 H         1 UNK         0.0600 
    132 H132        3.4839  -13.3750  -49.9281 H         1 UNK         0.0800 
    133 H133        4.9464  -13.7187  -50.8025 H         1 UNK         0.0800 
    134 H134        2.0613  -14.9295  -50.7774 H         1 UNK         0.0800 
    135 H135        2.8343  -16.1294  -51.7788 H         1 UNK         0.0800 
    136 H136        0.3118  -15.5580  -49.2927 H         1 UNK         0.1150 
    137 H137       -0.6133  -19.6907  -48.6848 H         1 UNK         0.1150 
    138 H138        2.9053  -18.5832  -50.8693 H         1 UNK         0.1150 
    139 H139        0.6351  -21.3734  -49.9916 H         1 UNK         0.0800 
    140 H140        1.9982  -20.9046  -50.9558 H         1 UNK         0.0800 
    141 H141        2.4762  -21.0342  -46.3706 H         1 UNK         0.0800 
    142 H142        1.0848  -20.4182  -47.1866 H         1 UNK         0.0800 
    143 H143        1.7021  -23.3660  -46.6316 H         1 UNK         0.0600 
    144 H144        0.3149  -21.4248  -45.0635 H         1 UNK         0.3000 
    145 H145       -1.9771  -23.5756  -43.4401 H         1 UNK         0.0600 
    146 H146       -0.8954  -22.7591  -41.3524 H         1 UNK         0.0600 
    147 H147        0.0037  -24.0822  -42.0815 H         1 UNK         0.0600 
    148 H148        0.5879  -22.4358  -42.2442 H         1 UNK         0.0600 
    149 H149       -1.2522  -20.8409  -43.0112 H         1 UNK         0.3000 
    150 H150       -2.7178  -19.3114  -45.4843 H         1 UNK         0.0600 
    151 H151       -5.0438  -20.1894  -45.4315 H         1 UNK         0.0600 
    152 H152       -4.9709  -18.6196  -44.6507 H         1 UNK         0.0600 
    153 H153       -5.0699  -20.0847  -43.6740 H         1 UNK         0.0600 
    154 H154       -2.4814  -19.4579  -42.5464 H         1 UNK         0.3000 
    155 H155       -1.5283  -16.0406  -42.3124 H         1 UNK         0.0600 
    156 H156       -1.9307  -16.9322  -40.0600 H         1 UNK         0.0600 
    157 H157       -2.3662  -18.5130  -40.6938 H         1 UNK         0.0600 
    158 H158       -3.3777  -17.1184  -41.0361 H         1 UNK         0.0600 
    159 H159        0.5295  -16.7893  -42.3242 H         1 UNK         0.3000 
    160 H160        2.3322  -18.4190  -41.1517 H         1 UNK         0.0600 
    161 H161        2.0476  -20.8372  -43.0106 H         1 UNK         0.0600 
    162 H162        2.1065  -20.8927  -41.2481 H         1 UNK         0.0600 
    163 H163        3.5078  -20.3545  -42.1561 H         1 UNK         0.0600 
    164 H164        3.0352  -17.3375  -42.9507 H         1 UNK         0.3000 
    165 H165        3.4109  -16.6229  -44.9297 H         1 UNK         0.0600 
    166 H166        2.3643  -18.2336  -47.3078 H         1 UNK         0.0600 
    167 H167        3.6701  -17.0508  -47.3106 H         1 UNK         0.0600 
    168 H168        3.8688  -18.5745  -46.4636 H         1 UNK         0.0600 
    169 H169        1.3741  -16.0688  -46.7738 H         1 UNK         0.3000 
    170 H170       -0.9347  -15.0371  -45.9037 H         1 UNK         0.0600 
    171 H171        0.0524  -12.7669  -44.1028 H         1 UNK         0.0600 
    172 H172       -1.4712  -12.7773  -44.9866 H         1 UNK         0.0600 
    173 H173       -1.1963  -13.9401  -43.7016 H         1 UNK         0.0600 
    174 H174        1.4747  -13.5621  -46.6535 H         1 UNK         0.3000 
    175 H175        1.2499  -13.0644  -49.2190 H         1 UNK         0.0600 
    176 H176       -1.0125  -11.0072  -49.3889 H         1 UNK         0.0600 
    177 H177        0.3139  -11.1713  -50.5390 H         1 UNK         0.0600 
    178 H178       -0.8602  -12.4653  -50.3605 H         1 UNK         0.0600 
    179 H179        2.4310  -11.4357  -48.2939 H         1 UNK         0.3000 
    180 H180        2.6411   -8.9606  -47.4811 H         1 UNK         0.0600 
    181 H181        1.3085   -9.0522  -44.7227 H         1 UNK         0.0600 
    182 H182        1.0802   -7.8287  -45.9615 H         1 UNK         0.0600 
    183 H183        2.6408   -7.9880  -45.1720 H         1 UNK         0.0600 
    184 H184        4.1569  -10.3906  -46.7706 H         1 UNK         0.3000 
    185 H185        5.3043  -11.5963  -44.5668 H         1 UNK         0.0600 
    186 H186        3.9945  -13.1655  -43.1718 H         1 UNK         0.0600 
    187 H187        3.5383  -14.0971  -44.5888 H         1 UNK         0.0600 
    188 H188        5.2210  -14.0414  -44.0734 H         1 UNK         0.0600 
    189 H189        6.0440  -12.2632  -46.5469 H         1 UNK         0.3000 
    190 H190       -1.3622  -21.5766  -47.1340 H         1 UNK         0.3000 
    191 H191       -1.8790  -22.5833  -49.7739 H         1 UNK         0.0600 
    192 H192       -2.8266  -20.4390  -48.8998 H         1 UNK         0.0600 
    193 H193       -4.0758  -21.5209  -49.4671 H         1 UNK         0.0600 
    194 H194       -3.8069  -21.3325  -47.7420 H         1 UNK         0.0600 
    195 H195       -2.9291  -23.5403  -46.4871 H         1 UNK         0.3000 
    196 H196       -4.6021  -25.7052  -47.2259 H         1 UNK         0.0600 
    197 H197       -4.3400  -26.4076  -44.8718 H         1 UNK         0.0600 
    198 H198       -4.5531  -24.6642  -44.9519 H         1 UNK         0.0600 
    199 H199       -2.9526  -25.3484  -44.6703 H         1 UNK         0.0600 
    200 H200       -1.0752  -25.6615  -46.4573 H         1 UNK         0.3000 
    201 H201       -0.5999  -28.4276  -46.8652 H         1 UNK         0.0600 
    202 H202        0.9736  -26.9537  -45.6560 H         1 UNK         0.0600 
    203 H203        1.2915  -26.0302  -47.1229 H         1 UNK         0.0600 
    204 H204        1.7943  -27.7128  -47.0111 H         1 UNK         0.0600 
    205 H205       -0.6105  -25.6950  -49.1524 H         1 UNK         0.3000 
    206 H206        0.2334  -27.2095  -51.4579 H         1 UNK         0.0600 
    207 H207        0.5292  -24.7395  -51.2483 H         1 UNK         0.0600 
    208 H208       -0.4190  -25.1391  -52.6716 H         1 UNK         0.0600 
    209 H209       -1.2195  -24.5188  -51.2351 H         1 UNK         0.0600 
    210 H210       -2.6790  -27.2748  -49.7380 H         1 UNK         0.3000 
    211 H211       -4.7263  -28.0233  -50.0095 H         1 UNK         0.0600 
    212 H212       -3.7953  -29.3979  -52.5848 H         1 UNK         0.0600 
    213 H213       -5.2240  -29.7923  -51.6409 H         1 UNK         0.0600 
    214 H214       -3.6281  -30.0640  -50.9607 H         1 UNK         0.0600 
    215 H215       -4.2202  -25.4225  -50.7603 H         1 UNK         0.3000 
    216 H216       -6.3898  -24.8248  -52.6910 H         1 UNK         0.0600 
    217 H217       -4.8691  -23.1234  -53.7746 H         1 UNK         0.0600 
    218 H218       -4.2981  -24.7647  -54.0255 H         1 UNK         0.0600 
    219 H219       -3.5225  -23.7440  -52.8209 H         1 UNK         0.0600 
    220 H220       -6.5830  -24.9046  -49.9601 H         1 UNK         0.3000 
    221 H221       -5.9584  -22.6617  -48.4464 H         1 UNK         0.0600 
    222 H222       -8.3625  -24.5410  -48.2229 H         1 UNK         0.0600 
    223 H223       -6.7793  -24.7747  -47.4842 H         1 UNK         0.0600 
    224 H224       -7.8044  -23.4499  -46.9603 H         1 UNK         0.0600 
    225 H225       -6.4255  -20.6162  -48.7753 H         1 UNK         0.3000 
    226 H226       -7.3339  -18.6816  -49.2315 H         1 UNK         0.0600 
    227 H227       -9.2087  -19.3980  -47.7269 H         1 UNK         0.0600 
    228 H228       -9.7343  -18.2725  -48.9665 H         1 UNK         0.0600 
    229 H229      -10.1037  -19.9811  -49.1304 H         1 UNK         0.0600 
    230 H230       -7.0249  -20.9250  -51.4704 H         1 UNK         0.3000 
    231 H231       -8.2368  -19.3542  -53.7103 H         1 UNK         0.0600 
    232 H232       -7.8208  -21.3840  -55.0533 H         1 UNK         0.0600 
    233 H233       -8.8177  -21.7739  -53.6596 H         1 UNK         0.0600 
    234 H234       -7.1101  -22.2022  -53.6701 H         1 UNK         0.0600 
    235 H235       -5.1937  -20.6874  -52.3669 H         1 UNK         0.3000 
    236 H236       -3.4509  -19.7059  -54.4050 H         1 UNK         0.0600 
    237 H237       -2.8196  -21.5295  -52.8515 H         1 UNK         0.0600 
    238 H238       -1.6786  -20.2058  -52.6971 H         1 UNK         0.0600 
    239 H239       -2.9195  -20.4351  -51.4733 H         1 UNK         0.0600 
    240 H240       -4.8550  -18.1633  -51.5770 H         1 UNK         0.3000 
    241 H241       -3.6776  -15.5734  -52.2398 H         1 UNK         0.0600 
    242 H242       -6.5286  -16.8071  -52.0595 H         1 UNK         0.3800 
    243 H243       -7.3354  -15.6406  -51.0558 H         1 UNK         0.3800 
    244 H244       -2.7489  -15.2246  -49.9300 H         1 UNK         0.0800 
    245 H245       -1.9071  -16.4111  -50.8805 H         1 UNK         0.0800 
    246 H246       -1.4721  -16.1509  -47.8020 H         1 UNK         0.0800 
    247 H247       -1.5604  -17.7806  -47.1843 H         1 UNK         0.0800 
@<TRIPOS>BOND
     1    1    2 1    
     2    1  127 1    
     3    1  128 1    
     4    1  129 1    
     5    2    3 2    
     6    2    4 am   BACKBONE|DICT|INTERRES
     7    4    5 1    
     8    4  130 1    
     9    5    6 1    
    10    5   65 1    
    11    5  131 1    
    12    6    7 1    
    13    6  132 1    
    14    6  133 1    
    15    7    8 1    
    16    8    9 1    
    17    8  134 1    
    18    8  135 1    
    19    9   10 ar   
    20    9   14 ar   
    21   10   11 ar   
    22   10  136 1    
    23   11   12 ar   
    24   11  126 1    
    25   12   13 ar   
    26   12  137 1    
    27   13   14 ar   
    28   13   15 1    
    29   14  138 1    
    30   15   16 1    
    31   15  139 1    
    32   15  140 1    
    33   16   17 1    
    34   17   18 1    
    35   17  141 1    
    36   17  142 1    
    37   18   19 1    
    38   18   67 1    
    39   18  143 1    
    40   19   20 am   BACKBONE|DICT|INTERRES
    41   19  144 1    
    42   20   21 2    
    43   20   22 1    
    44   22   23 1    
    45   22   24 1    
    46   22  145 1    
    47   23  146 1    
    48   23  147 1    
    49   23  148 1    
    50   24   25 am   BACKBONE|DICT|INTERRES
    51   24  149 1    
    52   25   26 2    
    53   25   27 1    
    54   27   28 1    
    55   27   29 1    
    56   27  150 1    
    57   28  151 1    
    58   28  152 1    
    59   28  153 1    
    60   29   30 am   BACKBONE|DICT|INTERRES
    61   29  154 1    
    62   30   31 2    
    63   30   32 1    
    64   32   33 1    
    65   32   34 1    
    66   32  155 1    
    67   33  156 1    
    68   33  157 1    
    69   33  158 1    
    70   34   35 am   BACKBONE|DICT|INTERRES
    71   34  159 1    
    72   35   36 2    
    73   35   37 1    
    74   37   38 1    
    75   37   39 1    
    76   37  160 1    
    77   38  161 1    
    78   38  162 1    
    79   38  163 1    
    80   39   40 am   BACKBONE|DICT|INTERRES
    81   39  164 1    
    82   40   41 2    
    83   40   42 1    
    84   42   43 1    
    85   42   44 1    
    86   42  165 1    
    87   43  166 1    
    88   43  167 1    
    89   43  168 1    
    90   44   45 am   BACKBONE|DICT|INTERRES
    91   44  169 1    
    92   45   46 2    
    93   45   47 1    
    94   47   48 1    
    95   47   49 1    
    96   47  170 1    
    97   48  171 1    
    98   48  172 1    
    99   48  173 1    
   100   49   50 am   BACKBONE|DICT|INTERRES
   101   49  174 1    
   102   50   51 2    
   103   50   52 1    
   104   52   53 1    
   105   52   54 1    
   106   52  175 1    
   107   53  176 1    
   108   53  177 1    
   109   53  178 1    
   110   54   55 am   BACKBONE|DICT|INTERRES
   111   54  179 1    
   112   55   56 2    
   113   55   57 1    
   114   57   58 1    
   115   57   59 1    
   116   57  180 1    
   117   58  181 1    
   118   58  182 1    
   119   58  183 1    
   120   59   60 am   BACKBONE|DICT|INTERRES
   121   59  184 1    
   122   60   61 2    
   123   60   62 1    
   124   62   63 1    
   125   62   64 1    
   126   62  185 1    
   127   63  186 1    
   128   63  187 1    
   129   63  188 1    
   130   64   65 am   BACKBONE|DICT|INTERRES
   131   64  189 1    
   132   65   66 2    
   133   67   68 2    
   134   67   69 am   BACKBONE|DICT|INTERRES
   135   69   70 1    
   136   69  190 1    
   137   70   71 1    
   138   70   72 1    
   139   70  191 1    
   140   71  192 1    
   141   71  193 1    
   142   71  194 1    
   143   72   73 2    
   144   72   74 am   BACKBONE|DICT|INTERRES
   145   74   75 1    
   146   74  195 1    
   147   75   76 1    
   148   75   77 1    
   149   75  196 1    
   150   76  197 1    
   151   76  198 1    
   152   76  199 1    
   153   77   78 2    
   154   77   79 am   BACKBONE|DICT|INTERRES
   155   79   80 1    
   156   79  200 1    
   157   80   81 1    
   158   80   82 1    
   159   80  201 1    
   160   81  202 1    
   161   81  203 1    
   162   81  204 1    
   163   82   83 2    
   164   82   84 am   BACKBONE|DICT|INTERRES
   165   84   85 1    
   166   84  205 1    
   167   85   86 1    
   168   85   87 1    
   169   85  206 1    
   170   86  207 1    
   171   86  208 1    
   172   86  209 1    
   173   87   88 2    
   174   87   89 am   BACKBONE|DICT|INTERRES
   175   89   90 1    
   176   89  210 1    
   177   90   91 1    
   178   90   92 1    
   179   90  211 1    
   180   91  212 1    
   181   91  213 1    
   182   91  214 1    
   183   92   93 2    
   184   92   94 am   BACKBONE|DICT|INTERRES
   185   94   95 1    
   186   94  215 1    
   187   95   96 1    
   188   95   97 1    
   189   95  216 1    
   190   96  217 1    
   191   96  218 1    
   192   96  219 1    
   193   97   98 2    
   194   97   99 am   BACKBONE|DICT|INTERRES
   195   99  100 1    
   196   99  220 1    
   197  100  101 1    
   198  100  102 1    
   199  100  221 1    
   200  101  222 1    
   201  101  223 1    
   202  101  224 1    
   203  102  103 2    
   204  102  104 am   BACKBONE|DICT|INTERRES
   205  104  105 1    
   206  104  225 1    
   207  105  106 1    
   208  105  107 1    
   209  105  226 1    
   210  106  227 1    
   211  106  228 1    
   212  106  229 1    
   213  107  108 2    
   214  107  109 am   BACKBONE|DICT|INTERRES
   215  109  110 1    
   216  109  230 1    
   217  110  111 1    
   218  110  112 1    
   219  110  231 1    
   220  111  232 1    
   221  111  233 1    
   222  111  234 1    
   223  112  113 2    
   224  112  114 am   BACKBONE|DICT|INTERRES
   225  114  115 1    
   226  114  235 1    
   227  115  116 1    
   228  115  117 1    
   229  115  236 1    
   230  116  237 1    
   231  116  238 1    
   232  116  239 1    
   233  117  118 2    
   234  117  119 am   BACKBONE|DICT|INTERRES
   235  119  120 1    
   236  119  240 1    
   237  120  121 1    
   238  120  124 1    
   239  120  241 1    
   240  121  122 am   BACKBONE|DICT|INTERRES
   241  121  123 2    
   242  122  242 1    
   243  122  243 1    
   244  124  125 1    
   245  124  244 1    
   246  124  245 1    
   247  125  126 1    
   248  126  246 1    
   249  126  247 1    
@<TRIPOS>SUBSTRUCTURE
     1 UNK         1 GROUP             0       ****    0 ROOT    
