@<TRIPOS>MOLECULE
3R540
247   249    1
SMALL
USER_CHARGES


@<TRIPOS>ATOM
      1 CA         -2.6646  -13.4052  -41.3722 C.3       0 UNK        -0.1800 
      2 C          -2.7246  -12.7915  -42.7637 C.2       0 UNK         0.5000 
      3 O          -2.8482  -11.5738  -42.8927 O.2       0 UNK        -0.5000 
      4 N          -2.6465  -13.6323  -43.8012 N.am      1 UNK        -0.5000 
      5 CA         -2.5922  -13.2312  -45.2084 C.3       1 UNK         0.1400 
      6 C6         -2.9261  -14.3956  -46.1765 C.3       23 UNK        -0.0398 
      7 S7         -4.5573  -15.1435  -45.8482 S.3       23 UNK        -0.2404 
      8 C8         -5.0033  -15.8004  -47.4864 C.3       23 UNK        -0.0205 
      9 C9         -4.2568  -17.0849  -47.8203 C.ar      23 UNK        -0.0193 
     10 C10        -3.1148  -17.0528  -48.6268 C.ar      23 UNK        -0.1150 
     11 C11        -2.4646  -18.2386  -48.9825 C.ar      23 UNK        -0.0193 
     12 C12        -2.9446  -19.4588  -48.5013 C.ar      23 UNK        -0.1150 
     13 C13        -4.0926  -19.5062  -47.7059 C.ar      23 UNK        -0.0193 
     14 C14        -4.7417  -18.3157  -47.3655 C.ar      23 UNK        -0.1150 
     15 C15        -4.6574  -20.8476  -47.2598 C.3       23 UNK        -0.0205 
     16 S16        -4.4367  -21.1723  -45.4806 S.3       23 UNK        -0.2404 
     17 C17        -2.6377  -20.9762  -45.2298 C.3       23 UNK        -0.0398 
     18 CA         -1.7514  -22.0517  -45.9119 C.3       11 UNK         0.1400 
     19 N          -0.4037  -21.5312  -46.1602 N.am      11 UNK        -0.5000 
     20 C           0.4581  -22.0124  -47.0677 C.2       10 UNK         0.5000 
     21 O           0.1777  -22.9327  -47.8364 O.2       10 UNK        -0.5000 
     22 CA          1.8579  -21.3645  -47.1539 C.3       10 UNK         0.1400 
     23 CB          2.0919  -20.7447  -48.5413 C.3       10 UNK        -0.1800 
     24 N           2.0700  -20.3276  -46.1418 N.am      10 UNK        -0.5000 
     25 C           2.6311  -20.5305  -44.9398 C.2       9 UNK         0.5000 
     26 O           3.0939  -21.6131  -44.5796 O.2       9 UNK        -0.5000 
     27 CA          2.6683  -19.3358  -43.9584 C.3       9 UNK         0.1400 
     28 CB          4.0473  -18.6601  -43.9835 C.3       9 UNK        -0.1800 
     29 N           1.6430  -18.3225  -44.2149 N.am      9 UNK        -0.5000 
     30 C           0.3225  -18.5417  -44.2068 C.2       8 UNK         0.5000 
     31 O          -0.1799  -19.6135  -43.8736 O.2       8 UNK        -0.5000 
     32 CA         -0.5886  -17.4139  -44.7263 C.3       8 UNK         0.1400 
     33 CB         -1.2944  -16.6927  -43.5699 C.3       8 UNK        -0.1800 
     34 N           0.0941  -16.4448  -45.5909 N.am      8 UNK        -0.5000 
     35 C           0.6275  -16.7381  -46.7869 C.2       7 UNK         0.5000 
     36 O           0.6002  -17.8638  -47.2835 O.2       7 UNK        -0.5000 
     37 CA          1.3742  -15.6074  -47.5131 C.3       7 UNK         0.1400 
     38 CB          0.4224  -14.7324  -48.3431 C.3       7 UNK        -0.1800 
     39 N           2.1088  -14.7749  -46.5598 N.am      7 UNK        -0.5000 
     40 C           3.3470  -15.0622  -46.1357 C.2       6 UNK         0.5000 
     41 O           4.0044  -16.0153  -46.5545 O.2       6 UNK        -0.5000 
     42 CA          3.9669  -14.1481  -45.0626 C.3       6 UNK         0.1400 
     43 CB          4.7871  -13.0323  -45.7264 C.3       6 UNK        -0.1800 
     44 N           3.0127  -13.5562  -44.1216 N.am      6 UNK        -0.5000 
     45 C           2.2267  -14.2500  -43.2830 C.2       5 UNK         0.5000 
     46 O           2.1512  -15.4796  -43.2928 O.2       5 UNK        -0.5000 
     47 CA          1.3934  -13.4374  -42.2652 C.3       5 UNK         0.1400 
     48 CB          1.0063  -14.2561  -41.0144 C.3       5 UNK        -0.1800 
     49 N           2.0244  -12.1691  -41.8833 N.am      5 UNK        -0.5000 
     50 C           3.1947  -12.0016  -41.2436 C.2       4 UNK         0.5000 
     51 O           3.8830  -12.9335  -40.8246 O.2       4 UNK        -0.5000 
     52 CA          3.6805  -10.5459  -41.0421 C.3       4 UNK         0.1400 
     53 CB          5.2197  -10.4376  -41.0032 C.3       4 UNK        -0.1800 
     54 N           3.1231   -9.5899  -42.0091 N.am      4 UNK        -0.5000 
     55 C           3.2507   -9.6329  -43.3424 C.2       3 UNK         0.5000 
     56 O           3.8916  -10.4916  -43.9505 O.2       3 UNK        -0.5000 
     57 CA          2.4819   -8.5623  -44.1357 C.3       3 UNK         0.1400 
     58 CB          3.4516   -7.5442  -44.7544 C.3       3 UNK        -0.1800 
     59 N           1.6654   -9.1573  -45.1955 N.am      3 UNK        -0.5000 
     60 C           0.7020  -10.0703  -45.0099 C.2       2 UNK         0.5000 
     61 O           0.3688  -10.4878  -43.8972 O.2       2 UNK        -0.5000 
     62 CA         -0.0071  -10.5613  -46.2898 C.3       2 UNK         0.1400 
     63 CB          0.9750  -11.2449  -47.2638 C.3       2 UNK        -0.1800 
     64 N          -1.1748  -11.4091  -46.0181 N.am      2 UNK        -0.5000 
     65 C          -1.1978  -12.6500  -45.5124 C.2       1 UNK         0.5000 
     66 O          -0.1982  -13.3429  -45.2949 O.2       1 UNK        -0.5000 
     67 C          -1.7189  -23.3947  -45.1406 C.2       11 UNK         0.5000 
     68 O          -0.6473  -23.8752  -44.7628 O.2       11 UNK        -0.5000 
     69 N          -2.9079  -23.9852  -44.9462 N.am      12 UNK        -0.5000 
     70 CA         -3.1599  -25.3328  -44.4145 C.3       12 UNK         0.1400 
     71 CB         -2.6415  -25.4872  -42.9687 C.3       12 UNK        -0.1800 
     72 C          -2.6653  -26.4420  -45.3695 C.2       12 UNK         0.5000 
     73 O          -2.2376  -27.5091  -44.9248 O.2       12 UNK        -0.5000 
     74 N          -2.7458  -26.1572  -46.6754 N.am      13 UNK        -0.5000 
     75 CA         -2.4469  -27.0716  -47.7740 C.3       13 UNK         0.1400 
     76 CB         -2.0073  -26.2278  -48.9840 C.3       13 UNK        -0.1800 
     77 C          -3.6644  -27.9589  -48.1106 C.2       13 UNK         0.5000 
     78 O          -4.6771  -27.9285  -47.4062 O.2       13 UNK        -0.5000 
     79 N          -3.5496  -28.7297  -49.2007 N.am      14 UNK        -0.5000 
     80 CA         -4.5851  -29.6340  -49.7136 C.3       14 UNK         0.1400 
     81 CB         -3.9847  -30.4732  -50.8526 C.3       14 UNK        -0.1800 
     82 C          -5.8745  -28.9311  -50.1914 C.2       14 UNK         0.5000 
     83 O          -6.9239  -29.5739  -50.2466 O.2       14 UNK        -0.5000 
     84 N          -5.7809  -27.6382  -50.5201 N.am      15 UNK        -0.5000 
     85 CA         -6.8860  -26.7705  -50.9092 C.3       15 UNK         0.1400 
     86 CB         -7.2709  -27.0243  -52.3811 C.3       15 UNK        -0.1800 
     87 C          -6.4888  -25.3083  -50.6467 C.2       15 UNK         0.5000 
     88 O          -5.3455  -25.0367  -50.2633 O.2       15 UNK        -0.5000 
     89 N          -7.4424  -24.3925  -50.8558 N.am      16 UNK        -0.5000 
     90 CA         -7.2908  -22.9460  -50.6827 C.3       16 UNK         0.1400 
     91 CB         -8.6414  -22.2730  -50.9721 C.3       16 UNK        -0.1800 
     92 C          -6.1873  -22.3306  -51.5661 C.2       16 UNK         0.5000 
     93 O          -5.8431  -22.8881  -52.6118 O.2       16 UNK        -0.5000 
     94 N          -5.6574  -21.1835  -51.1180 N.am      17 UNK        -0.5000 
     95 CA         -4.5861  -20.4068  -51.7545 C.3       17 UNK         0.1400 
     96 CB         -5.0858  -19.7514  -53.0585 C.3       17 UNK        -0.1800 
     97 C          -3.2873  -21.2196  -51.9441 C.2       17 UNK         0.5000 
     98 O          -2.6441  -21.1284  -52.9920 O.2       17 UNK        -0.5000 
     99 N          -2.9421  -22.0178  -50.9219 N.am      18 UNK        -0.5000 
    100 CA        -1.7874  -22.9225  -50.8688 C.3       18 UNK         0.1400 
    101 CB        -0.4663  -22.1266  -50.9147 C.3       18 UNK        -0.1800 
    102 C         -1.8707  -24.0279  -51.9423 C.2       18 UNK         0.5000 
    103 O         -0.8739  -24.3376  -52.5938 O.2       18 UNK        -0.5000 
    104 N         -3.0823  -24.5767  -52.1169 N.am      19 UNK        -0.5000 
    105 CA        -3.4968  -25.4849  -53.1879 C.3       19 UNK         0.1400 
    106 CB        -2.7883  -26.8507  -53.0757 C.3       19 UNK        -0.1800 
    107 C         -3.3810  -24.8232  -54.5767 C.2       19 UNK         0.5000 
    108 O         -2.8005  -25.4004  -55.4978 O.2       19 UNK        -0.5000 
    109 N         -3.9459  -23.6099  -54.6776 N.am      20 UNK        -0.5000 
    110 CA        -3.9804  -22.7265  -55.8475 C.3       20 UNK         0.1400 
    111 CB        -4.9118  -23.3104  -56.9299 C.3       20 UNK        -0.1800 
    112 C         -2.5776  -22.3638  -56.3822 C.2       20 UNK         0.5000 
    113 O         -2.3470  -22.4120  -57.5925 O.2       20 UNK        -0.5000 
    114 N         -1.6658  -22.0154  -55.4662 N.am      21 UNK        -0.5000 
    115 CA        -0.2706  -21.6910  -55.7588 C.3       21 UNK         0.1400 
    116 CB         0.6508  -22.6091  -54.9431 C.3       21 UNK        -0.1800 
    117 C          0.0617  -20.2179  -55.4757 C.2       21 UNK         0.5000 
    118 O          0.8483  -19.6421  -56.2292 O.2       21 UNK        -0.5000 
    119 N         -0.5165  -19.6248  -54.4184 N.am      22 UNK        -0.5000 
    120 CA        -0.2562  -18.2202  -54.0415 C.3       22 UNK         0.1400 
    121 C         -1.1519  -17.1745  -54.7713 C.2       22 UNK         0.5000 
    122 N         -2.1353  -17.5813  -55.5655 N.am      22 UNK        -0.7600 
    123 O         -0.9353  -15.9734  -54.6338 O.2       22 UNK        -0.5000 
    124 C124       -0.1945  -18.0126  -52.5034 C.3       23 UNK        -0.0398 
    125 S125       -1.8031  -18.0665  -51.6490 S.3       23 UNK        -0.2404 
    126 C126       -1.2681  -18.2073  -49.9186 C.3       23 UNK        -0.0205 
    127 H127       -3.6277  -13.2985  -40.8732 H         1 UNK         0.0600 
    128 H128       -1.9107  -12.8971  -40.7712 H         1 UNK         0.0600 
    129 H129       -2.4122  -14.4654  -41.4065 H         1 UNK         0.0600 
    130 H130       -2.5610  -14.6221  -43.6303 H         1 UNK         0.3000 
    131 H131       -3.3405  -12.4505  -45.3627 H         1 UNK         0.0600 
    132 H132       -2.1805  -15.1865  -46.1211 H         1 UNK         0.0800 
    133 H133       -2.9082  -14.0341  -47.2059 H         1 UNK         0.0800 
    134 H134       -6.0765  -15.9962  -47.4994 H         1 UNK         0.0800 
    135 H135       -4.8302  -15.0427  -48.2520 H         1 UNK         0.0800 
    136 H136       -2.7472  -16.1089  -49.0037 H         1 UNK         0.1150 
    137 H137       -2.4355  -20.3727  -48.7702 H         1 UNK         0.1150 
    138 H138       -5.6334  -18.3486  -46.7551 H         1 UNK         0.1150 
    139 H139       -5.7254  -20.8711  -47.4812 H         1 UNK         0.0800 
    140 H140       -4.2193  -21.6642  -47.8340 H         1 UNK         0.0800 
    141 H141       -2.3753  -19.9862  -45.6016 H         1 UNK         0.0800 
    142 H142       -2.4446  -20.9424  -44.1563 H         1 UNK         0.0800 
    143 H143       -2.1787  -22.2717  -46.8911 H         1 UNK         0.0600 
    144 H144       -0.0797  -20.8270  -45.5078 H         1 UNK         0.3000 
    145 H145        2.5894  -22.1639  -47.0202 H         1 UNK         0.0600 
    146 H146        3.0783  -20.2854  -48.6072 H         1 UNK         0.0600 
    147 H147        1.3509  -19.9796  -48.7712 H         1 UNK         0.0600 
    148 H148        2.0372  -21.5028  -49.3230 H         1 UNK         0.0600 
    149 H149        1.6994  -19.4100  -46.3658 H         1 UNK         0.3000 
    150 H150        2.4968  -19.7304  -42.9551 H         1 UNK         0.0600 
    151 H151        4.2742  -18.2511  -44.9686 H         1 UNK         0.0600 
    152 H152        4.1019  -17.8449  -43.2614 H         1 UNK         0.0600 
    153 H153        4.8358  -19.3708  -43.7333 H         1 UNK         0.0600 
    154 H154        1.9661  -17.3842  -44.4163 H         1 UNK         0.3000 
    155 H155       -1.3594  -17.8969  -45.3297 H         1 UNK         0.0600 
    156 H156       -1.5344  -17.3763  -42.7541 H         1 UNK         0.0600 
    157 H157       -2.2394  -16.2737  -43.9075 H         1 UNK         0.0600 
    158 H158       -0.6826  -15.8908  -43.1597 H         1 UNK         0.0600 
    159 H159        0.1928  -15.5009  -45.2382 H         1 UNK         0.3000 
    160 H160        2.0770  -16.0693  -48.2099 H         1 UNK         0.0600 
    161 H161       -0.3653  -14.2900  -47.7383 H         1 UNK         0.0600 
    162 H162       -0.0615  -15.3074  -49.1297 H         1 UNK         0.0600 
    163 H163        0.9651  -13.9241  -48.8324 H         1 UNK         0.0600 
    164 H164        1.5981  -14.0134  -46.1265 H         1 UNK         0.3000 
    165 H165        4.6522  -14.7656  -44.4783 H         1 UNK         0.0600 
    166 H166        5.3743  -12.4854  -44.9887 H         1 UNK         0.0600 
    167 H167        5.4882  -13.4384  -46.4568 H         1 UNK         0.0600 
    168 H168        4.1473  -12.3172  -46.2450 H         1 UNK         0.0600 
    169 H169        3.0385  -12.5472  -44.0359 H         1 UNK         0.3000 
    170 H170        0.4683  -13.1676  -42.7738 H         1 UNK         0.0600 
    171 H171        0.3818  -15.1092  -41.2766 H         1 UNK         0.0600 
    172 H172        1.8830  -14.6480  -40.4985 H         1 UNK         0.0600 
    173 H173        0.4434  -13.6508  -40.3044 H         1 UNK         0.0600 
    174 H174        1.5499  -11.3428  -42.2293 H         1 UNK         0.3000 
    175 H175        3.3056  -10.2407  -40.0642 H         1 UNK         0.0600 
    176 H176        5.6745  -10.8007  -41.9254 H         1 UNK         0.0600 
    177 H177        5.5391   -9.4061  -40.8550 H         1 UNK         0.0600 
    178 H178        5.6344  -11.0238  -40.1824 H         1 UNK         0.0600 
    179 H179        2.5519   -8.8586  -41.6082 H         1 UNK         0.3000 
    180 H180        1.8095   -8.0306  -43.4593 H         1 UNK         0.0600 
    181 H181        4.1295   -8.0162  -45.4669 H         1 UNK         0.0600 
    182 H182        4.0627   -7.0703  -43.9850 H         1 UNK         0.0600 
    183 H183        2.9142   -6.7516  -45.2754 H         1 UNK         0.0600 
    184 H184        1.8932   -8.8765  -46.1377 H         1 UNK         0.3000 
    185 H185       -0.4017   -9.6734  -46.7860 H         1 UNK         0.0600 
    186 H186        1.7138  -10.5373  -47.6406 H         1 UNK         0.0600 
    187 H187        1.5246  -12.0550  -46.7870 H         1 UNK         0.0600 
    188 H188        0.4519  -11.6502  -48.1294 H         1 UNK         0.0600 
    189 H189       -2.0611  -10.9352  -46.1203 H         1 UNK         0.3000 
    190 H190       -3.7337  -23.4798  -45.2412 H         1 UNK         0.3000 
    191 H191       -4.2450  -25.4392  -44.3776 H         1 UNK         0.0600 
    192 H192       -2.9936  -26.4207  -42.5284 H         1 UNK         0.0600 
    193 H193       -2.9962  -24.6757  -42.3334 H         1 UNK         0.0600 
    194 H194       -1.5525  -25.4998  -42.9228 H         1 UNK         0.0600 
    195 H195       -3.1480  -25.2709  -46.9377 H         1 UNK         0.3000 
    196 H196       -1.6216  -27.7256  -47.4852 H         1 UNK         0.0600 
    197 H197       -2.8286  -25.6185  -49.3611 H         1 UNK         0.0600 
    198 H198       -1.1877  -25.5589  -48.7188 H         1 UNK         0.0600 
    199 H199       -1.6530  -26.8504  -49.8059 H         1 UNK         0.0600 
    200 H200       -2.6850  -28.7074  -49.7214 H         1 UNK         0.3000 
    201 H201       -4.8671  -30.3095  -48.9034 H         1 UNK         0.0600 
    202 H202       -4.7141  -31.1857  -51.2404 H         1 UNK         0.0600 
    203 H203       -3.1239  -31.0477  -50.5097 H         1 UNK         0.0600 
    204 H204       -3.6626  -29.8478  -51.6862 H         1 UNK         0.0600 
    205 H205       -4.9044  -27.1525  -50.3815 H         1 UNK         0.3000 
    206 H206       -7.7455  -26.9877  -50.2716 H         1 UNK         0.0600 
    207 H207       -7.6447  -28.0389  -52.5182 H         1 UNK         0.0600 
    208 H208       -8.0603  -26.3494  -52.7130 H         1 UNK         0.0600 
    209 H209       -6.4245  -26.8956  -53.0535 H         1 UNK         0.0600 
    210 H210       -8.3416  -24.7021  -51.1934 H         1 UNK         0.3000 
    211 H211       -7.0279  -22.7687  -49.6378 H         1 UNK         0.0600 
    212 H212       -8.9608  -22.4422  -52.0014 H         1 UNK         0.0600 
    213 H213       -8.5864  -21.1943  -50.8197 H         1 UNK         0.0600 
    214 H214       -9.4217  -22.6516  -50.3115 H         1 UNK         0.0600 
    215 H215       -6.0220  -20.7908  -50.2617 H         1 UNK         0.3000 
    216 H216       -4.3400  -19.6011  -51.0624 H         1 UNK         0.0600 
    217 H217       -5.9556  -19.1222  -52.8710 H         1 UNK         0.0600 
    218 H218       -5.3666  -20.4926  -53.8054 H         1 UNK         0.0600 
    219 H219       -4.3167  -19.1147  -53.4980 H         1 UNK         0.0600 
    220 H220       -3.5661  -22.0556  -50.1307 H         1 UNK         0.3000 
    221 H221       -1.8298  -23.4242  -49.9021 H         1 UNK         0.0600 
    222 H222        0.3917  -22.7884  -50.7927 H         1 UNK         0.0600 
    223 H223       -0.3355  -21.5893  -51.8530 H         1 UNK         0.0600 
    224 H224       -0.4271  -21.3986  -50.1070 H         1 UNK         0.0600 
    225 H225       -3.8350  -24.2777  -51.5071 H         1 UNK         0.3000 
    226 H226       -4.5599  -25.6566  -53.0320 H         1 UNK         0.0600 
    227 H227       -2.9284  -27.2854  -52.0865 H         1 UNK         0.0600 
    228 H228       -3.1927  -27.5579  -53.8006 H         1 UNK         0.0600 
    229 H229       -1.7169  -26.7716  -53.2602 H         1 UNK         0.0600 
    230 H230       -4.4354  -23.2551  -53.8597 H         1 UNK         0.3000 
    231 H231       -4.4220  -21.7895  -55.5090 H         1 UNK         0.0600 
    232 H232       -5.0396  -22.6100  -57.7560 H         1 UNK         0.0600 
    233 H233       -5.9027  -23.5173  -56.5256 H         1 UNK         0.0600 
    234 H234       -4.5181  -24.2388  -57.3448 H         1 UNK         0.0600 
    235 H235       -1.9618  -21.9382  -54.4957 H         1 UNK         0.3000 
    236 H236       -0.0545  -21.8707  -56.8139 H         1 UNK         0.0600 
    237 H237        0.4329  -23.6596  -55.1373 H         1 UNK         0.0600 
    238 H238        1.6974  -22.4393  -55.1988 H         1 UNK         0.0600 
    239 H239        0.5445  -22.4385  -53.8725 H         1 UNK         0.0600 
    240 H240       -1.1919  -20.1295  -53.8521 H         1 UNK         0.3000 
    241 H241        0.7518  -17.9790  -54.3844 H         1 UNK         0.0600 
    242 H242       -2.3141  -18.5643  -55.6895 H         1 UNK         0.3800 
    243 H243       -2.7047  -16.8999  -56.0418 H         1 UNK         0.3800 
    244 H244        0.2664  -17.0489  -52.2802 H         1 UNK         0.0800 
    245 H245        0.4628  -18.7633  -52.0622 H         1 UNK         0.0800 
    246 H246       -0.6209  -17.3697  -49.6705 H         1 UNK         0.0800 
    247 H247       -0.6644  -19.1053  -49.7933 H         1 UNK         0.0800 
@<TRIPOS>BOND
     1    1    2 1    
     2    1  127 1    
     3    1  128 1    
     4    1  129 1    
     5    2    3 2    
     6    2    4 am   BACKBONE|DICT|INTERRES
     7    4    5 1    
     8    4  130 1    
     9    5    6 1    
    10    5   65 1    
    11    5  131 1    
    12    6    7 1    
    13    6  132 1    
    14    6  133 1    
    15    7    8 1    
    16    8    9 1    
    17    8  134 1    
    18    8  135 1    
    19    9   10 ar   
    20    9   14 ar   
    21   10   11 ar   
    22   10  136 1    
    23   11   12 ar   
    24   11  126 1    
    25   12   13 ar   
    26   12  137 1    
    27   13   14 ar   
    28   13   15 1    
    29   14  138 1    
    30   15   16 1    
    31   15  139 1    
    32   15  140 1    
    33   16   17 1    
    34   17   18 1    
    35   17  141 1    
    36   17  142 1    
    37   18   19 1    
    38   18   67 1    
    39   18  143 1    
    40   19   20 am   BACKBONE|DICT|INTERRES
    41   19  144 1    
    42   20   21 2    
    43   20   22 1    
    44   22   23 1    
    45   22   24 1    
    46   22  145 1    
    47   23  146 1    
    48   23  147 1    
    49   23  148 1    
    50   24   25 am   BACKBONE|DICT|INTERRES
    51   24  149 1    
    52   25   26 2    
    53   25   27 1    
    54   27   28 1    
    55   27   29 1    
    56   27  150 1    
    57   28  151 1    
    58   28  152 1    
    59   28  153 1    
    60   29   30 am   BACKBONE|DICT|INTERRES
    61   29  154 1    
    62   30   31 2    
    63   30   32 1    
    64   32   33 1    
    65   32   34 1    
    66   32  155 1    
    67   33  156 1    
    68   33  157 1    
    69   33  158 1    
    70   34   35 am   BACKBONE|DICT|INTERRES
    71   34  159 1    
    72   35   36 2    
    73   35   37 1    
    74   37   38 1    
    75   37   39 1    
    76   37  160 1    
    77   38  161 1    
    78   38  162 1    
    79   38  163 1    
    80   39   40 am   BACKBONE|DICT|INTERRES
    81   39  164 1    
    82   40   41 2    
    83   40   42 1    
    84   42   43 1    
    85   42   44 1    
    86   42  165 1    
    87   43  166 1    
    88   43  167 1    
    89   43  168 1    
    90   44   45 am   BACKBONE|DICT|INTERRES
    91   44  169 1    
    92   45   46 2    
    93   45   47 1    
    94   47   48 1    
    95   47   49 1    
    96   47  170 1    
    97   48  171 1    
    98   48  172 1    
    99   48  173 1    
   100   49   50 am   BACKBONE|DICT|INTERRES
   101   49  174 1    
   102   50   51 2    
   103   50   52 1    
   104   52   53 1    
   105   52   54 1    
   106   52  175 1    
   107   53  176 1    
   108   53  177 1    
   109   53  178 1    
   110   54   55 am   BACKBONE|DICT|INTERRES
   111   54  179 1    
   112   55   56 2    
   113   55   57 1    
   114   57   58 1    
   115   57   59 1    
   116   57  180 1    
   117   58  181 1    
   118   58  182 1    
   119   58  183 1    
   120   59   60 am   BACKBONE|DICT|INTERRES
   121   59  184 1    
   122   60   61 2    
   123   60   62 1    
   124   62   63 1    
   125   62   64 1    
   126   62  185 1    
   127   63  186 1    
   128   63  187 1    
   129   63  188 1    
   130   64   65 am   BACKBONE|DICT|INTERRES
   131   64  189 1    
   132   65   66 2    
   133   67   68 2    
   134   67   69 am   BACKBONE|DICT|INTERRES
   135   69   70 1    
   136   69  190 1    
   137   70   71 1    
   138   70   72 1    
   139   70  191 1    
   140   71  192 1    
   141   71  193 1    
   142   71  194 1    
   143   72   73 2    
   144   72   74 am   BACKBONE|DICT|INTERRES
   145   74   75 1    
   146   74  195 1    
   147   75   76 1    
   148   75   77 1    
   149   75  196 1    
   150   76  197 1    
   151   76  198 1    
   152   76  199 1    
   153   77   78 2    
   154   77   79 am   BACKBONE|DICT|INTERRES
   155   79   80 1    
   156   79  200 1    
   157   80   81 1    
   158   80   82 1    
   159   80  201 1    
   160   81  202 1    
   161   81  203 1    
   162   81  204 1    
   163   82   83 2    
   164   82   84 am   BACKBONE|DICT|INTERRES
   165   84   85 1    
   166   84  205 1    
   167   85   86 1    
   168   85   87 1    
   169   85  206 1    
   170   86  207 1    
   171   86  208 1    
   172   86  209 1    
   173   87   88 2    
   174   87   89 am   BACKBONE|DICT|INTERRES
   175   89   90 1    
   176   89  210 1    
   177   90   91 1    
   178   90   92 1    
   179   90  211 1    
   180   91  212 1    
   181   91  213 1    
   182   91  214 1    
   183   92   93 2    
   184   92   94 am   BACKBONE|DICT|INTERRES
   185   94   95 1    
   186   94  215 1    
   187   95   96 1    
   188   95   97 1    
   189   95  216 1    
   190   96  217 1    
   191   96  218 1    
   192   96  219 1    
   193   97   98 2    
   194   97   99 am   BACKBONE|DICT|INTERRES
   195   99  100 1    
   196   99  220 1    
   197  100  101 1    
   198  100  102 1    
   199  100  221 1    
   200  101  222 1    
   201  101  223 1    
   202  101  224 1    
   203  102  103 2    
   204  102  104 am   BACKBONE|DICT|INTERRES
   205  104  105 1    
   206  104  225 1    
   207  105  106 1    
   208  105  107 1    
   209  105  226 1    
   210  106  227 1    
   211  106  228 1    
   212  106  229 1    
   213  107  108 2    
   214  107  109 am   BACKBONE|DICT|INTERRES
   215  109  110 1    
   216  109  230 1    
   217  110  111 1    
   218  110  112 1    
   219  110  231 1    
   220  111  232 1    
   221  111  233 1    
   222  111  234 1    
   223  112  113 2    
   224  112  114 am   BACKBONE|DICT|INTERRES
   225  114  115 1    
   226  114  235 1    
   227  115  116 1    
   228  115  117 1    
   229  115  236 1    
   230  116  237 1    
   231  116  238 1    
   232  116  239 1    
   233  117  118 2    
   234  117  119 am   BACKBONE|DICT|INTERRES
   235  119  120 1    
   236  119  240 1    
   237  120  121 1    
   238  120  124 1    
   239  120  241 1    
   240  121  122 am   BACKBONE|DICT|INTERRES
   241  121  123 2    
   242  122  242 1    
   243  122  243 1    
   244  124  125 1    
   245  124  244 1    
   246  124  245 1    
   247  125  126 1    
   248  126  246 1    
   249  126  247 1    
@<TRIPOS>SUBSTRUCTURE
     1 UNK         1 GROUP             0       ****    0 ROOT    
