@<TRIPOS>MOLECULE
3R540
247   249    1
SMALL
USER_CHARGES


@<TRIPOS>ATOM
      1 CA          6.0985  -14.5191  -47.2799 C.3       0 UNK        -0.1800 
      2 C           4.7483  -13.8200  -47.2345 C.2       0 UNK         0.5000 
      3 O           4.2505  -13.5154  -46.1506 O.2       0 UNK        -0.5000 
      4 N           4.1610  -13.5394  -48.4061 N.am      1 UNK        -0.5000 
      5 CA          2.8178  -12.9617  -48.5802 C.3       1 UNK         0.1400 
      6 C6          2.2634  -13.1620  -50.0124 C.3       23 UNK        -0.0398 
      7 S7          2.1681  -14.9215  -50.4843 S.3       23 UNK        -0.2404 
      8 C8          0.4519  -15.3293  -50.0005 C.3       23 UNK        -0.0205 
      9 C9          0.0312  -16.7768  -50.2640 C.ar      23 UNK        -0.0193 
     10 C10        -1.3328  -17.0679  -50.3785 C.ar      23 UNK        -0.1150 
     11 C11        -1.7742  -18.3708  -50.6311 C.ar      23 UNK        -0.0193 
     12 C12        -0.8300  -19.3864  -50.7932 C.ar      23 UNK        -0.1150 
     13 C13         0.5334  -19.1248  -50.6562 C.ar      23 UNK        -0.0193 
     14 C14         0.9576  -17.8226  -50.3811 C.ar      23 UNK        -0.1150 
     15 C15         1.5453  -20.2492  -50.8190 C.3       23 UNK        -0.0205 
     16 S16         1.8578  -21.1156  -49.2488 S.3       23 UNK        -0.2404 
     17 C17         0.2605  -21.9560  -48.9927 C.3       23 UNK        -0.0398 
     18 CA          0.3215  -23.0081  -47.8664 C.3       11 UNK         0.1400 
     19 N           0.4919  -22.3975  -46.5446 N.am      11 UNK        -0.5000 
     20 C           0.7793  -23.0784  -45.4278 C.2       10 UNK         0.5000 
     21 O           0.9392  -24.2985  -45.3973 O.2       10 UNK        -0.5000 
     22 CA          0.8572  -22.2723  -44.1187 C.3       10 UNK         0.1400 
     23 CB          2.1772  -21.4920  -44.0275 C.3       10 UNK        -0.1800 
     24 N          -0.2728  -21.3579  -43.9517 N.am      10 UNK        -0.5000 
     25 C          -1.5489  -21.7486  -43.8246 C.2       9 UNK         0.5000 
     26 O          -1.9038  -22.9264  -43.8028 O.2       9 UNK        -0.5000 
     27 CA         -2.6176  -20.6431  -43.7582 C.3       9 UNK         0.1400 
     28 CB         -2.6990  -20.0442  -42.3465 C.3       9 UNK        -0.1800 
     29 N          -2.4012  -19.5819  -44.7426 N.am      9 UNK        -0.5000 
     30 C          -2.3876  -19.7789  -46.0694 C.2       8 UNK         0.5000 
     31 O          -2.5857  -20.8711  -46.5975 O.2       8 UNK        -0.5000 
     32 CA         -2.0366  -18.5738  -46.9553 C.3       8 UNK         0.1400 
     33 CB         -3.2471  -17.6441  -47.1210 C.3       8 UNK        -0.1800 
     34 N          -0.8871  -17.8209  -46.4584 N.am      8 UNK        -0.5000 
     35 C           0.3428  -18.3335  -46.3083 C.2       7 UNK         0.5000 
     36 O           0.6407  -19.4937  -46.5883 O.2       7 UNK        -0.5000 
     37 CA          1.4001  -17.4219  -45.6636 C.3       7 UNK         0.1400 
     38 CB          1.9051  -16.3612  -46.6499 C.3       7 UNK        -0.1800 
     39 N           0.9008  -16.7654  -44.4574 N.am      7 UNK        -0.5000 
     40 C           0.4998  -17.4044  -43.3501 C.2       6 UNK         0.5000 
     41 O           0.5635  -18.6242  -43.1965 O.2       6 UNK        -0.5000 
     42 CA         -0.1214  -16.5324  -42.2477 C.3       6 UNK         0.1400 
     43 CB          0.9676  -15.8415  -41.4132 C.3       6 UNK        -0.1800 
     44 N          -1.0324  -15.5294  -42.7996 N.am      6 UNK        -0.5000 
     45 C          -2.2254  -15.8124  -43.3409 C.2       5 UNK         0.5000 
     46 O          -2.6907  -16.9490  -43.4160 O.2       5 UNK        -0.5000 
     47 CA         -3.0209  -14.6295  -43.9208 C.3       5 UNK         0.1400 
     48 CB         -3.7901  -13.8965  -42.8116 C.3       5 UNK        -0.1800 
     49 N          -2.1790  -13.6742  -44.6417 N.am      5 UNK        -0.5000 
     50 C          -1.5428  -13.9512  -45.7875 C.2       4 UNK         0.5000 
     51 O          -1.5778  -15.0448  -46.3475 O.2       4 UNK        -0.5000 
     52 CA         -0.6954  -12.8250  -46.3983 C.3       4 UNK         0.1400 
     53 CB         -1.5991  -11.8200  -47.1294 C.3       4 UNK        -0.1800 
     54 N           0.1663  -12.1108  -45.4500 N.am      4 UNK        -0.5000 
     55 C           1.0226  -12.6633  -44.5775 C.2       3 UNK         0.5000 
     56 O           1.1023  -13.8739  -44.3639 O.2       3 UNK        -0.5000 
     57 CA          1.9926  -11.6873  -43.8898 C.3       3 UNK         0.1400 
     58 CB          2.8371  -12.3597  -42.7930 C.3       3 UNK        -0.1800 
     59 N           2.8832  -11.1704  -44.9229 N.am      3 UNK        -0.5000 
     60 C           2.8596   -9.9303  -45.4318 C.2       2 UNK         0.5000 
     61 O           2.1879   -9.0103  -44.9648 O.2       2 UNK        -0.5000 
     62 CA          3.6784   -9.6981  -46.7216 C.3       2 UNK         0.1400 
     63 CB          5.1048   -9.2397  -46.3837 C.3       2 UNK        -0.1800 
     64 N           3.7439  -10.9036  -47.5521 N.am      2 UNK        -0.5000 
     65 C           2.6801  -11.4899  -48.1204 C.2       1 UNK         0.5000 
     66 O           1.5921  -10.9262  -48.2341 O.2       1 UNK        -0.5000 
     67 C          -0.9081  -23.9367  -47.9331 C.2       11 UNK         0.5000 
     68 O          -0.8430  -24.9641  -48.6111 O.2       11 UNK        -0.5000 
     69 N          -1.9969  -23.5766  -47.2404 N.am      12 UNK        -0.5000 
     70 CA         -3.1992  -24.3974  -47.1067 C.3       12 UNK         0.1400 
     71 CB         -4.3538  -23.5513  -46.5514 C.3       12 UNK        -0.1800 
     72 C          -2.9568  -25.6415  -46.2347 C.2       12 UNK         0.5000 
     73 O          -3.3887  -26.7299  -46.6123 O.2       12 UNK        -0.5000 
     74 N          -2.2327  -25.4800  -45.1166 N.am      13 UNK        -0.5000 
     75 CA         -1.8220  -26.5695  -44.2236 C.3       13 UNK         0.1400 
     76 CB         -1.1913  -25.9876  -42.9499 C.3       13 UNK        -0.1800 
     77 C          -0.8626  -27.5686  -44.8981 C.2       13 UNK         0.5000 
     78 O          -0.9572  -28.7701  -44.6461 O.2       13 UNK        -0.5000 
     79 N           0.0079  -27.0590  -45.7801 N.am      14 UNK        -0.5000 
     80 CA          0.8851  -27.8431  -46.6521 C.3       14 UNK         0.1400 
     81 CB          1.9866  -26.9203  -47.1984 C.3       14 UNK        -0.1800 
     82 C           0.1429  -28.5374  -47.8153 C.2       14 UNK         0.5000 
     83 O           0.7512  -29.3579  -48.5035 O.2       14 UNK        -0.5000 
     84 N          -1.1364  -28.1884  -48.0267 N.am      15 UNK        -0.5000 
     85 CA         -2.0307  -28.6427  -49.0970 C.3       15 UNK         0.1400 
     86 CB         -2.3105  -30.1557  -48.9810 C.3       15 UNK        -0.1800 
     87 C          -1.5595  -28.2177  -50.5038 C.2       15 UNK         0.5000 
     88 O          -1.8537  -28.9027  -51.4853 O.2       15 UNK        -0.5000 
     89 N          -0.8411  -27.0905  -50.5757 N.am      16 UNK        -0.5000 
     90 CA         -0.3431  -26.4963  -51.8105 C.3       16 UNK         0.1400 
     91 CB          1.0352  -25.8623  -51.5491 C.3       16 UNK        -0.1800 
     92 C          -1.3497  -25.4634  -52.3366 C.2       16 UNK         0.5000 
     93 O          -1.8663  -25.6284  -53.4426 O.2       16 UNK        -0.5000 
     94 N          -1.6144  -24.4382  -51.5103 N.am      17 UNK        -0.5000 
     95 CA         -2.4570  -23.2611  -51.7643 C.3       17 UNK         0.1400 
     96 CB         -3.9363  -23.6876  -51.8690 C.3       17 UNK        -0.1800 
     97 C          -2.0113  -22.4045  -52.9778 C.2       17 UNK         0.5000 
     98 O          -1.0222  -22.7161  -53.6444 O.2       17 UNK        -0.5000 
     99 N          -2.7422  -21.3110  -53.2300 N.am      18 UNK        -0.5000 
    100 CA        -2.5682  -20.4359  -54.3972 C.3       18 UNK         0.1400 
    101 CB        -1.3927  -19.4605  -54.1858 C.3       18 UNK        -0.1800 
    102 C         -3.8746  -19.6991  -54.7568 C.2       18 UNK         0.5000 
    103 O         -3.8249  -18.6736  -55.4377 O.2       18 UNK        -0.5000 
    104 N         -5.0181  -20.2263  -54.2883 N.am      19 UNK        -0.5000 
    105 CA        -6.3917  -19.7230  -54.4325 C.3       19 UNK         0.1400 
    106 CB        -6.8378  -19.7066  -55.9076 C.3       19 UNK        -0.1800 
    107 C         -6.6487  -18.3662  -53.7457 C.2       19 UNK         0.5000 
    108 O         -7.4493  -18.3052  -52.8109 O.2       19 UNK        -0.5000 
    109 N         -5.9669  -17.3106  -54.2037 N.am      20 UNK        -0.5000 
    110 CA        -6.0775  -15.9363  -53.7154 C.3       20 UNK         0.1400 
    111 CB        -5.2438  -15.0155  -54.6207 C.3       20 UNK        -0.1800 
    112 C         -5.6363  -15.8238  -52.2454 C.2       20 UNK         0.5000 
    113 O         -4.4539  -16.0025  -51.9598 O.2       20 UNK        -0.5000 
    114 N         -6.6077  -15.5704  -51.3564 N.am      21 UNK        -0.5000 
    115 CA        -6.5262  -15.5327  -49.8867 C.3       21 UNK         0.1400 
    116 CB        -5.3776  -14.6320  -49.3830 C.3       21 UNK        -0.1800 
    117 C         -6.5005  -16.9223  -49.2127 C.2       21 UNK         0.5000 
    118 O         -6.5826  -16.9881  -47.9858 O.2       21 UNK        -0.5000 
    119 N         -6.4237  -17.9988  -50.0037 N.am      22 UNK        -0.5000 
    120 CA        -6.5007  -19.3941  -49.5436 C.3       22 UNK         0.1400 
    121 C         -7.9536  -19.9420  -49.6054 C.2       22 UNK         0.5000 
    122 N         -8.7773  -19.5185  -50.5573 N.am      22 UNK        -0.7600 
    123 O         -8.3408  -20.7580  -48.7742 O.2       22 UNK        -0.5000 
    124 C124       -5.5438  -20.3132  -50.3474 C.3       23 UNK        -0.0398 
    125 S125       -3.7935  -20.1587  -49.8584 S.3       23 UNK        -0.2404 
    126 C126       -3.2657  -18.6613  -50.7538 C.3       23 UNK        -0.0205 
    127 H127        6.4220  -14.7102  -48.3033 H         1 UNK         0.0600 
    128 H128        6.0415  -15.4738  -46.7570 H         1 UNK         0.0600 
    129 H129        6.8553  -13.9057  -46.7912 H         1 UNK         0.0600 
    130 H130        4.6264  -13.8051  -49.2625 H         1 UNK         0.3000 
    131 H131        2.1634  -13.5209  -47.9096 H         1 UNK         0.0600 
    132 H132        2.8956  -12.6465  -50.7371 H         1 UNK         0.0800 
    133 H133        1.2686  -12.7248  -50.1163 H         1 UNK         0.0800 
    134 H134        0.3110  -15.1153  -48.9419 H         1 UNK         0.0800 
    135 H135       -0.2191  -14.6608  -50.5423 H         1 UNK         0.0800 
    136 H136       -2.0583  -16.2726  -50.2753 H         1 UNK         0.1150 
    137 H137       -1.1578  -20.3897  -51.0135 H         1 UNK         0.1150 
    138 H138        2.0149  -17.6334  -50.2695 H         1 UNK         0.1150 
    139 H139        1.2029  -20.9608  -51.5724 H         1 UNK         0.0800 
    140 H140        2.4885  -19.8465  -51.1906 H         1 UNK         0.0800 
    141 H141       -0.0171  -22.4187  -49.9408 H         1 UNK         0.0800 
    142 H142       -0.5047  -21.2117  -48.7648 H         1 UNK         0.0800 
    143 H143        1.1939  -23.6400  -48.0461 H         1 UNK         0.0600 
    144 H144        0.4149  -21.3832  -46.5008 H         1 UNK         0.3000 
    145 H145        0.8308  -22.9845  -43.2915 H         1 UNK         0.0600 
    146 H146        2.2703  -20.9884  -43.0652 H         1 UNK         0.0600 
    147 H147        3.0333  -22.1598  -44.1307 H         1 UNK         0.0600 
    148 H148        2.2549  -20.7349  -44.8080 H         1 UNK         0.0600 
    149 H149       -0.0581  -20.3652  -43.9339 H         1 UNK         0.3000 
    150 H150       -3.5811  -21.1051  -43.9827 H         1 UNK         0.0600 
    151 H151       -3.5268  -19.3397  -42.2652 H         1 UNK         0.0600 
    152 H152       -1.7834  -19.5171  -42.0780 H         1 UNK         0.0600 
    153 H153       -2.8613  -20.8230  -41.6003 H         1 UNK         0.0600 
    154 H154       -2.2609  -18.6445  -44.3786 H         1 UNK         0.3000 
    155 H155       -1.7659  -18.9637  -47.9365 H         1 UNK         0.0600 
    156 H156       -4.1160  -18.1981  -47.4765 H         1 UNK         0.0600 
    157 H157       -3.5236  -17.1679  -46.1801 H         1 UNK         0.0600 
    158 H158       -3.0453  -16.8586  -47.8489 H         1 UNK         0.0600 
    159 H159       -1.0522  -16.8428  -46.2346 H         1 UNK         0.3000 
    160 H160        2.2467  -18.0495  -45.3780 H         1 UNK         0.0600 
    161 H161        2.7622  -15.8302  -46.2384 H         1 UNK         0.0600 
    162 H162        1.1345  -15.6234  -46.8681 H         1 UNK         0.0600 
    163 H163        2.2174  -16.8101  -47.5938 H         1 UNK         0.0600 
    164 H164        0.8421  -15.7502  -44.4799 H         1 UNK         0.3000 
    165 H165       -0.6929  -17.1854  -41.5847 H         1 UNK         0.0600 
    166 H166        0.5326  -15.2455  -40.6109 H         1 UNK         0.0600 
    167 H167        1.6271  -16.5773  -40.9513 H         1 UNK         0.0600 
    168 H168        1.5885  -15.1842  -42.0221 H         1 UNK         0.0600 
    169 H169       -0.6884  -14.5815  -42.8501 H         1 UNK         0.3000 
    170 H170       -3.7487  -15.0359  -44.6265 H         1 UNK         0.0600 
    171 H171       -3.1158  -13.4390  -42.0866 H         1 UNK         0.0600 
    172 H172       -4.4235  -13.1110  -43.2242 H         1 UNK         0.0600 
    173 H173       -4.4394  -14.5841  -42.2680 H         1 UNK         0.0600 
    174 H174       -2.0819  -12.7518  -44.2434 H         1 UNK         0.3000 
    175 H175       -0.0408  -13.2849  -47.1391 H         1 UNK         0.0600 
    176 H176       -1.0136  -11.0804  -47.6747 H         1 UNK         0.0600 
    177 H177       -2.2502  -11.2851  -46.4371 H         1 UNK         0.0600 
    178 H178       -2.2367  -12.3247  -47.8568 H         1 UNK         0.0600 
    179 H179        0.1991  -11.1077  -45.5645 H         1 UNK         0.3000 
    180 H180        1.4054  -10.8881  -43.4333 H         1 UNK         0.0600 
    181 H181        3.4332  -13.1834  -43.1890 H         1 UNK         0.0600 
    182 H182        2.2017  -12.7600  -42.0025 H         1 UNK         0.0600 
    183 H183        3.5199  -11.6463  -42.3317 H         1 UNK         0.0600 
    184 H184        3.4390  -11.8790  -45.3952 H         1 UNK         0.3000 
    185 H185        3.1871   -8.9102  -47.2962 H         1 UNK         0.0600 
    186 H186        5.6489   -9.9985  -45.8196 H         1 UNK         0.0600 
    187 H187        5.6732   -9.0205  -47.2877 H         1 UNK         0.0600 
    188 H188        5.0894   -8.3304  -45.7814 H         1 UNK         0.0600 
    189 H189        4.5987  -11.4385  -47.5024 H         1 UNK         0.3000 
    190 H190       -2.0177  -22.6682  -46.7826 H         1 UNK         0.3000 
    191 H191       -3.4859  -24.7407  -48.1032 H         1 UNK         0.0600 
    192 H192       -4.5839  -22.7179  -47.2159 H         1 UNK         0.0600 
    193 H193       -5.2619  -24.1465  -46.4495 H         1 UNK         0.0600 
    194 H194       -4.1164  -23.1403  -45.5698 H         1 UNK         0.0600 
    195 H195       -1.9547  -24.5419  -44.8399 H         1 UNK         0.3000 
    196 H196       -2.7202  -27.1195  -43.9357 H         1 UNK         0.0600 
    197 H197       -0.8844  -26.7807  -42.2670 H         1 UNK         0.0600 
    198 H198       -1.8987  -25.3543  -42.4146 H         1 UNK         0.0600 
    199 H199       -0.3093  -25.3875  -43.1752 H         1 UNK         0.0600 
    200 H200        0.0798  -26.0490  -45.8571 H         1 UNK         0.3000 
    201 H201        1.3579  -28.6240  -46.0532 H         1 UNK         0.0600 
    202 H202        2.5506  -26.4561  -46.3892 H         1 UNK         0.0600 
    203 H203        1.5723  -26.1244  -47.8177 H         1 UNK         0.0600 
    204 H204        2.6971  -27.4760  -47.8115 H         1 UNK         0.0600 
    205 H205       -1.5472  -27.5107  -47.3966 H         1 UNK         0.3000 
    206 H206       -2.9770  -28.1252  -48.9358 H         1 UNK         0.0600 
    207 H207       -2.6416  -30.4184  -47.9762 H         1 UNK         0.0600 
    208 H208       -3.0979  -30.4616  -49.6706 H         1 UNK         0.0600 
    209 H209       -1.4270  -30.7517  -49.2107 H         1 UNK         0.0600 
    210 H210       -0.7068  -26.5497  -49.7265 H         1 UNK         0.3000 
    211 H211       -0.2150  -27.2668  -52.5739 H         1 UNK         0.0600 
    212 H212        1.0028  -25.1125  -50.7580 H         1 UNK         0.0600 
    213 H213        1.4167  -25.3759  -52.4478 H         1 UNK         0.0600 
    214 H214        1.7623  -26.6196  -51.2554 H         1 UNK         0.0600 
    215 H215       -1.1706  -24.4660  -50.6012 H         1 UNK         0.3000 
    216 H216       -2.3543  -22.6292  -50.8818 H         1 UNK         0.0600 
    217 H217       -4.6038  -22.8268  -51.8852 H         1 UNK         0.0600 
    218 H218       -4.2283  -24.2982  -51.0142 H         1 UNK         0.0600 
    219 H219       -4.1280  -24.2665  -52.7729 H         1 UNK         0.0600 
    220 H220       -3.4849  -21.0601  -52.5953 H         1 UNK         0.3000 
    221 H221       -2.3349  -21.0632  -55.2600 H         1 UNK         0.0600 
    222 H222       -1.6293  -18.7012  -53.4417 H         1 UNK         0.0600 
    223 H223       -0.4881  -19.9769  -53.8653 H         1 UNK         0.0600 
    224 H224       -1.1515  -18.9376  -55.1118 H         1 UNK         0.0600 
    225 H225       -4.9491  -21.1105  -53.8078 H         1 UNK         0.3000 
    226 H226       -7.0243  -20.4490  -53.9188 H         1 UNK         0.0600 
    227 H227       -6.7491  -20.6966  -56.3548 H         1 UNK         0.0600 
    228 H228       -7.8824  -19.4046  -55.9938 H         1 UNK         0.0600 
    229 H229       -6.2498  -19.0149  -56.5111 H         1 UNK         0.0600 
    230 H230       -5.2477  -17.4936  -54.8976 H         1 UNK         0.3000 
    231 H231       -7.1232  -15.6333  -53.7978 H         1 UNK         0.0600 
    232 H232       -4.1915  -15.3035  -54.6280 H         1 UNK         0.0600 
    233 H233       -5.2996  -13.9802  -54.2823 H         1 UNK         0.0600 
    234 H234       -5.6046  -15.0422  -55.6490 H         1 UNK         0.0600 
    235 H235       -7.5460  -15.4688  -51.7190 H         1 UNK         0.3000 
    236 H236       -7.4590  -15.0687  -49.5629 H         1 UNK         0.0600 
    237 H237       -4.3996  -15.0850  -49.5475 H         1 UNK         0.0600 
    238 H238       -5.3885  -13.6601  -49.8759 H         1 UNK         0.0600 
    239 H239       -5.4676  -14.4533  -48.3109 H         1 UNK         0.0600 
    240 H240       -6.4430  -17.8572  -51.0048 H         1 UNK         0.3000 
    241 H241       -6.1998  -19.4451  -48.4951 H         1 UNK         0.0600 
    242 H242       -9.7209  -19.8702  -50.5886 H         1 UNK         0.3800 
    243 H243       -8.4435  -18.9100  -51.2986 H         1 UNK         0.3800 
    244 H244       -5.8027  -21.3617  -50.1872 H         1 UNK         0.0800 
    245 H245       -5.6461  -20.1415  -51.4184 H         1 UNK         0.0800 
    246 H246       -3.8184  -17.8239  -50.3338 H         1 UNK         0.0800 
    247 H247       -3.5374  -18.7287  -51.8067 H         1 UNK         0.0800 
@<TRIPOS>BOND
     1    1    2 1    
     2    1  127 1    
     3    1  128 1    
     4    1  129 1    
     5    2    3 2    
     6    2    4 am   BACKBONE|DICT|INTERRES
     7    4    5 1    
     8    4  130 1    
     9    5    6 1    
    10    5   65 1    
    11    5  131 1    
    12    6    7 1    
    13    6  132 1    
    14    6  133 1    
    15    7    8 1    
    16    8    9 1    
    17    8  134 1    
    18    8  135 1    
    19    9   10 ar   
    20    9   14 ar   
    21   10   11 ar   
    22   10  136 1    
    23   11   12 ar   
    24   11  126 1    
    25   12   13 ar   
    26   12  137 1    
    27   13   14 ar   
    28   13   15 1    
    29   14  138 1    
    30   15   16 1    
    31   15  139 1    
    32   15  140 1    
    33   16   17 1    
    34   17   18 1    
    35   17  141 1    
    36   17  142 1    
    37   18   19 1    
    38   18   67 1    
    39   18  143 1    
    40   19   20 am   BACKBONE|DICT|INTERRES
    41   19  144 1    
    42   20   21 2    
    43   20   22 1    
    44   22   23 1    
    45   22   24 1    
    46   22  145 1    
    47   23  146 1    
    48   23  147 1    
    49   23  148 1    
    50   24   25 am   BACKBONE|DICT|INTERRES
    51   24  149 1    
    52   25   26 2    
    53   25   27 1    
    54   27   28 1    
    55   27   29 1    
    56   27  150 1    
    57   28  151 1    
    58   28  152 1    
    59   28  153 1    
    60   29   30 am   BACKBONE|DICT|INTERRES
    61   29  154 1    
    62   30   31 2    
    63   30   32 1    
    64   32   33 1    
    65   32   34 1    
    66   32  155 1    
    67   33  156 1    
    68   33  157 1    
    69   33  158 1    
    70   34   35 am   BACKBONE|DICT|INTERRES
    71   34  159 1    
    72   35   36 2    
    73   35   37 1    
    74   37   38 1    
    75   37   39 1    
    76   37  160 1    
    77   38  161 1    
    78   38  162 1    
    79   38  163 1    
    80   39   40 am   BACKBONE|DICT|INTERRES
    81   39  164 1    
    82   40   41 2    
    83   40   42 1    
    84   42   43 1    
    85   42   44 1    
    86   42  165 1    
    87   43  166 1    
    88   43  167 1    
    89   43  168 1    
    90   44   45 am   BACKBONE|DICT|INTERRES
    91   44  169 1    
    92   45   46 2    
    93   45   47 1    
    94   47   48 1    
    95   47   49 1    
    96   47  170 1    
    97   48  171 1    
    98   48  172 1    
    99   48  173 1    
   100   49   50 am   BACKBONE|DICT|INTERRES
   101   49  174 1    
   102   50   51 2    
   103   50   52 1    
   104   52   53 1    
   105   52   54 1    
   106   52  175 1    
   107   53  176 1    
   108   53  177 1    
   109   53  178 1    
   110   54   55 am   BACKBONE|DICT|INTERRES
   111   54  179 1    
   112   55   56 2    
   113   55   57 1    
   114   57   58 1    
   115   57   59 1    
   116   57  180 1    
   117   58  181 1    
   118   58  182 1    
   119   58  183 1    
   120   59   60 am   BACKBONE|DICT|INTERRES
   121   59  184 1    
   122   60   61 2    
   123   60   62 1    
   124   62   63 1    
   125   62   64 1    
   126   62  185 1    
   127   63  186 1    
   128   63  187 1    
   129   63  188 1    
   130   64   65 am   BACKBONE|DICT|INTERRES
   131   64  189 1    
   132   65   66 2    
   133   67   68 2    
   134   67   69 am   BACKBONE|DICT|INTERRES
   135   69   70 1    
   136   69  190 1    
   137   70   71 1    
   138   70   72 1    
   139   70  191 1    
   140   71  192 1    
   141   71  193 1    
   142   71  194 1    
   143   72   73 2    
   144   72   74 am   BACKBONE|DICT|INTERRES
   145   74   75 1    
   146   74  195 1    
   147   75   76 1    
   148   75   77 1    
   149   75  196 1    
   150   76  197 1    
   151   76  198 1    
   152   76  199 1    
   153   77   78 2    
   154   77   79 am   BACKBONE|DICT|INTERRES
   155   79   80 1    
   156   79  200 1    
   157   80   81 1    
   158   80   82 1    
   159   80  201 1    
   160   81  202 1    
   161   81  203 1    
   162   81  204 1    
   163   82   83 2    
   164   82   84 am   BACKBONE|DICT|INTERRES
   165   84   85 1    
   166   84  205 1    
   167   85   86 1    
   168   85   87 1    
   169   85  206 1    
   170   86  207 1    
   171   86  208 1    
   172   86  209 1    
   173   87   88 2    
   174   87   89 am   BACKBONE|DICT|INTERRES
   175   89   90 1    
   176   89  210 1    
   177   90   91 1    
   178   90   92 1    
   179   90  211 1    
   180   91  212 1    
   181   91  213 1    
   182   91  214 1    
   183   92   93 2    
   184   92   94 am   BACKBONE|DICT|INTERRES
   185   94   95 1    
   186   94  215 1    
   187   95   96 1    
   188   95   97 1    
   189   95  216 1    
   190   96  217 1    
   191   96  218 1    
   192   96  219 1    
   193   97   98 2    
   194   97   99 am   BACKBONE|DICT|INTERRES
   195   99  100 1    
   196   99  220 1    
   197  100  101 1    
   198  100  102 1    
   199  100  221 1    
   200  101  222 1    
   201  101  223 1    
   202  101  224 1    
   203  102  103 2    
   204  102  104 am   BACKBONE|DICT|INTERRES
   205  104  105 1    
   206  104  225 1    
   207  105  106 1    
   208  105  107 1    
   209  105  226 1    
   210  106  227 1    
   211  106  228 1    
   212  106  229 1    
   213  107  108 2    
   214  107  109 am   BACKBONE|DICT|INTERRES
   215  109  110 1    
   216  109  230 1    
   217  110  111 1    
   218  110  112 1    
   219  110  231 1    
   220  111  232 1    
   221  111  233 1    
   222  111  234 1    
   223  112  113 2    
   224  112  114 am   BACKBONE|DICT|INTERRES
   225  114  115 1    
   226  114  235 1    
   227  115  116 1    
   228  115  117 1    
   229  115  236 1    
   230  116  237 1    
   231  116  238 1    
   232  116  239 1    
   233  117  118 2    
   234  117  119 am   BACKBONE|DICT|INTERRES
   235  119  120 1    
   236  119  240 1    
   237  120  121 1    
   238  120  124 1    
   239  120  241 1    
   240  121  122 am   BACKBONE|DICT|INTERRES
   241  121  123 2    
   242  122  242 1    
   243  122  243 1    
   244  124  125 1    
   245  124  244 1    
   246  124  245 1    
   247  125  126 1    
   248  126  246 1    
   249  126  247 1    
@<TRIPOS>SUBSTRUCTURE
     1 UNK         1 GROUP             0       ****    0 ROOT    
