@<TRIPOS>MOLECULE
3R540
247   249    1
SMALL
USER_CHARGES


@<TRIPOS>ATOM
      1 CA         -0.7625  -16.0733  -42.2437 C.3       0 UNK        -0.1800 
      2 C           0.5219  -15.3521  -42.6223 C.2       0 UNK         0.5000 
      3 O           0.6316  -14.1505  -42.3820 O.2       0 UNK        -0.5000 
      4 N           1.4947  -16.0832  -43.1862 N.am      1 UNK        -0.5000 
      5 CA          2.7586  -15.5763  -43.7475 C.3       1 UNK         0.1400 
      6 C6          3.6516  -16.7154  -44.3048 C.3       23 UNK        -0.0398 
      7 S7          2.7986  -17.8006  -45.4966 S.3       23 UNK        -0.2404 
      8 C8          3.2918  -17.0434  -47.0743 C.3       23 UNK        -0.0205 
      9 C9          2.5788  -17.6940  -48.2502 C.ar      23 UNK        -0.0193 
     10 C10         1.6612  -16.9656  -49.0124 C.ar      23 UNK        -0.1150 
     11 C11         1.0115  -17.5486  -50.1041 C.ar      23 UNK        -0.0193 
     12 C12         1.2943  -18.8814  -50.4231 C.ar      23 UNK        -0.1150 
     13 C13         2.1888  -19.6363  -49.6556 C.ar      23 UNK        -0.0193 
     14 C14         2.8374  -19.0270  -48.5788 C.ar      23 UNK        -0.1150 
     15 C15         2.4917  -21.1023  -49.9657 C.3       23 UNK        -0.0205 
     16 S16         1.1635  -22.0291  -50.8155 S.3       23 UNK        -0.2404 
     17 C17        -0.2829  -21.8007  -49.7261 C.3       23 UNK        -0.0398 
     18 CA         -0.3780  -22.8914  -48.6349 C.3       11 UNK         0.1400 
     19 N           0.5548  -22.6505  -47.5300 N.am      11 UNK        -0.5000 
     20 C           0.9279  -23.5833  -46.6439 C.2       10 UNK         0.5000 
     21 O           0.5267  -24.7460  -46.6677 O.2       10 UNK        -0.5000 
     22 CA          1.8452  -23.1107  -45.5020 C.3       10 UNK         0.1400 
     23 CB          3.2985  -22.9870  -45.9836 C.3       10 UNK        -0.1800 
     24 N           1.4137  -21.8359  -44.9193 N.am      10 UNK        -0.5000 
     25 C           0.2448  -21.6512  -44.2865 C.2       9 UNK         0.5000 
     26 O          -0.6072  -22.5304  -44.1629 O.2       9 UNK        -0.5000 
     27 CA         -0.0501  -20.2339  -43.7792 C.3       9 UNK         0.1400 
     28 CB          1.0160  -19.7602  -42.7748 C.3       9 UNK        -0.1800 
     29 N          -0.1090  -19.3378  -44.9333 N.am      9 UNK        -0.5000 
     30 C          -1.1655  -18.5991  -45.2891 C.2       8 UNK         0.5000 
     31 O          -2.1788  -18.4575  -44.6026 O.2       8 UNK        -0.5000 
     32 CA         -1.1028  -17.9719  -46.6899 C.3       8 UNK         0.1400 
     33 CB         -1.9233  -18.8114  -47.6799 C.3       8 UNK        -0.1800 
     34 N          -1.6216  -16.6079  -46.6898 N.am      8 UNK        -0.5000 
     35 C          -0.8683  -15.5248  -46.4784 C.2       7 UNK         0.5000 
     36 O           0.3370  -15.5669  -46.2363 O.2       7 UNK        -0.5000 
     37 CA         -1.5807  -14.1664  -46.5505 C.3       7 UNK         0.1400 
     38 CB         -1.9825  -13.6799  -45.1498 C.3       7 UNK        -0.1800 
     39 N          -0.6942  -13.1821  -47.1660 N.am      7 UNK        -0.5000 
     40 C          -0.6047  -12.9700  -48.4867 C.2       6 UNK         0.5000 
     41 O          -1.3209  -13.5338  -49.3151 O.2       6 UNK        -0.5000 
     42 CA          0.4441  -11.9519  -48.9790 C.3       6 UNK         0.1400 
     43 CB         -0.2120  -10.5844  -49.2250 C.3       6 UNK        -0.1800 
     44 N           1.5575  -11.7782  -48.0479 N.am      6 UNK        -0.5000 
     45 C           2.5578  -12.6536  -47.8822 C.2       5 UNK         0.5000 
     46 O           2.7084  -13.6541  -48.5822 O.2       5 UNK        -0.5000 
     47 CA          3.5652  -12.3665  -46.7482 C.3       5 UNK         0.1400 
     48 CB          4.8971  -11.8629  -47.3253 C.3       5 UNK        -0.1800 
     49 N           3.0969  -11.4117  -45.7353 N.am      5 UNK        -0.5000 
     50 C           2.0578  -11.6192  -44.9177 C.2       4 UNK         0.5000 
     51 O           1.3160  -12.5968  -44.9950 O.2       4 UNK        -0.5000 
     52 CA          1.7639  -10.5425  -43.8714 C.3       4 UNK         0.1400 
     53 CB          0.5401   -9.7027  -44.2808 C.3       4 UNK        -0.1800 
     54 N           1.5242  -11.2084  -42.5974 N.am      4 UNK        -0.5000 
     55 C           1.6309  -10.6336  -41.3943 C.2       3 UNK         0.5000 
     56 O           1.8886   -9.4412  -41.2228 O.2       3 UNK        -0.5000 
     57 CA          1.4570  -11.5540  -40.1764 C.3       3 UNK         0.1400 
     58 CB         -0.0273  -11.8658  -39.9252 C.3       3 UNK        -0.1800 
     59 N           2.2032  -12.7989  -40.3570 N.am      3 UNK        -0.5000 
     60 C           3.5030  -12.9470  -40.0634 C.2       2 UNK         0.5000 
     61 O           4.1894  -12.0625  -39.5500 O.2       2 UNK        -0.5000 
     62 CA          4.1556  -14.3070  -40.3816 C.3       2 UNK         0.1400 
     63 CB          4.1726  -15.1984  -39.1302 C.3       2 UNK        -0.1800 
     64 N           3.4940  -15.0306  -41.4666 N.am      2 UNK        -0.5000 
     65 C           3.5855  -14.7155  -42.7663 C.2       1 UNK         0.5000 
     66 O           4.2813  -13.7963  -43.1990 O.2       1 UNK        -0.5000 
     67 C          -1.8322  -23.0565  -48.1477 C.2       11 UNK         0.5000 
     68 O          -2.6243  -23.6728  -48.8587 O.2       11 UNK        -0.5000 
     69 N          -2.1722  -22.5306  -46.9623 N.am      12 UNK        -0.5000 
     70 CA         -3.4759  -22.7462  -46.3329 C.3       12 UNK         0.1400 
     71 CB         -3.7535  -21.6535  -45.2902 C.3       12 UNK        -0.1800 
     72 C          -3.5650  -24.1550  -45.7249 C.2       12 UNK         0.5000 
     73 O          -4.5645  -24.8410  -45.9359 O.2       12 UNK        -0.5000 
     74 N          -2.4929  -24.5853  -45.0438 N.am      13 UNK        -0.5000 
     75 CA         -2.3354  -25.9334  -44.4933 C.3       13 UNK         0.1400 
     76 CB         -1.0688  -25.9828  -43.6255 C.3       13 UNK        -0.1800 
     77 C          -2.2992  -27.0252  -45.5811 C.2       13 UNK         0.5000 
     78 O          -2.9016  -28.0838  -45.4010 O.2       13 UNK        -0.5000 
     79 N          -1.6267  -26.7334  -46.7034 N.am      14 UNK        -0.5000 
     80 CA         -1.5549  -27.5963  -47.8862 C.3       14 UNK         0.1400 
     81 CB         -0.3470  -27.1695  -48.7352 C.3       14 UNK        -0.1800 
     82 C          -2.8372  -27.5853  -48.7461 C.2       14 UNK         0.5000 
     83 O          -2.9529  -28.4114  -49.6516 O.2       14 UNK        -0.5000 
     84 N          -3.7533  -26.6425  -48.4748 N.am      15 UNK        -0.5000 
     85 CA         -5.0124  -26.3745  -49.1828 C.3       15 UNK         0.1400 
     86 CB         -5.9638  -27.5867  -49.1212 C.3       15 UNK        -0.1800 
     87 C          -4.8286  -25.8363  -50.6193 C.2       15 UNK         0.5000 
     88 O          -5.7881  -25.8039  -51.3898 O.2       15 UNK        -0.5000 
     89 N          -3.6213  -25.3592  -50.9437 N.am      16 UNK        -0.5000 
     90 CA         -3.2939  -24.6772  -52.1943 C.3       16 UNK         0.1400 
     91 CB         -1.7675  -24.5773  -52.3277 C.3       16 UNK        -0.1800 
     92 C          -3.9474  -23.2860  -52.2715 C.2       16 UNK         0.5000 
     93 O          -4.4110  -22.8864  -53.3388 O.2       16 UNK        -0.5000 
     94 N          -4.0250  -22.5901  -51.1286 N.am      17 UNK        -0.5000 
     95 CA         -4.7245  -21.3105  -51.0007 C.3       17 UNK         0.1400 
     96 CB         -4.3169  -20.6256  -49.6901 C.3       17 UNK        -0.1800 
     97 C          -6.2536  -21.4738  -51.0925 C.2       17 UNK         0.5000 
     98 O          -6.9225  -20.6097  -51.6566 O.2       17 UNK        -0.5000 
     99 N          -6.7769  -22.6060  -50.5973 N.am      18 UNK        -0.5000 
    100 CA        -8.1847  -22.9955  -50.7332 C.3       18 UNK         0.1400 
    101 CB        -8.4933  -24.1631  -49.7838 C.3       18 UNK        -0.1800 
    102 C         -8.5550  -23.3480  -52.1883 C.2       18 UNK         0.5000 
    103 O         -9.6691  -23.0551  -52.6222 O.2       18 UNK        -0.5000 
    104 N         -7.5925  -23.9146  -52.9296 N.am      19 UNK        -0.5000 
    105 CA        -7.6573  -24.1560  -54.3735 C.3       19 UNK         0.1400 
    106 CB        -6.6527  -25.2629  -54.7336 C.3       19 UNK        -0.1800 
    107 C         -7.4094  -22.8871  -55.2227 C.2       19 UNK         0.5000 
    108 O         -7.4736  -22.9678  -56.4500 O.2       19 UNK        -0.5000 
    109 N         -7.1367  -21.7489  -54.5661 N.am      20 UNK        -0.5000 
    110 CA        -6.8980  -20.4162  -55.1259 C.3       20 UNK         0.1400 
    111 CB        -8.1383  -19.9009  -55.8866 C.3       20 UNK        -0.1800 
    112 C         -5.5935  -20.3019  -55.9413 C.2       20 UNK         0.5000 
    113 O         -5.5130  -19.4745  -56.8513 O.2       20 UNK        -0.5000 
    114 N         -4.5736  -21.0965  -55.5836 N.am      21 UNK        -0.5000 
    115 CA        -3.2216  -20.9967  -56.1449 C.3       21 UNK         0.1400 
    116 CB        -2.4681  -22.3118  -55.8949 C.3       21 UNK        -0.1800 
    117 C         -2.4289  -19.8040  -55.5687 C.2       21 UNK         0.5000 
    118 O         -1.4448  -19.3792  -56.1747 O.2       21 UNK        -0.5000 
    119 N         -2.8722  -19.2843  -54.4192 N.am      22 UNK        -0.5000 
    120 CA        -2.3472  -18.1012  -53.7334 C.3       22 UNK         0.1400 
    121 C         -3.4648  -17.4452  -52.8772 C.2       22 UNK         0.5000 
    122 N         -3.2879  -16.2007  -52.4587 N.am      22 UNK        -0.7600 
    123 O         -4.4900  -18.0563  -52.5814 O.2       22 UNK        -0.5000 
    124 C124       -1.0751  -18.4315  -52.9075 C.3       23 UNK        -0.0398 
    125 S125        0.0342  -16.9926  -52.6977 S.3       23 UNK        -0.2404 
    126 C126       -0.0128  -16.7292  -50.8901 C.3       23 UNK        -0.0205 
    127 H127       -0.7930  -17.0871  -42.6387 H         1 UNK         0.0600 
    128 H128       -1.6237  -15.5353  -42.6387 H         1 UNK         0.0600 
    129 H129       -0.8591  -16.1234  -41.1595 H         1 UNK         0.0600 
    130 H130        1.3195  -17.0581  -43.3781 H         1 UNK         0.3000 
    131 H131        2.4859  -14.9301  -44.5832 H         1 UNK         0.0600 
    132 H132        4.5447  -16.3053  -44.7804 H         1 UNK         0.0800 
    133 H133        4.0094  -17.3476  -43.4900 H         1 UNK         0.0800 
    134 H134        4.3703  -17.1386  -47.2065 H         1 UNK         0.0800 
    135 H135        3.0712  -15.9752  -47.0385 H         1 UNK         0.0800 
    136 H136        1.4459  -15.9400  -48.7471 H         1 UNK         0.1150 
    137 H137        0.8103  -19.3431  -51.2674 H         1 UNK         0.1150 
    138 H138        3.5445  -19.5910  -47.9864 H         1 UNK         0.1150 
    139 H139        2.7429  -21.6341  -49.0479 H         1 UNK         0.0800 
    140 H140        3.3849  -21.1389  -50.5903 H         1 UNK         0.0800 
    141 H141       -1.1539  -21.8259  -50.3837 H         1 UNK         0.0800 
    142 H142       -0.2797  -20.8054  -49.2859 H         1 UNK         0.0800 
    143 H143       -0.1104  -23.8446  -49.0946 H         1 UNK         0.0600 
    144 H144        0.9300  -21.7190  -47.4411 H         1 UNK         0.3000 
    145 H145        1.8096  -23.8690  -44.7168 H         1 UNK         0.0600 
    146 H146        3.6411  -23.9183  -46.4369 H         1 UNK         0.0600 
    147 H147        3.9694  -22.7661  -45.1533 H         1 UNK         0.0600 
    148 H148        3.4152  -22.1970  -46.7260 H         1 UNK         0.0600 
    149 H149        2.0774  -21.0769  -44.9619 H         1 UNK         0.3000 
    150 H150       -1.0128  -20.2658  -43.2644 H         1 UNK         0.0600 
    151 H151        1.9969  -19.6406  -43.2345 H         1 UNK         0.0600 
    152 H152        1.1238  -20.4756  -41.9585 H         1 UNK         0.0600 
    153 H153        0.7401  -18.8083  -42.3256 H         1 UNK         0.0600 
    154 H154        0.6893  -19.3572  -45.5522 H         1 UNK         0.3000 
    155 H155       -0.0656  -17.9720  -47.0290 H         1 UNK         0.0600 
    156 H156       -2.9881  -18.7881  -47.4447 H         1 UNK         0.0600 
    157 H157       -1.7965  -18.4534  -48.7014 H         1 UNK         0.0600 
    158 H158       -1.6107  -19.8537  -47.6575 H         1 UNK         0.0600 
    159 H159       -2.6171  -16.5065  -46.8219 H         1 UNK         0.3000 
    160 H160       -2.4887  -14.2687  -47.1488 H         1 UNK         0.0600 
    161 H161       -1.1164  -13.5665  -44.4980 H         1 UNK         0.0600 
    162 H162       -2.6632  -14.3853  -44.6722 H         1 UNK         0.0600 
    163 H163       -2.4908  -12.7169  -45.1979 H         1 UNK         0.0600 
    164 H164        0.0093  -12.7879  -46.5501 H         1 UNK         0.3000 
    165 H165        0.8378  -12.3171  -49.9301 H         1 UNK         0.0600 
    166 H166        0.5028   -9.8718  -49.6368 H         1 UNK         0.0600 
    167 H167       -1.0332  -10.6681  -49.9382 H         1 UNK         0.0600 
    168 H168       -0.6179  -10.1613  -48.3052 H         1 UNK         0.0600 
    169 H169        1.5203  -10.9767  -47.4365 H         1 UNK         0.3000 
    170 H170        3.7517  -13.3165  -46.2426 H         1 UNK         0.0600 
    171 H171        4.7806  -10.8990  -47.8221 H         1 UNK         0.0600 
    172 H172        5.6490  -11.7516  -46.5438 H         1 UNK         0.0600 
    173 H173        5.2964  -12.5644  -48.0591 H         1 UNK         0.0600 
    174 H174        3.6479  -10.5725  -45.6257 H         1 UNK         0.3000 
    175 H175        2.6360   -9.8920  -43.7767 H         1 UNK         0.0600 
    176 H176       -0.3579  -10.3170  -44.3608 H         1 UNK         0.0600 
    177 H177        0.3402   -8.9114  -43.5584 H         1 UNK         0.0600 
    178 H178        0.6996   -9.2248  -45.2481 H         1 UNK         0.0600 
    179 H179        1.3015  -12.1989  -42.6655 H         1 UNK         0.3000 
    180 H180        1.8372  -11.0288  -39.2974 H         1 UNK         0.0600 
    181 H181       -0.4907  -12.3659  -40.7759 H         1 UNK         0.0600 
    182 H182       -0.5893  -10.9496  -39.7405 H         1 UNK         0.0600 
    183 H183       -0.1525  -12.5060  -39.0519 H         1 UNK         0.0600 
    184 H184        1.7226  -13.5376  -40.8603 H         1 UNK         0.3000 
    185 H185        5.1896  -14.1150  -40.6760 H         1 UNK         0.0600 
    186 H186        4.6855  -14.7032  -38.3046 H         1 UNK         0.0600 
    187 H187        3.1633  -15.4380  -38.7929 H         1 UNK         0.0600 
    188 H188        4.6957  -16.1358  -39.3201 H         1 UNK         0.0600 
    189 H189        2.8907  -15.7956  -41.2018 H         1 UNK         0.3000 
    190 H190       -1.4629  -22.0872  -46.3991 H         1 UNK         0.3000 
    191 H191       -4.2528  -22.6738  -47.0959 H         1 UNK         0.0600 
    192 H192       -3.7284  -20.6627  -45.7436 H         1 UNK         0.0600 
    193 H193       -4.7426  -21.7823  -44.8494 H         1 UNK         0.0600 
    194 H194       -3.0316  -21.6661  -44.4748 H         1 UNK         0.0600 
    195 H195       -1.7290  -23.9369  -44.8758 H         1 UNK         0.3000 
    196 H196       -3.1958  -26.1334  -43.8513 H         1 UNK         0.0600 
    197 H197       -0.9405  -26.9685  -43.1766 H         1 UNK         0.0600 
    198 H198       -1.1204  -25.2583  -42.8124 H         1 UNK         0.0600 
    199 H199       -0.1722  -25.7668  -44.2072 H         1 UNK         0.0600 
    200 H200       -1.0794  -25.8780  -46.7319 H         1 UNK         0.3000 
    201 H201       -1.3920  -28.6241  -47.5555 H         1 UNK         0.0600 
    202 H202       -0.2120  -27.8350  -49.5888 H         1 UNK         0.0600 
    203 H203        0.5751  -27.1974  -48.1542 H         1 UNK         0.0600 
    204 H204       -0.4685  -26.1592  -49.1247 H         1 UNK         0.0600 
    205 H205       -3.5592  -26.0168  -47.7042 H         1 UNK         0.3000 
    206 H206       -5.4880  -25.5644  -48.6283 H         1 UNK         0.0600 
    207 H207       -6.0854  -27.9399  -48.0972 H         1 UNK         0.0600 
    208 H208       -6.9554  -27.3262  -49.4925 H         1 UNK         0.0600 
    209 H209       -5.6021  -28.4196  -49.7244 H         1 UNK         0.0600 
    210 H210       -2.9225  -25.3278  -50.2136 H         1 UNK         0.3000 
    211 H211       -3.6738  -25.2749  -53.0252 H         1 UNK         0.0600 
    212 H212       -1.4843  -24.0833  -53.2571 H         1 UNK         0.0600 
    213 H213       -1.3094  -25.5665  -52.3348 H         1 UNK         0.0600 
    214 H214       -1.3256  -24.0131  -51.5070 H         1 UNK         0.0600 
    215 H215       -3.6192  -22.9904  -50.2869 H         1 UNK         0.3000 
    216 H216       -4.4093  -20.6696  -51.8263 H         1 UNK         0.0600 
    217 H217       -4.7650  -19.6339  -49.6156 H         1 UNK         0.0600 
    218 H218       -3.2367  -20.4975  -49.6355 H         1 UNK         0.0600 
    219 H219       -4.6360  -21.1964  -48.8193 H         1 UNK         0.0600 
    220 H220       -6.1576  -23.2753  -50.1680 H         1 UNK         0.3000 
    221 H221       -8.8005  -22.1453  -50.4317 H         1 UNK         0.0600 
    222 H222       -7.9369  -25.0612  -50.0487 H         1 UNK         0.0600 
    223 H223       -8.2518  -23.9091  -48.7516 H         1 UNK         0.0600 
    224 H224       -9.5534  -24.4174  -49.8159 H         1 UNK         0.0600 
    225 H225       -6.7328  -24.1916  -52.4716 H         1 UNK         0.3000 
    226 H226       -8.6582  -24.5167  -54.6188 H         1 UNK         0.0600 
    227 H227       -6.7346  -25.5401  -55.7852 H         1 UNK         0.0600 
    228 H228       -5.6247  -24.9467  -54.5589 H         1 UNK         0.0600 
    229 H229       -6.8301  -26.1641  -54.1463 H         1 UNK         0.0600 
    230 H230       -7.0919  -21.7956  -53.5569 H         1 UNK         0.3000 
    231 H231       -6.7570  -19.7593  -54.2666 H         1 UNK         0.0600 
    232 H232       -8.3054  -20.4510  -56.8128 H         1 UNK         0.0600 
    233 H233       -8.0265  -18.8483  -56.1493 H         1 UNK         0.0600 
    234 H234       -9.0379  -19.9866  -55.2771 H         1 UNK         0.0600 
    235 H235       -4.6985  -21.7617  -54.8233 H         1 UNK         0.3000 
    236 H236       -3.3017  -20.8542  -57.2245 H         1 UNK         0.0600 
    237 H237       -2.2548  -22.4552  -54.8363 H         1 UNK         0.0600 
    238 H238       -3.0398  -23.1717  -56.2444 H         1 UNK         0.0600 
    239 H239       -1.5131  -22.3178  -56.4216 H         1 UNK         0.0600 
    240 H240       -3.7154  -19.6603  -54.0076 H         1 UNK         0.3000 
    241 H241       -2.0914  -17.3788  -54.5113 H         1 UNK         0.0600 
    242 H242       -2.4494  -15.6863  -52.6803 H         1 UNK         0.3800 
    243 H243       -4.0065  -15.7648  -51.9027 H         1 UNK         0.3800 
    244 H244       -0.4857  -19.1949  -53.4173 H         1 UNK         0.0800 
    245 H245       -1.3429  -18.8654  -51.9426 H         1 UNK         0.0800 
    246 H246        0.1598  -15.6662  -50.7132 H         1 UNK         0.0800 
    247 H247       -1.0126  -16.9365  -50.5073 H         1 UNK         0.0800 
@<TRIPOS>BOND
     1    1    2 1    
     2    1  127 1    
     3    1  128 1    
     4    1  129 1    
     5    2    3 2    
     6    2    4 am   BACKBONE|DICT|INTERRES
     7    4    5 1    
     8    4  130 1    
     9    5    6 1    
    10    5   65 1    
    11    5  131 1    
    12    6    7 1    
    13    6  132 1    
    14    6  133 1    
    15    7    8 1    
    16    8    9 1    
    17    8  134 1    
    18    8  135 1    
    19    9   10 ar   
    20    9   14 ar   
    21   10   11 ar   
    22   10  136 1    
    23   11   12 ar   
    24   11  126 1    
    25   12   13 ar   
    26   12  137 1    
    27   13   14 ar   
    28   13   15 1    
    29   14  138 1    
    30   15   16 1    
    31   15  139 1    
    32   15  140 1    
    33   16   17 1    
    34   17   18 1    
    35   17  141 1    
    36   17  142 1    
    37   18   19 1    
    38   18   67 1    
    39   18  143 1    
    40   19   20 am   BACKBONE|DICT|INTERRES
    41   19  144 1    
    42   20   21 2    
    43   20   22 1    
    44   22   23 1    
    45   22   24 1    
    46   22  145 1    
    47   23  146 1    
    48   23  147 1    
    49   23  148 1    
    50   24   25 am   BACKBONE|DICT|INTERRES
    51   24  149 1    
    52   25   26 2    
    53   25   27 1    
    54   27   28 1    
    55   27   29 1    
    56   27  150 1    
    57   28  151 1    
    58   28  152 1    
    59   28  153 1    
    60   29   30 am   BACKBONE|DICT|INTERRES
    61   29  154 1    
    62   30   31 2    
    63   30   32 1    
    64   32   33 1    
    65   32   34 1    
    66   32  155 1    
    67   33  156 1    
    68   33  157 1    
    69   33  158 1    
    70   34   35 am   BACKBONE|DICT|INTERRES
    71   34  159 1    
    72   35   36 2    
    73   35   37 1    
    74   37   38 1    
    75   37   39 1    
    76   37  160 1    
    77   38  161 1    
    78   38  162 1    
    79   38  163 1    
    80   39   40 am   BACKBONE|DICT|INTERRES
    81   39  164 1    
    82   40   41 2    
    83   40   42 1    
    84   42   43 1    
    85   42   44 1    
    86   42  165 1    
    87   43  166 1    
    88   43  167 1    
    89   43  168 1    
    90   44   45 am   BACKBONE|DICT|INTERRES
    91   44  169 1    
    92   45   46 2    
    93   45   47 1    
    94   47   48 1    
    95   47   49 1    
    96   47  170 1    
    97   48  171 1    
    98   48  172 1    
    99   48  173 1    
   100   49   50 am   BACKBONE|DICT|INTERRES
   101   49  174 1    
   102   50   51 2    
   103   50   52 1    
   104   52   53 1    
   105   52   54 1    
   106   52  175 1    
   107   53  176 1    
   108   53  177 1    
   109   53  178 1    
   110   54   55 am   BACKBONE|DICT|INTERRES
   111   54  179 1    
   112   55   56 2    
   113   55   57 1    
   114   57   58 1    
   115   57   59 1    
   116   57  180 1    
   117   58  181 1    
   118   58  182 1    
   119   58  183 1    
   120   59   60 am   BACKBONE|DICT|INTERRES
   121   59  184 1    
   122   60   61 2    
   123   60   62 1    
   124   62   63 1    
   125   62   64 1    
   126   62  185 1    
   127   63  186 1    
   128   63  187 1    
   129   63  188 1    
   130   64   65 am   BACKBONE|DICT|INTERRES
   131   64  189 1    
   132   65   66 2    
   133   67   68 2    
   134   67   69 am   BACKBONE|DICT|INTERRES
   135   69   70 1    
   136   69  190 1    
   137   70   71 1    
   138   70   72 1    
   139   70  191 1    
   140   71  192 1    
   141   71  193 1    
   142   71  194 1    
   143   72   73 2    
   144   72   74 am   BACKBONE|DICT|INTERRES
   145   74   75 1    
   146   74  195 1    
   147   75   76 1    
   148   75   77 1    
   149   75  196 1    
   150   76  197 1    
   151   76  198 1    
   152   76  199 1    
   153   77   78 2    
   154   77   79 am   BACKBONE|DICT|INTERRES
   155   79   80 1    
   156   79  200 1    
   157   80   81 1    
   158   80   82 1    
   159   80  201 1    
   160   81  202 1    
   161   81  203 1    
   162   81  204 1    
   163   82   83 2    
   164   82   84 am   BACKBONE|DICT|INTERRES
   165   84   85 1    
   166   84  205 1    
   167   85   86 1    
   168   85   87 1    
   169   85  206 1    
   170   86  207 1    
   171   86  208 1    
   172   86  209 1    
   173   87   88 2    
   174   87   89 am   BACKBONE|DICT|INTERRES
   175   89   90 1    
   176   89  210 1    
   177   90   91 1    
   178   90   92 1    
   179   90  211 1    
   180   91  212 1    
   181   91  213 1    
   182   91  214 1    
   183   92   93 2    
   184   92   94 am   BACKBONE|DICT|INTERRES
   185   94   95 1    
   186   94  215 1    
   187   95   96 1    
   188   95   97 1    
   189   95  216 1    
   190   96  217 1    
   191   96  218 1    
   192   96  219 1    
   193   97   98 2    
   194   97   99 am   BACKBONE|DICT|INTERRES
   195   99  100 1    
   196   99  220 1    
   197  100  101 1    
   198  100  102 1    
   199  100  221 1    
   200  101  222 1    
   201  101  223 1    
   202  101  224 1    
   203  102  103 2    
   204  102  104 am   BACKBONE|DICT|INTERRES
   205  104  105 1    
   206  104  225 1    
   207  105  106 1    
   208  105  107 1    
   209  105  226 1    
   210  106  227 1    
   211  106  228 1    
   212  106  229 1    
   213  107  108 2    
   214  107  109 am   BACKBONE|DICT|INTERRES
   215  109  110 1    
   216  109  230 1    
   217  110  111 1    
   218  110  112 1    
   219  110  231 1    
   220  111  232 1    
   221  111  233 1    
   222  111  234 1    
   223  112  113 2    
   224  112  114 am   BACKBONE|DICT|INTERRES
   225  114  115 1    
   226  114  235 1    
   227  115  116 1    
   228  115  117 1    
   229  115  236 1    
   230  116  237 1    
   231  116  238 1    
   232  116  239 1    
   233  117  118 2    
   234  117  119 am   BACKBONE|DICT|INTERRES
   235  119  120 1    
   236  119  240 1    
   237  120  121 1    
   238  120  124 1    
   239  120  241 1    
   240  121  122 am   BACKBONE|DICT|INTERRES
   241  121  123 2    
   242  122  242 1    
   243  122  243 1    
   244  124  125 1    
   245  124  244 1    
   246  124  245 1    
   247  125  126 1    
   248  126  246 1    
   249  126  247 1    
@<TRIPOS>SUBSTRUCTURE
     1 UNK         1 GROUP             0       ****    0 ROOT    
