@<TRIPOS>MOLECULE
3R540
247   249    1
SMALL
USER_CHARGES


@<TRIPOS>ATOM
      1 CA          1.2445  -16.2317  -48.4288 C.3       0 UNK        -0.1800 
      2 C           0.5662  -15.1718  -47.5769 C.2       0 UNK         0.5000 
      3 O           1.2399  -14.4595  -46.8350 O.2       0 UNK        -0.5000 
      4 N          -0.7627  -15.0474  -47.6989 N.am      1 UNK        -0.5000 
      5 CA         -1.6192  -14.1518  -46.9005 C.3       1 UNK         0.1400 
      6 C6         -3.1207  -14.5075  -47.0212 C.3       23 UNK        -0.0398 
      7 S7         -3.4657  -16.2375  -46.5541 S.3       23 UNK        -0.2404 
      8 C8         -4.2317  -16.8892  -48.0693 C.3       23 UNK        -0.0205 
      9 C9         -3.2533  -16.9610  -49.2330 C.ar      23 UNK        -0.0193 
     10 C10        -3.3498  -16.0579  -50.2954 C.ar      23 UNK        -0.1150 
     11 C11        -2.4543  -16.1257  -51.3655 C.ar      23 UNK        -0.0193 
     12 C12        -1.4643  -17.1114  -51.3706 C.ar      23 UNK        -0.1150 
     13 C13        -1.3612  -18.0314  -50.3241 C.ar      23 UNK        -0.0193 
     14 C14        -2.2577  -17.9411  -49.2523 C.ar      23 UNK        -0.1150 
     15 C15        -0.2539  -19.0817  -50.3702 C.3       23 UNK        -0.0205 
     16 S16        -0.7901  -20.7455  -49.8660 S.3       23 UNK        -0.2404 
     17 C17        -0.2611  -20.7822  -48.1234 C.3       23 UNK        -0.0398 
     18 CA         -0.4303  -22.1599  -47.4432 C.3       11 UNK         0.1400 
     19 N           0.3108  -22.2025  -46.1803 N.am      11 UNK        -0.5000 
     20 C           0.5078  -23.2966  -45.4326 C.2       10 UNK         0.5000 
     21 O           0.1063  -24.4177  -45.7403 O.2       10 UNK        -0.5000 
     22 CA          1.2308  -23.0917  -44.0892 C.3       10 UNK         0.1400 
     23 CB          2.7448  -22.9443  -44.2986 C.3       10 UNK        -0.1800 
     24 N           0.7215  -21.9351  -43.3513 N.am      10 UNK        -0.5000 
     25 C          -0.5336  -21.8181  -42.8957 C.2       9 UNK         0.5000 
     26 O          -1.3884  -22.6941  -43.0152 O.2       9 UNK        -0.5000 
     27 CA         -0.9142  -20.4828  -42.2361 C.3       9 UNK         0.1400 
     28 CB         -0.4668  -20.4464  -40.7670 C.3       9 UNK        -0.1800 
     29 N          -0.3598  -19.3329  -42.9479 N.am      9 UNK        -0.5000 
     30 C          -0.7203  -18.9509  -44.1812 C.2       8 UNK         0.5000 
     31 O          -1.5654  -19.5313  -44.8635 O.2       8 UNK        -0.5000 
     32 CA          0.0379  -17.7425  -44.7585 C.3       8 UNK         0.1400 
     33 CB         -0.4260  -16.4415  -44.0858 C.3       8 UNK        -0.1800 
     34 N           1.4860  -17.8739  -44.5931 N.am      8 UNK        -0.5000 
     35 C           2.2332  -18.8371  -45.1542 C.2       7 UNK         0.5000 
     36 O           1.7845  -19.6919  -45.9157 O.2       7 UNK        -0.5000 
     37 CA          3.7221  -18.8927  -44.7598 C.3       7 UNK         0.1400 
     38 CB          4.5508  -17.9906  -45.6866 C.3       7 UNK        -0.1800 
     39 N           3.9671  -18.5060  -43.3701 N.am      7 UNK        -0.5000 
     40 C           3.4027  -19.0674  -42.2909 C.2       6 UNK         0.5000 
     41 O           2.6928  -20.0717  -42.3417 O.2       6 UNK        -0.5000 
     42 CA          3.6201  -18.3672  -40.9331 C.3       6 UNK         0.1400 
     43 CB          4.5849  -19.1832  -40.0598 C.3       6 UNK        -0.1800 
     44 N           4.1103  -16.9854  -41.0218 N.am      6 UNK        -0.5000 
     45 C           3.4867  -15.9628  -41.6246 C.2       5 UNK         0.5000 
     46 O           2.4176  -16.0730  -42.2306 O.2       5 UNK        -0.5000 
     47 CA          4.2449  -14.6215  -41.6075 C.3       5 UNK         0.1400 
     48 CB          5.3809  -14.6434  -42.6442 C.3       5 UNK        -0.1800 
     49 N           3.3932  -13.4694  -41.8937 N.am      5 UNK        -0.5000 
     50 C           2.3953  -13.0088  -41.1274 C.2       4 UNK         0.5000 
     51 O           2.0822  -13.5070  -40.0448 O.2       4 UNK        -0.5000 
     52 CA          1.6456  -11.7554  -41.6328 C.3       4 UNK         0.1400 
     53 CB          1.8052  -10.5899  -40.6421 C.3       4 UNK        -0.1800 
     54 N           2.1082  -11.3087  -42.9521 N.am      4 UNK        -0.5000 
     55 C           1.6498  -11.7779  -44.1184 C.2       3 UNK         0.5000 
     56 O           0.7305  -12.5940  -44.2120 O.2       3 UNK        -0.5000 
     57 CA          2.3818  -11.2767  -45.3752 C.3       3 UNK         0.1400 
     58 CB          3.6933  -12.0563  -45.5707 C.3       3 UNK        -0.1800 
     59 N           1.5435  -11.4834  -46.5506 N.am      3 UNK        -0.5000 
     60 C           0.9478  -10.5186  -47.2646 C.2       2 UNK         0.5000 
     61 O           1.1264   -9.3152  -47.0717 O.2       2 UNK        -0.5000 
     62 CA         -0.0238  -10.9652  -48.3797 C.3       2 UNK         0.1400 
     63 CB          0.6718  -10.9278  -49.7491 C.3       2 UNK        -0.1800 
     64 N          -0.5601  -12.3087  -48.1597 N.am      2 UNK        -0.5000 
     65 C          -1.3924  -12.6456  -47.1648 C.2       1 UNK         0.5000 
     66 O          -1.9548  -11.8158  -46.4487 O.2       1 UNK        -0.5000 
     67 C          -1.9146  -22.5477  -47.2557 C.2       11 UNK         0.5000 
     68 O          -2.4591  -23.2931  -48.0741 O.2       11 UNK        -0.5000 
     69 N          -2.5307  -22.0758  -46.1619 N.am      12 UNK        -0.5000 
     70 CA         -3.8866  -22.4444  -45.7584 C.3       12 UNK         0.1400 
     71 CB         -4.3626  -21.5254  -44.6240 C.3       12 UNK        -0.1800 
     72 C          -4.0050  -23.9294  -45.3704 C.2       12 UNK         0.5000 
     73 O          -4.9063  -24.6091  -45.8615 O.2       12 UNK        -0.5000 
     74 N          -3.0760  -24.4170  -44.5357 N.am      13 UNK        -0.5000 
     75 CA         -3.0073  -25.8065  -44.0727 C.3       13 UNK         0.1400 
     76 CB         -1.9222  -25.9333  -42.9929 C.3       13 UNK        -0.1800 
     77 C          -2.7622  -26.8198  -45.2065 C.2       13 UNK         0.5000 
     78 O          -3.3389  -27.9076  -45.1855 O.2       13 UNK        -0.5000 
     79 N          -1.9390  -26.4336  -46.1898 N.am      14 UNK        -0.5000 
     80 CA         -1.6557  -27.2066  -47.4006 C.3       14 UNK         0.1400 
     81 CB         -0.3817  -26.6443  -48.0525 C.3       14 UNK        -0.1800 
     82 C          -2.8123  -27.2089  -48.4216 C.2       14 UNK         0.5000 
     83 O          -2.7577  -27.9809  -49.3792 O.2       14 UNK        -0.5000 
     84 N          -3.8049  -26.3252  -48.2296 N.am      15 UNK        -0.5000 
     85 CA         -4.9270  -26.0214  -49.1274 C.3       15 UNK         0.1400 
     86 CB         -5.8268  -27.2528  -49.3544 C.3       15 UNK        -0.1800 
     87 C          -4.4921  -25.3508  -50.4486 C.2       15 UNK         0.5000 
     88 O          -5.2854  -25.2604  -51.3865 O.2       15 UNK        -0.5000 
     89 N          -3.2586  -24.8320  -50.4864 N.am      16 UNK        -0.5000 
     90 CA         -2.7080  -24.0540  -51.5929 C.3       16 UNK         0.1400 
     91 CB         -1.1840  -23.9733  -51.4323 C.3       16 UNK        -0.1800 
     92 C          -3.3587  -22.6608  -51.6930 C.2       16 UNK         0.5000 
     93 O          -3.4628  -22.1134  -52.7903 O.2       16 UNK        -0.5000 
     94 N          -3.8505  -22.1434  -50.5579 N.am      17 UNK        -0.5000 
     95 CA         -4.6685  -20.9342  -50.4787 C.3       17 UNK         0.1400 
     96 CB         -4.9009  -20.5764  -49.0060 C.3       17 UNK        -0.1800 
     97 C          -6.0207  -21.1000  -51.1967 C.2       17 UNK         0.5000 
     98 O          -6.4506  -20.1891  -51.9027 O.2       17 UNK        -0.5000 
     99 N          -6.6465  -22.2761  -51.0351 N.am      18 UNK        -0.5000 
    100 CA        -7.9012  -22.6493  -51.6942 C.3       18 UNK         0.1400 
    101 CB        -8.5028  -23.8801  -50.9986 C.3       18 UNK        -0.1800 
    102 C         -7.7170  -22.9011  -53.2023 C.2       18 UNK         0.5000 
    103 O         -8.6199  -22.6024  -53.9841 O.2       18 UNK        -0.5000 
    104 N         -6.5325  -23.3976  -53.5865 N.am      19 UNK        -0.5000 
    105 CA        -6.0868  -23.5291  -54.9762 C.3       19 UNK         0.1400 
    106 CB        -4.9155  -24.5225  -55.0297 C.3       19 UNK        -0.1800 
    107 C         -5.6856  -22.1824  -55.6202 C.2       19 UNK         0.5000 
    108 O         -5.4752  -22.1408  -56.8329 O.2       19 UNK        -0.5000 
    109 N         -5.5874  -21.1198  -54.8061 N.am      20 UNK        -0.5000 
    110 CA        -5.2057  -19.7489  -55.1481 C.3       20 UNK         0.1400 
    111 CB        -6.2530  -19.0983  -56.0755 C.3       20 UNK        -0.1800 
    112 C         -3.7660  -19.6535  -55.6877 C.2       20 UNK         0.5000 
    113 O         -3.5272  -19.0146  -56.7153 O.2       20 UNK        -0.5000 
    114 N         -2.8199  -20.2790  -54.9729 N.am      21 UNK        -0.5000 
    115 CA        -1.3791  -20.2760  -55.2514 C.3       21 UNK         0.1400 
    116 CB        -0.7311  -21.4391  -54.4803 C.3       21 UNK        -0.1800 
    117 C         -0.6997  -18.9188  -54.9438 C.2       21 UNK         0.5000 
    118 O          0.2998  -18.8697  -54.2246 O.2       21 UNK        -0.5000 
    119 N         -1.2631  -17.8367  -55.4879 N.am      22 UNK        -0.5000 
    120 CA        -0.8250  -16.4453  -55.2994 C.3       22 UNK         0.1400 
    121 C          0.2509  -15.9732  -56.3202 C.2       22 UNK         0.5000 
    122 N          0.6394  -16.7765  -57.3033 N.am      22 UNK        -0.7600 
    123 O          0.7543  -14.8584  -56.2119 O.2       22 UNK        -0.5000 
    124 C124       -2.0319  -15.4703  -55.2655 C.3       23 UNK        -0.0398 
    125 S125       -3.2711  -15.9050  -53.9944 S.3       23 UNK        -0.2404 
    126 C126       -2.5450  -15.1330  -52.5134 C.3       23 UNK        -0.0205 
    127 H127        0.7747  -16.3026  -49.4091 H         1 UNK         0.0600 
    128 H128        2.2962  -15.9869  -48.5783 H         1 UNK         0.0600 
    129 H129        1.1871  -17.2029  -47.9372 H         1 UNK         0.0600 
    130 H130       -1.2595  -15.6622  -48.3296 H         1 UNK         0.3000 
    131 H131       -1.3388  -14.2989  -45.8564 H         1 UNK         0.0600 
    132 H132       -3.7167  -13.8746  -46.3612 H         1 UNK         0.0800 
    133 H133       -3.4812  -14.3087  -48.0309 H         1 UNK         0.0800 
    134 H134       -5.1027  -16.2846  -48.3269 H         1 UNK         0.0800 
    135 H135       -4.6081  -17.8871  -47.8507 H         1 UNK         0.0800 
    136 H136       -4.1216  -15.3011  -50.2902 H         1 UNK         0.1150 
    137 H137       -0.7723  -17.1653  -52.1982 H         1 UNK         0.1150 
    138 H138       -2.1959  -18.6321  -48.4270 H         1 UNK         0.1150 
    139 H139        0.5854  -18.7560  -49.7569 H         1 UNK         0.0800 
    140 H140        0.1321  -19.1655  -51.3875 H         1 UNK         0.0800 
    141 H141       -0.7638  -20.0039  -47.5500 H         1 UNK         0.0800 
    142 H142        0.7964  -20.5172  -48.1250 H         1 UNK         0.0800 
    143 H143        0.0177  -22.9137  -48.0940 H         1 UNK         0.0600 
    144 H144        0.7074  -21.3207  -45.8679 H         1 UNK         0.3000 
    145 H145        1.0568  -23.9792  -43.4775 H         1 UNK         0.0600 
    146 H146        3.2663  -22.8363  -43.3473 H         1 UNK         0.0600 
    147 H147        3.1559  -23.8219  -44.7990 H         1 UNK         0.0600 
    148 H148        2.9835  -22.0754  -44.9114 H         1 UNK         0.0600 
    149 H149        1.3801  -21.1848  -43.1589 H         1 UNK         0.3000 
    150 H150       -2.0027  -20.3987  -42.2608 H         1 UNK         0.0600 
    151 H151        0.6170  -20.5156  -40.6699 H         1 UNK         0.0600 
    152 H152       -0.8986  -21.2782  -40.2091 H         1 UNK         0.0600 
    153 H153       -0.7893  -19.5264  -40.2792 H         1 UNK         0.0600 
    154 H154        0.3840  -18.8302  -42.4871 H         1 UNK         0.3000 
    155 H155       -0.1833  -17.6811  -45.8258 H         1 UNK         0.0600 
    156 H156       -1.4913  -16.2758  -44.2463 H         1 UNK         0.0600 
    157 H157        0.1072  -15.5788  -44.4850 H         1 UNK         0.0600 
    158 H158       -0.2565  -16.4582  -43.0086 H         1 UNK         0.0600 
    159 H159        1.9250  -17.2261  -43.9477 H         1 UNK         0.3000 
    160 H160        4.0635  -19.9218  -44.8832 H         1 UNK         0.0600 
    161 H161        4.2709  -16.9412  -45.5830 H         1 UNK         0.0600 
    162 H162        4.4056  -18.2669  -46.7319 H         1 UNK         0.0600 
    163 H163        5.6165  -18.0774  -45.4737 H         1 UNK         0.0600 
    164 H164        4.5372  -17.6868  -43.2259 H         1 UNK         0.3000 
    165 H165        2.6494  -18.3383  -40.4340 H         1 UNK         0.0600 
    166 H166        4.6704  -18.7566  -39.0602 H         1 UNK         0.0600 
    167 H167        5.5839  -19.2247  -40.4956 H         1 UNK         0.0600 
    168 H168        4.2349  -20.2099  -39.9430 H         1 UNK         0.0600 
    169 H169        4.9969  -16.8077  -40.5716 H         1 UNK         0.3000 
    170 H170        4.6745  -14.4830  -40.6132 H         1 UNK         0.0600 
    171 H171        6.0819  -15.4559  -42.4493 H         1 UNK         0.0600 
    172 H172        4.9981  -14.7760  -43.6574 H         1 UNK         0.0600 
    173 H173        5.9532  -13.7156  -42.6221 H         1 UNK         0.0600 
    174 H174        3.5493  -13.0093  -42.7762 H         1 UNK         0.3000 
    175 H175        0.5852  -12.0111  -41.6863 H         1 UNK         0.0600 
    176 H176        2.8503  -10.3002  -40.5261 H         1 UNK         0.0600 
    177 H177        1.2476   -9.7131  -40.9718 H         1 UNK         0.0600 
    178 H178        1.4276  -10.8588  -39.6547 H         1 UNK         0.0600 
    179 H179        2.8632  -10.6371  -42.9543 H         1 UNK         0.3000 
    180 H180        2.6147  -10.2179  -45.2456 H         1 UNK         0.0600 
    181 H181        3.5148  -13.1295  -45.6565 H         1 UNK         0.0600 
    182 H182        4.3758  -11.9009  -44.7345 H         1 UNK         0.0600 
    183 H183        4.2111  -11.7323  -46.4737 H         1 UNK         0.0600 
    184 H184        1.2947  -12.4529  -46.7261 H         1 UNK         0.3000 
    185 H185       -0.8576  -10.2602  -48.3967 H         1 UNK         0.0600 
    186 H186       -0.0208  -11.1835  -50.5512 H         1 UNK         0.0600 
    187 H187        1.0608   -9.9312  -49.9621 H         1 UNK         0.0600 
    188 H188        1.5105  -11.6239  -49.7933 H         1 UNK         0.0600 
    189 H189       -0.1461  -13.0554  -48.6979 H         1 UNK         0.3000 
    190 H190       -2.0359  -21.4284  -45.5576 H         1 UNK         0.3000 
    191 H191       -4.5440  -22.2825  -46.6120 H         1 UNK         0.0600 
    192 H192       -5.3860  -21.7639  -44.3323 H         1 UNK         0.0600 
    193 H193       -4.3470  -20.4801  -44.9336 H         1 UNK         0.0600 
    194 H194       -3.7381  -21.6188  -43.7360 H         1 UNK         0.0600 
    195 H195       -2.3844  -23.7794  -44.1469 H         1 UNK         0.3000 
    196 H196       -3.9692  -26.0500  -43.6172 H         1 UNK         0.0600 
    197 H197       -0.9391  -25.6606  -43.3782 H         1 UNK         0.0600 
    198 H198       -2.1376  -25.2888  -42.1405 H         1 UNK         0.0600 
    199 H199       -1.8579  -26.9560  -42.6193 H         1 UNK         0.0600 
    200 H200       -1.4413  -25.5528  -46.0897 H         1 UNK         0.3000 
    201 H201       -1.4672  -28.2435  -47.1152 H         1 UNK         0.0600 
    202 H202       -0.5073  -25.6003  -48.3433 H         1 UNK         0.0600 
    203 H203       -0.1151  -27.2057  -48.9489 H         1 UNK         0.0600 
    204 H204        0.4674  -26.7016  -47.3712 H         1 UNK         0.0600 
    205 H205       -3.7576  -25.7442  -47.4012 H         1 UNK         0.3000 
    206 H206       -5.5261  -25.2757  -48.6032 H         1 UNK         0.0600 
    207 H207       -6.1154  -27.7099  -48.4079 H         1 UNK         0.0600 
    208 H208       -6.7451  -26.9737  -49.8723 H         1 UNK         0.0600 
    209 H209       -5.3331  -28.0132  -49.9597 H         1 UNK         0.0600 
    210 H210       -2.7088  -24.8592  -49.6375 H         1 UNK         0.3000 
    211 H211       -2.9197  -24.5830  -52.5233 H         1 UNK         0.0600 
    212 H212       -0.7371  -23.3365  -52.1950 H         1 UNK         0.0600 
    213 H213       -0.7301  -24.9598  -51.5271 H         1 UNK         0.0600 
    214 H214       -0.9018  -23.5750  -50.4586 H         1 UNK         0.0600 
    215 H215       -3.6465  -22.6245  -49.6898 H         1 UNK         0.3000 
    216 H216       -4.1211  -20.1176  -50.9552 H         1 UNK         0.0600 
    217 H217       -5.4373  -21.3685  -48.4844 H         1 UNK         0.0600 
    218 H218       -5.5043  -19.6729  -48.9229 H         1 UNK         0.0600 
    219 H219       -3.9603  -20.3993  -48.4844 H         1 UNK         0.0600 
    220 H220       -6.2066  -22.9847  -50.4679 H         1 UNK         0.3000 
    221 H221       -8.6036  -21.8207  -51.5804 H         1 UNK         0.0600 
    222 H222       -8.6671  -23.6935  -49.9372 H         1 UNK         0.0600 
    223 H223       -7.8597  -24.7552  -51.0904 H         1 UNK         0.0600 
    224 H224       -9.4680  -24.1388  -51.4356 H         1 UNK         0.0600 
    225 H225       -5.8738  -23.6769  -52.8705 H         1 UNK         0.3000 
    226 H226       -6.9098  -23.9422  -55.5630 H         1 UNK         0.0600 
    227 H227       -4.0249  -24.1185  -54.5496 H         1 UNK         0.0600 
    228 H228       -5.1672  -25.4633  -54.5394 H         1 UNK         0.0600 
    229 H229       -4.6497  -24.7539  -56.0618 H         1 UNK         0.0600 
    230 H230       -5.7583  -21.2771  -53.8221 H         1 UNK         0.3000 
    231 H231       -5.2110  -19.1896  -54.2114 H         1 UNK         0.0600 
    232 H232       -7.2527  -19.1636  -55.6459 H         1 UNK         0.0600 
    233 H233       -6.2776  -19.5706  -57.0579 H         1 UNK         0.0600 
    234 H234       -6.0337  -18.0407  -56.2270 H         1 UNK         0.0600 
    235 H235       -3.1069  -20.8108  -54.1544 H         1 UNK         0.3000 
    236 H236       -1.2403  -20.4675  -56.3171 H         1 UNK         0.0600 
    237 H237       -1.2123  -22.3887  -54.7159 H         1 UNK         0.0600 
    238 H238        0.3255  -21.5386  -54.7314 H         1 UNK         0.0600 
    239 H239       -0.8010  -21.2846  -53.4028 H         1 UNK         0.0600 
    240 H240       -2.0892  -17.9781  -56.0624 H         1 UNK         0.3000 
    241 H241       -0.3339  -16.3753  -54.3283 H         1 UNK         0.0600 
    242 H242        1.3411  -16.4623  -57.9554 H         1 UNK         0.3800 
    243 H243        0.2368  -17.6946  -57.4025 H         1 UNK         0.3800 
    244 H244       -2.5350  -15.4665  -56.2338 H         1 UNK         0.0800 
    245 H245       -1.7024  -14.4436  -55.0958 H         1 UNK         0.0800 
    246 H246       -3.1498  -14.2698  -52.2317 H         1 UNK         0.0800 
    247 H247       -1.5472  -14.7474  -52.7264 H         1 UNK         0.0800 
@<TRIPOS>BOND
     1    1    2 1    
     2    1  127 1    
     3    1  128 1    
     4    1  129 1    
     5    2    3 2    
     6    2    4 am   BACKBONE|DICT|INTERRES
     7    4    5 1    
     8    4  130 1    
     9    5    6 1    
    10    5   65 1    
    11    5  131 1    
    12    6    7 1    
    13    6  132 1    
    14    6  133 1    
    15    7    8 1    
    16    8    9 1    
    17    8  134 1    
    18    8  135 1    
    19    9   10 ar   
    20    9   14 ar   
    21   10   11 ar   
    22   10  136 1    
    23   11   12 ar   
    24   11  126 1    
    25   12   13 ar   
    26   12  137 1    
    27   13   14 ar   
    28   13   15 1    
    29   14  138 1    
    30   15   16 1    
    31   15  139 1    
    32   15  140 1    
    33   16   17 1    
    34   17   18 1    
    35   17  141 1    
    36   17  142 1    
    37   18   19 1    
    38   18   67 1    
    39   18  143 1    
    40   19   20 am   BACKBONE|DICT|INTERRES
    41   19  144 1    
    42   20   21 2    
    43   20   22 1    
    44   22   23 1    
    45   22   24 1    
    46   22  145 1    
    47   23  146 1    
    48   23  147 1    
    49   23  148 1    
    50   24   25 am   BACKBONE|DICT|INTERRES
    51   24  149 1    
    52   25   26 2    
    53   25   27 1    
    54   27   28 1    
    55   27   29 1    
    56   27  150 1    
    57   28  151 1    
    58   28  152 1    
    59   28  153 1    
    60   29   30 am   BACKBONE|DICT|INTERRES
    61   29  154 1    
    62   30   31 2    
    63   30   32 1    
    64   32   33 1    
    65   32   34 1    
    66   32  155 1    
    67   33  156 1    
    68   33  157 1    
    69   33  158 1    
    70   34   35 am   BACKBONE|DICT|INTERRES
    71   34  159 1    
    72   35   36 2    
    73   35   37 1    
    74   37   38 1    
    75   37   39 1    
    76   37  160 1    
    77   38  161 1    
    78   38  162 1    
    79   38  163 1    
    80   39   40 am   BACKBONE|DICT|INTERRES
    81   39  164 1    
    82   40   41 2    
    83   40   42 1    
    84   42   43 1    
    85   42   44 1    
    86   42  165 1    
    87   43  166 1    
    88   43  167 1    
    89   43  168 1    
    90   44   45 am   BACKBONE|DICT|INTERRES
    91   44  169 1    
    92   45   46 2    
    93   45   47 1    
    94   47   48 1    
    95   47   49 1    
    96   47  170 1    
    97   48  171 1    
    98   48  172 1    
    99   48  173 1    
   100   49   50 am   BACKBONE|DICT|INTERRES
   101   49  174 1    
   102   50   51 2    
   103   50   52 1    
   104   52   53 1    
   105   52   54 1    
   106   52  175 1    
   107   53  176 1    
   108   53  177 1    
   109   53  178 1    
   110   54   55 am   BACKBONE|DICT|INTERRES
   111   54  179 1    
   112   55   56 2    
   113   55   57 1    
   114   57   58 1    
   115   57   59 1    
   116   57  180 1    
   117   58  181 1    
   118   58  182 1    
   119   58  183 1    
   120   59   60 am   BACKBONE|DICT|INTERRES
   121   59  184 1    
   122   60   61 2    
   123   60   62 1    
   124   62   63 1    
   125   62   64 1    
   126   62  185 1    
   127   63  186 1    
   128   63  187 1    
   129   63  188 1    
   130   64   65 am   BACKBONE|DICT|INTERRES
   131   64  189 1    
   132   65   66 2    
   133   67   68 2    
   134   67   69 am   BACKBONE|DICT|INTERRES
   135   69   70 1    
   136   69  190 1    
   137   70   71 1    
   138   70   72 1    
   139   70  191 1    
   140   71  192 1    
   141   71  193 1    
   142   71  194 1    
   143   72   73 2    
   144   72   74 am   BACKBONE|DICT|INTERRES
   145   74   75 1    
   146   74  195 1    
   147   75   76 1    
   148   75   77 1    
   149   75  196 1    
   150   76  197 1    
   151   76  198 1    
   152   76  199 1    
   153   77   78 2    
   154   77   79 am   BACKBONE|DICT|INTERRES
   155   79   80 1    
   156   79  200 1    
   157   80   81 1    
   158   80   82 1    
   159   80  201 1    
   160   81  202 1    
   161   81  203 1    
   162   81  204 1    
   163   82   83 2    
   164   82   84 am   BACKBONE|DICT|INTERRES
   165   84   85 1    
   166   84  205 1    
   167   85   86 1    
   168   85   87 1    
   169   85  206 1    
   170   86  207 1    
   171   86  208 1    
   172   86  209 1    
   173   87   88 2    
   174   87   89 am   BACKBONE|DICT|INTERRES
   175   89   90 1    
   176   89  210 1    
   177   90   91 1    
   178   90   92 1    
   179   90  211 1    
   180   91  212 1    
   181   91  213 1    
   182   91  214 1    
   183   92   93 2    
   184   92   94 am   BACKBONE|DICT|INTERRES
   185   94   95 1    
   186   94  215 1    
   187   95   96 1    
   188   95   97 1    
   189   95  216 1    
   190   96  217 1    
   191   96  218 1    
   192   96  219 1    
   193   97   98 2    
   194   97   99 am   BACKBONE|DICT|INTERRES
   195   99  100 1    
   196   99  220 1    
   197  100  101 1    
   198  100  102 1    
   199  100  221 1    
   200  101  222 1    
   201  101  223 1    
   202  101  224 1    
   203  102  103 2    
   204  102  104 am   BACKBONE|DICT|INTERRES
   205  104  105 1    
   206  104  225 1    
   207  105  106 1    
   208  105  107 1    
   209  105  226 1    
   210  106  227 1    
   211  106  228 1    
   212  106  229 1    
   213  107  108 2    
   214  107  109 am   BACKBONE|DICT|INTERRES
   215  109  110 1    
   216  109  230 1    
   217  110  111 1    
   218  110  112 1    
   219  110  231 1    
   220  111  232 1    
   221  111  233 1    
   222  111  234 1    
   223  112  113 2    
   224  112  114 am   BACKBONE|DICT|INTERRES
   225  114  115 1    
   226  114  235 1    
   227  115  116 1    
   228  115  117 1    
   229  115  236 1    
   230  116  237 1    
   231  116  238 1    
   232  116  239 1    
   233  117  118 2    
   234  117  119 am   BACKBONE|DICT|INTERRES
   235  119  120 1    
   236  119  240 1    
   237  120  121 1    
   238  120  124 1    
   239  120  241 1    
   240  121  122 am   BACKBONE|DICT|INTERRES
   241  121  123 2    
   242  122  242 1    
   243  122  243 1    
   244  124  125 1    
   245  124  244 1    
   246  124  245 1    
   247  125  126 1    
   248  126  246 1    
   249  126  247 1    
@<TRIPOS>SUBSTRUCTURE
     1 UNK         1 GROUP             0       ****    0 ROOT    
