@<TRIPOS>MOLECULE
3R540
247   249    1
SMALL
USER_CHARGES


@<TRIPOS>ATOM
      1 CA          0.6603  -12.8253  -53.0498 C.3       0 UNK        -0.1800 
      2 C           0.2800  -12.6699  -51.5846 C.2       0 UNK         0.5000 
      3 O           0.5543  -11.6296  -50.9860 O.2       0 UNK        -0.5000 
      4 N          -0.3508  -13.6989  -51.0070 N.am      1 UNK        -0.5000 
      5 CA         -0.7816  -13.7395  -49.6030 C.3       1 UNK         0.1400 
      6 C6         -1.0091  -15.1827  -49.0899 C.3       23 UNK        -0.0398 
      7 S7          0.3546  -16.3401  -49.4366 S.3       23 UNK        -0.2404 
      8 C8         -0.5942  -17.8452  -49.8331 C.3       23 UNK        -0.0205 
      9 C9          0.2940  -18.9808  -50.3159 C.ar      23 UNK        -0.0193 
     10 C10         0.0550  -19.5839  -51.5536 C.ar      23 UNK        -0.1150 
     11 C11         0.8595  -20.6390  -52.0017 C.ar      23 UNK        -0.0193 
     12 C12         1.9080  -21.0883  -51.1916 C.ar      23 UNK        -0.1150 
     13 C13         2.1483  -20.5034  -49.9450 C.ar      23 UNK        -0.0193 
     14 C14         1.3339  -19.4546  -49.5141 C.ar      23 UNK        -0.1150 
     15 C15         3.2935  -20.9931  -49.0692 C.3       23 UNK        -0.0205 
     16 S16         2.9165  -22.5684  -48.2360 S.3       23 UNK        -0.2404 
     17 C17         1.6138  -22.0834  -47.0533 C.3       23 UNK        -0.0398 
     18 CA          0.8843  -23.3185  -46.4750 C.3       11 UNK         0.1400 
     19 N           1.7827  -24.1841  -45.7050 N.am      11 UNK        -0.5000 
     20 C           1.5053  -25.4426  -45.3409 C.2       10 UNK         0.5000 
     21 O           0.4523  -26.0168  -45.6110 O.2       10 UNK        -0.5000 
     22 CA          2.5677  -26.1650  -44.4938 C.3       10 UNK         0.1400 
     23 CB          3.7025  -26.6962  -45.3823 C.3       10 UNK        -0.1800 
     24 N           3.1272  -25.3079  -43.4484 N.am      10 UNK        -0.5000 
     25 C           2.4246  -24.8179  -42.4177 C.2       9 UNK         0.5000 
     26 O           1.2361  -25.0647  -42.2202 O.2       9 UNK        -0.5000 
     27 CA          3.1594  -23.8523  -41.4727 C.3       9 UNK         0.1400 
     28 CB          3.8817  -24.6302  -40.3628 C.3       9 UNK        -0.1800 
     29 N           4.1141  -22.9683  -42.1465 N.am      9 UNK        -0.5000 
     30 C           3.8053  -22.0967  -43.1156 C.2       8 UNK         0.5000 
     31 O           2.6911  -22.0094  -43.6375 O.2       8 UNK        -0.5000 
     32 CA          4.9358  -21.1608  -43.5789 C.3       8 UNK         0.1400 
     33 CB          5.2425  -21.3683  -45.0708 C.3       8 UNK        -0.1800 
     34 N           4.5796  -19.7619  -43.3529 N.am      8 UNK        -0.5000 
     35 C           4.3583  -19.1992  -42.1554 C.2       7 UNK         0.5000 
     36 O           4.5534  -19.7765  -41.0848 O.2       7 UNK        -0.5000 
     37 CA          3.8394  -17.7451  -42.1418 C.3       7 UNK         0.1400 
     38 CB          4.9538  -16.7799  -41.7076 C.3       7 UNK        -0.1800 
     39 N           3.3002  -17.2935  -43.4284 N.am      7 UNK        -0.5000 
     40 C           2.1654  -17.7385  -43.9836 C.2       6 UNK         0.5000 
     41 O           1.4291  -18.5772  -43.4596 O.2       6 UNK        -0.5000 
     42 CA          1.8447  -17.1789  -45.3839 C.3       6 UNK         0.1400 
     43 CB          2.7899  -17.7931  -46.4288 C.3       6 UNK        -0.1800 
     44 N           0.4597  -17.4314  -45.7866 N.am      6 UNK        -0.5000 
     45 C          -0.6022  -16.8328  -45.2355 C.2       5 UNK         0.5000 
     46 O          -0.5178  -15.9449  -44.3813 O.2       5 UNK        -0.5000 
     47 CA         -1.9848  -17.3169  -45.7089 C.3       5 UNK         0.1400 
     48 CB         -2.3290  -18.6786  -45.0796 C.3       5 UNK        -0.1800 
     49 N          -2.9875  -16.3316  -45.3063 N.am      5 UNK        -0.5000 
     50 C          -3.6095  -15.4927  -46.1401 C.2       4 UNK         0.5000 
     51 O          -3.5837  -15.6064  -47.3661 O.2       4 UNK        -0.5000 
     52 CA         -4.3578  -14.3195  -45.4812 C.3       4 UNK         0.1400 
     53 CB         -3.3739  -13.3698  -44.7755 C.3       4 UNK        -0.1800 
     54 N          -5.0989  -13.5485  -46.4759 N.am      4 UNK        -0.5000 
     55 C          -6.3647  -13.7816  -46.8425 C.2       3 UNK         0.5000 
     56 O          -7.0810  -14.6348  -46.3166 O.2       3 UNK        -0.5000 
     57 CA         -6.9455  -12.9018  -47.9693 C.3       3 UNK         0.1400 
     58 CB         -7.8964  -11.8436  -47.3877 C.3       3 UNK        -0.1800 
     59 N          -5.9240  -12.2233  -48.7719 N.am      3 UNK        -0.5000 
     60 C          -5.1674  -12.8231  -49.6999 C.2       2 UNK         0.5000 
     61 O          -5.2754  -14.0133  -49.9949 O.2       2 UNK        -0.5000 
     62 CA         -4.1223  -11.9625  -50.4423 C.3       2 UNK         0.1400 
     63 CB         -4.0280  -10.4973  -49.9577 C.3       2 UNK        -0.1800 
     64 N          -2.8074  -12.6078  -50.4284 N.am      2 UNK        -0.5000 
     65 C          -2.0572  -12.9019  -49.3541 C.2       1 UNK         0.5000 
     66 O          -2.3401  -12.5585  -48.2051 O.2       1 UNK        -0.5000 
     67 C          -0.3423  -22.9024  -45.6403 C.2       11 UNK         0.5000 
     68 O          -1.4561  -22.8736  -46.1671 O.2       11 UNK        -0.5000 
     69 N          -0.1267  -22.6310  -44.3457 N.am      12 UNK        -0.5000 
     70 CA         -1.1845  -22.3525  -43.3764 C.3       12 UNK         0.1400 
     71 CB         -0.5613  -21.8821  -42.0541 C.3       12 UNK        -0.1800 
     72 C          -2.1130  -23.5637  -43.1623 C.2       12 UNK         0.5000 
     73 O          -3.3326  -23.4044  -43.2134 O.2       12 UNK        -0.5000 
     74 N          -1.5255  -24.7555  -42.9764 N.am      13 UNK        -0.5000 
     75 CA         -2.2393  -26.0251  -42.8105 C.3       13 UNK         0.1400 
     76 CB         -1.2485  -27.1226  -42.3942 C.3       13 UNK        -0.1800 
     77 C          -3.0211  -26.4540  -44.0659 C.2       13 UNK         0.5000 
     78 O          -4.1299  -26.9751  -43.9411 O.2       13 UNK        -0.5000 
     79 N          -2.4464  -26.2043  -45.2505 N.am      14 UNK        -0.5000 
     80 CA         -3.0705  -26.4524  -46.5525 C.3       14 UNK         0.1400 
     81 CB         -1.9856  -26.4176  -47.6408 C.3       14 UNK        -0.1800 
     82 C          -4.1981  -25.4602  -46.9012 C.2       14 UNK         0.5000 
     83 O          -4.9401  -25.7167  -47.8501 O.2       14 UNK        -0.5000 
     84 N          -4.2928  -24.3497  -46.1528 N.am      15 UNK        -0.5000 
     85 CA         -5.1894  -23.2102  -46.3613 C.3       15 UNK         0.1400 
     86 CB         -6.6654  -23.6135  -46.1653 C.3       15 UNK        -0.1800 
     87 C          -4.9175  -22.5187  -47.7115 C.2       15 UNK         0.5000 
     88 O          -5.8430  -22.2401  -48.4773 O.2       15 UNK        -0.5000 
     89 N          -3.6313  -22.2438  -47.9750 N.am      16 UNK        -0.5000 
     90 CA         -3.1127  -21.6786  -49.2252 C.3       16 UNK         0.1400 
     91 CB         -1.5840  -21.7535  -49.2028 C.3       16 UNK        -0.1800 
     92 C          -3.5976  -20.2481  -49.5466 C.2       16 UNK         0.5000 
     93 O          -3.3898  -19.7743  -50.6639 O.2       16 UNK        -0.5000 
     94 N          -4.3066  -19.6137  -48.6028 N.am      17 UNK        -0.5000 
     95 CA         -5.1261  -18.4143  -48.7981 C.3       17 UNK         0.1400 
     96 CB         -5.8089  -18.0721  -47.4652 C.3       17 UNK        -0.1800 
     97 C          -6.1989  -18.5737  -49.8984 C.2       17 UNK         0.5000 
     98 O          -6.6018  -17.5789  -50.4981 O.2       17 UNK        -0.5000 
     99 N          -6.6308  -19.8179  -50.1595 N.am      18 UNK        -0.5000 
    100 CA        -7.5192  -20.1729  -51.2664 C.3       18 UNK         0.1400 
    101 CB        -8.0252  -21.6084  -51.0595 C.3       18 UNK        -0.1800 
    102 C         -6.8512  -20.0305  -52.6502 C.2       18 UNK         0.5000 
    103 O         -7.5478  -19.7459  -53.6253 O.2       18 UNK        -0.5000 
    104 N         -5.5261  -20.2268  -52.7157 N.am      19 UNK        -0.5000 
    105 CA        -4.7186  -20.0298  -53.9202 C.3       19 UNK         0.1400 
    106 CB        -3.5214  -20.9924  -53.9008 C.3       19 UNK        -0.1800 
    107 C         -4.2549  -18.5673  -54.0312 C.2       19 UNK         0.5000 
    108 O         -4.3447  -17.9829  -55.1119 O.2       19 UNK        -0.5000 
    109 N         -3.8102  -18.0019  -52.8987 N.am      20 UNK        -0.5000 
    110 CA        -3.4337  -16.6073  -52.6465 C.3       20 UNK         0.1400 
    111 CB        -4.6214  -15.6522  -52.8723 C.3       20 UNK        -0.1800 
    112 C         -2.1908  -16.1189  -53.4113 C.2       20 UNK         0.5000 
    113 O         -1.2135  -15.7211  -52.7776 O.2       20 UNK        -0.5000 
    114 N         -2.2599  -16.1208  -54.7480 N.am      21 UNK        -0.5000 
    115 CA        -1.3203  -15.4699  -55.6681 C.3       21 UNK         0.1400 
    116 CB        -1.8596  -15.6012  -57.1004 C.3       21 UNK        -0.1800 
    117 C          0.1298  -15.9817  -55.5904 C.2       21 UNK         0.5000 
    118 O          1.0582  -15.2173  -55.8553 O.2       21 UNK        -0.5000 
    119 N          0.2942  -17.2534  -55.2174 N.am      22 UNK        -0.5000 
    120 CA         1.5833  -17.8977  -54.9242 C.3       22 UNK         0.1400 
    121 C          2.1896  -17.5388  -53.5345 C.2       22 UNK         0.5000 
    122 N          1.5108  -16.7820  -52.6811 N.am      22 UNK        -0.7600 
    123 O          3.3157  -17.9300  -53.2391 O.2       22 UNK        -0.5000 
    124 C124        1.5411  -19.4292  -55.1926 C.3       23 UNK        -0.0398 
    125 S125        0.0011  -20.2625  -54.6632 S.3       23 UNK        -0.2404 
    126 C126        0.5724  -21.3535  -53.3188 C.3       23 UNK        -0.0205 
    127 H127        1.6529  -12.4126  -53.2298 H         1 UNK         0.0600 
    128 H128       -0.0518  -12.2969  -53.6832 H         1 UNK         0.0600 
    129 H129        0.6768  -13.8727  -53.3493 H         1 UNK         0.0600 
    130 H130       -0.5614  -14.5271  -51.5605 H         1 UNK         0.3000 
    131 H131        0.0137  -13.2989  -48.9979 H         1 UNK         0.0600 
    132 H132       -1.1402  -15.1657  -48.0078 H         1 UNK         0.0800 
    133 H133       -1.9331  -15.5881  -49.5067 H         1 UNK         0.0800 
    134 H134       -1.3361  -17.6070  -50.5946 H         1 UNK         0.0800 
    135 H135       -1.1472  -18.1741  -48.9534 H         1 UNK         0.0800 
    136 H136       -0.7705  -19.2397  -52.1598 H         1 UNK         0.1150 
    137 H137        2.5302  -21.9086  -51.5206 H         1 UNK         0.1150 
    138 H138        1.5066  -19.0009  -48.5525 H         1 UNK         0.1150 
    139 H139        3.5612  -20.2437  -48.3235 H         1 UNK         0.0800 
    140 H140        4.1806  -21.1303  -49.6890 H         1 UNK         0.0800 
    141 H141        0.9057  -21.4361  -47.5682 H         1 UNK         0.0800 
    142 H142        2.0570  -21.4827  -46.2579 H         1 UNK         0.0800 
    143 H143        0.5055  -23.9032  -47.3163 H         1 UNK         0.0600 
    144 H144        2.6489  -23.7673  -45.3976 H         1 UNK         0.3000 
    145 H145        2.0849  -27.0169  -44.0102 H         1 UNK         0.0600 
    146 H146        3.3122  -27.3511  -46.1624 H         1 UNK         0.0600 
    147 H147        4.4194  -27.2765  -44.8011 H         1 UNK         0.0600 
    148 H148        4.2444  -25.8871  -45.8738 H         1 UNK         0.0600 
    149 H149        4.0987  -25.0491  -43.5355 H         1 UNK         0.3000 
    150 H150        2.4045  -23.2176  -41.0047 H         1 UNK         0.0600 
    151 H151        4.3192  -23.9545  -39.6276 H         1 UNK         0.0600 
    152 H152        3.1893  -25.2832  -39.8295 H         1 UNK         0.0600 
    153 H153        4.6808  -25.2556  -40.7629 H         1 UNK         0.0600 
    154 H154        5.0524  -22.9631  -41.7733 H         1 UNK         0.3000 
    155 H155        5.8410  -21.3787  -43.0085 H         1 UNK         0.0600 
    156 H156        4.3938  -21.0996  -45.7002 H         1 UNK         0.0600 
    157 H157        5.4888  -22.4101  -45.2798 H         1 UNK         0.0600 
    158 H158        6.0939  -20.7645  -45.3852 H         1 UNK         0.0600 
    159 H159        4.3735  -19.2140  -44.1732 H         1 UNK         0.3000 
    160 H160        3.0374  -17.6957  -41.4023 H         1 UNK         0.0600 
    161 H161        5.7819  -16.7759  -42.4175 H         1 UNK         0.0600 
    162 H162        5.3580  -17.0607  -40.7340 H         1 UNK         0.0600 
    163 H163        4.5806  -15.7594  -41.6192 H         1 UNK         0.0600 
    164 H164        3.8514  -16.6075  -43.9242 H         1 UNK         0.3000 
    165 H165        2.0041  -16.0986  -45.3639 H         1 UNK         0.0600 
    166 H166        3.8349  -17.6015  -46.1829 H         1 UNK         0.0600 
    167 H167        2.6640  -18.8741  -46.4949 H         1 UNK         0.0600 
    168 H168        2.6167  -17.3622  -47.4148 H         1 UNK         0.0600 
    169 H169        0.3156  -18.1713  -46.4551 H         1 UNK         0.3000 
    170 H170       -1.9610  -17.4277  -46.7945 H         1 UNK         0.0600 
    171 H171       -2.3176  -18.6332  -43.9898 H         1 UNK         0.0600 
    172 H172       -1.6135  -19.4444  -45.3823 H         1 UNK         0.0600 
    173 H173       -3.3159  -19.0206  -45.3895 H         1 UNK         0.0600 
    174 H174       -3.0062  -16.1274  -44.3169 H         1 UNK         0.3000 
    175 H175       -5.0458  -14.7258  -44.7369 H         1 UNK         0.0600 
    176 H176       -3.8957  -12.5235  -44.3284 H         1 UNK         0.0600 
    177 H177       -2.8367  -13.8760  -43.9728 H         1 UNK         0.0600 
    178 H178       -2.6295  -12.9753  -45.4683 H         1 UNK         0.0600 
    179 H179       -4.5537  -12.8973  -47.0239 H         1 UNK         0.3000 
    180 H180       -7.5253  -13.5550  -48.6253 H         1 UNK         0.0600 
    181 H181       -7.3729  -11.1528  -46.7256 H         1 UNK         0.0600 
    182 H182       -8.6949  -12.3105  -46.8095 H         1 UNK         0.0600 
    183 H183       -8.3690  -11.2600  -48.1780 H         1 UNK         0.0600 
    184 H184       -5.7763  -11.2424  -48.5834 H         1 UNK         0.3000 
    185 H185       -4.4391  -11.9410  -51.4859 H         1 UNK         0.0600 
    186 H186       -4.9739   -9.9733  -50.0998 H         1 UNK         0.0600 
    187 H187       -3.7607  -10.4240  -48.9032 H         1 UNK         0.0600 
    188 H188       -3.2748   -9.9501  -50.5248 H         1 UNK         0.0600 
    189 H189       -2.4812  -12.9523  -51.3194 H         1 UNK         0.3000 
    190 H190        0.8285  -22.6234  -44.0004 H         1 UNK         0.3000 
    191 H191       -1.7905  -21.5346  -43.7717 H         1 UNK         0.0600 
    192 H192        0.0624  -21.0002  -42.2057 H         1 UNK         0.0600 
    193 H193       -1.3341  -21.6158  -41.3322 H         1 UNK         0.0600 
    194 H194        0.0588  -22.6553  -41.6013 H         1 UNK         0.0600 
    195 H195       -0.5119  -24.7990  -42.9045 H         1 UNK         0.3000 
    196 H196       -2.9612  -25.8965  -42.0014 H         1 UNK         0.0600 
    197 H197       -0.4701  -27.2663  -43.1446 H         1 UNK         0.0600 
    198 H198       -1.7559  -28.0784  -42.2580 H         1 UNK         0.0600 
    199 H199       -0.7619  -26.8761  -41.4504 H         1 UNK         0.0600 
    200 H200       -1.4961  -25.8463  -45.2685 H         1 UNK         0.3000 
    201 H201       -3.5083  -27.4526  -46.5390 H         1 UNK         0.0600 
    202 H202       -2.4080  -26.6207  -48.6257 H         1 UNK         0.0600 
    203 H203       -1.2188  -27.1704  -47.4579 H         1 UNK         0.0600 
    204 H204       -1.4975  -25.4434  -47.6876 H         1 UNK         0.0600 
    205 H205       -3.6221  -24.2374  -45.4035 H         1 UNK         0.3000 
    206 H206       -4.9421  -22.4823  -45.5872 H         1 UNK         0.0600 
    207 H207       -7.0085  -24.3002  -46.9394 H         1 UNK         0.0600 
    208 H208       -6.8164  -24.0943  -45.1988 H         1 UNK         0.0600 
    209 H209       -7.3144  -22.7377  -46.1977 H         1 UNK         0.0600 
    210 H210       -2.9295  -22.5057  -47.2853 H         1 UNK         0.3000 
    211 H211       -3.4663  -22.3189  -50.0356 H         1 UNK         0.0600 
    212 H212       -1.1784  -21.5383  -50.1888 H         1 UNK         0.0600 
    213 H213       -1.2345  -22.7493  -48.9305 H         1 UNK         0.0600 
    214 H214       -1.1625  -21.0365  -48.4989 H         1 UNK         0.0600 
    215 H215       -4.4258  -20.0919  -47.7231 H         1 UNK         0.3000 
    216 H216       -4.4638  -17.5945  -49.0836 H         1 UNK         0.0600 
    217 H217       -6.5258  -18.8394  -47.1701 H         1 UNK         0.0600 
    218 H218       -5.0836  -17.9691  -46.6602 H         1 UNK         0.0600 
    219 H219       -6.3479  -17.1266  -47.5382 H         1 UNK         0.0600 
    220 H220       -6.2893  -20.5869  -49.5911 H         1 UNK         0.3000 
    221 H221       -8.3795  -19.5007  -51.2419 H         1 UNK         0.0600 
    222 H222       -7.2048  -22.3275  -51.0606 H         1 UNK         0.0600 
    223 H223       -8.5541  -21.7074  -50.1114 H         1 UNK         0.0600 
    224 H224       -8.7179  -21.8974  -51.8509 H         1 UNK         0.0600 
    225 H225       -5.0164  -20.3959  -51.8586 H         1 UNK         0.3000 
    226 H226       -5.3181  -20.2635  -54.8026 H         1 UNK         0.0600 
    227 H227       -3.8490  -22.0278  -53.8079 H         1 UNK         0.0600 
    228 H228       -2.9527  -20.9154  -54.8277 H         1 UNK         0.0600 
    229 H229       -2.8369  -20.7833  -53.0781 H         1 UNK         0.0600 
    230 H230       -3.7239  -18.6116  -52.0888 H         1 UNK         0.3000 
    231 H231       -3.1897  -16.5577  -51.5848 H         1 UNK         0.0600 
    232 H232       -4.9685  -15.6564  -53.9055 H         1 UNK         0.0600 
    233 H233       -4.3468  -14.6259  -52.6259 H         1 UNK         0.0600 
    234 H234       -5.4656  -15.9181  -52.2373 H         1 UNK         0.0600 
    235 H235       -3.0804  -16.5555  -55.1615 H         1 UNK         0.3000 
    236 H236       -1.2982  -14.4096  -55.4088 H         1 UNK         0.0600 
    237 H237       -1.9470  -16.6462  -57.4006 H         1 UNK         0.0600 
    238 H238       -2.8435  -15.1416  -57.1952 H         1 UNK         0.0600 
    239 H239       -1.2004  -15.1068  -57.8152 H         1 UNK         0.0600 
    240 H240       -0.5246  -17.8084  -55.0148 H         1 UNK         0.3000 
    241 H241        2.3064  -17.4915  -55.6342 H         1 UNK         0.0600 
    242 H242        1.9086  -16.5862  -51.7773 H         1 UNK         0.3800 
    243 H243        0.5714  -16.4643  -52.8895 H         1 UNK         0.3800 
    244 H244        2.4082  -19.9355  -54.7652 H         1 UNK         0.0800 
    245 H245        1.6218  -19.5924  -56.2679 H         1 UNK         0.0800 
    246 H246        1.4497  -21.9055  -53.6594 H         1 UNK         0.0800 
    247 H247       -0.2035  -22.0968  -53.1322 H         1 UNK         0.0800 
@<TRIPOS>BOND
     1    1    2 1    
     2    1  127 1    
     3    1  128 1    
     4    1  129 1    
     5    2    3 2    
     6    2    4 am   BACKBONE|DICT|INTERRES
     7    4    5 1    
     8    4  130 1    
     9    5    6 1    
    10    5   65 1    
    11    5  131 1    
    12    6    7 1    
    13    6  132 1    
    14    6  133 1    
    15    7    8 1    
    16    8    9 1    
    17    8  134 1    
    18    8  135 1    
    19    9   10 ar   
    20    9   14 ar   
    21   10   11 ar   
    22   10  136 1    
    23   11   12 ar   
    24   11  126 1    
    25   12   13 ar   
    26   12  137 1    
    27   13   14 ar   
    28   13   15 1    
    29   14  138 1    
    30   15   16 1    
    31   15  139 1    
    32   15  140 1    
    33   16   17 1    
    34   17   18 1    
    35   17  141 1    
    36   17  142 1    
    37   18   19 1    
    38   18   67 1    
    39   18  143 1    
    40   19   20 am   BACKBONE|DICT|INTERRES
    41   19  144 1    
    42   20   21 2    
    43   20   22 1    
    44   22   23 1    
    45   22   24 1    
    46   22  145 1    
    47   23  146 1    
    48   23  147 1    
    49   23  148 1    
    50   24   25 am   BACKBONE|DICT|INTERRES
    51   24  149 1    
    52   25   26 2    
    53   25   27 1    
    54   27   28 1    
    55   27   29 1    
    56   27  150 1    
    57   28  151 1    
    58   28  152 1    
    59   28  153 1    
    60   29   30 am   BACKBONE|DICT|INTERRES
    61   29  154 1    
    62   30   31 2    
    63   30   32 1    
    64   32   33 1    
    65   32   34 1    
    66   32  155 1    
    67   33  156 1    
    68   33  157 1    
    69   33  158 1    
    70   34   35 am   BACKBONE|DICT|INTERRES
    71   34  159 1    
    72   35   36 2    
    73   35   37 1    
    74   37   38 1    
    75   37   39 1    
    76   37  160 1    
    77   38  161 1    
    78   38  162 1    
    79   38  163 1    
    80   39   40 am   BACKBONE|DICT|INTERRES
    81   39  164 1    
    82   40   41 2    
    83   40   42 1    
    84   42   43 1    
    85   42   44 1    
    86   42  165 1    
    87   43  166 1    
    88   43  167 1    
    89   43  168 1    
    90   44   45 am   BACKBONE|DICT|INTERRES
    91   44  169 1    
    92   45   46 2    
    93   45   47 1    
    94   47   48 1    
    95   47   49 1    
    96   47  170 1    
    97   48  171 1    
    98   48  172 1    
    99   48  173 1    
   100   49   50 am   BACKBONE|DICT|INTERRES
   101   49  174 1    
   102   50   51 2    
   103   50   52 1    
   104   52   53 1    
   105   52   54 1    
   106   52  175 1    
   107   53  176 1    
   108   53  177 1    
   109   53  178 1    
   110   54   55 am   BACKBONE|DICT|INTERRES
   111   54  179 1    
   112   55   56 2    
   113   55   57 1    
   114   57   58 1    
   115   57   59 1    
   116   57  180 1    
   117   58  181 1    
   118   58  182 1    
   119   58  183 1    
   120   59   60 am   BACKBONE|DICT|INTERRES
   121   59  184 1    
   122   60   61 2    
   123   60   62 1    
   124   62   63 1    
   125   62   64 1    
   126   62  185 1    
   127   63  186 1    
   128   63  187 1    
   129   63  188 1    
   130   64   65 am   BACKBONE|DICT|INTERRES
   131   64  189 1    
   132   65   66 2    
   133   67   68 2    
   134   67   69 am   BACKBONE|DICT|INTERRES
   135   69   70 1    
   136   69  190 1    
   137   70   71 1    
   138   70   72 1    
   139   70  191 1    
   140   71  192 1    
   141   71  193 1    
   142   71  194 1    
   143   72   73 2    
   144   72   74 am   BACKBONE|DICT|INTERRES
   145   74   75 1    
   146   74  195 1    
   147   75   76 1    
   148   75   77 1    
   149   75  196 1    
   150   76  197 1    
   151   76  198 1    
   152   76  199 1    
   153   77   78 2    
   154   77   79 am   BACKBONE|DICT|INTERRES
   155   79   80 1    
   156   79  200 1    
   157   80   81 1    
   158   80   82 1    
   159   80  201 1    
   160   81  202 1    
   161   81  203 1    
   162   81  204 1    
   163   82   83 2    
   164   82   84 am   BACKBONE|DICT|INTERRES
   165   84   85 1    
   166   84  205 1    
   167   85   86 1    
   168   85   87 1    
   169   85  206 1    
   170   86  207 1    
   171   86  208 1    
   172   86  209 1    
   173   87   88 2    
   174   87   89 am   BACKBONE|DICT|INTERRES
   175   89   90 1    
   176   89  210 1    
   177   90   91 1    
   178   90   92 1    
   179   90  211 1    
   180   91  212 1    
   181   91  213 1    
   182   91  214 1    
   183   92   93 2    
   184   92   94 am   BACKBONE|DICT|INTERRES
   185   94   95 1    
   186   94  215 1    
   187   95   96 1    
   188   95   97 1    
   189   95  216 1    
   190   96  217 1    
   191   96  218 1    
   192   96  219 1    
   193   97   98 2    
   194   97   99 am   BACKBONE|DICT|INTERRES
   195   99  100 1    
   196   99  220 1    
   197  100  101 1    
   198  100  102 1    
   199  100  221 1    
   200  101  222 1    
   201  101  223 1    
   202  101  224 1    
   203  102  103 2    
   204  102  104 am   BACKBONE|DICT|INTERRES
   205  104  105 1    
   206  104  225 1    
   207  105  106 1    
   208  105  107 1    
   209  105  226 1    
   210  106  227 1    
   211  106  228 1    
   212  106  229 1    
   213  107  108 2    
   214  107  109 am   BACKBONE|DICT|INTERRES
   215  109  110 1    
   216  109  230 1    
   217  110  111 1    
   218  110  112 1    
   219  110  231 1    
   220  111  232 1    
   221  111  233 1    
   222  111  234 1    
   223  112  113 2    
   224  112  114 am   BACKBONE|DICT|INTERRES
   225  114  115 1    
   226  114  235 1    
   227  115  116 1    
   228  115  117 1    
   229  115  236 1    
   230  116  237 1    
   231  116  238 1    
   232  116  239 1    
   233  117  118 2    
   234  117  119 am   BACKBONE|DICT|INTERRES
   235  119  120 1    
   236  119  240 1    
   237  120  121 1    
   238  120  124 1    
   239  120  241 1    
   240  121  122 am   BACKBONE|DICT|INTERRES
   241  121  123 2    
   242  122  242 1    
   243  122  243 1    
   244  124  125 1    
   245  124  244 1    
   246  124  245 1    
   247  125  126 1    
   248  126  246 1    
   249  126  247 1    
@<TRIPOS>SUBSTRUCTURE
     1 UNK         1 GROUP             0       ****    0 ROOT    
