@<TRIPOS>MOLECULE
3R540
247   249    1
SMALL
USER_CHARGES


@<TRIPOS>ATOM
      1 CA         -1.7024  -12.2092  -52.1008 C.3       0 UNK        -0.1800 
      2 C          -0.7448  -12.4820  -50.9498 C.2       0 UNK         0.5000 
      3 O          -0.1825  -11.5455  -50.3824 O.2       0 UNK        -0.5000 
      4 N          -0.5743  -13.7596  -50.5953 N.am      1 UNK        -0.5000 
      5 CA          0.2360  -14.2228  -49.4633 C.3       1 UNK         0.1400 
      6 C6          0.9443  -15.5635  -49.7709 C.3       23 UNK        -0.0398 
      7 S7          2.1708  -15.4016  -51.1144 S.3       23 UNK        -0.2404 
      8 C8          1.4692  -16.4837  -52.4090 C.3       23 UNK        -0.0205 
      9 C9          1.3462  -17.9614  -52.0312 C.ar      23 UNK        -0.0193 
     10 C10         0.3841  -18.7413  -52.6790 C.ar      23 UNK        -0.1150 
     11 C11         0.2048  -20.0933  -52.3524 C.ar      23 UNK        -0.0193 
     12 C12         1.0180  -20.6608  -51.3694 C.ar      23 UNK        -0.1150 
     13 C13         1.9902  -19.9003  -50.7163 C.ar      23 UNK        -0.0193 
     14 C14         2.1622  -18.5592  -51.0633 C.ar      23 UNK        -0.1150 
     15 C15         2.8350  -20.5205  -49.6141 C.3       23 UNK        -0.0205 
     16 S16         2.3908  -19.8790  -47.9665 S.3       23 UNK        -0.2404 
     17 C17         0.6526  -20.4098  -47.8010 C.3       23 UNK        -0.0398 
     18 CA          0.5196  -21.8006  -47.1390 C.3       11 UNK         0.1400 
     19 N           0.8706  -21.7915  -45.7149 N.am      11 UNK        -0.5000 
     20 C           0.9473  -22.8834  -44.9397 C.2       10 UNK         0.5000 
     21 O           0.7938  -24.0313  -45.3588 O.2       10 UNK        -0.5000 
     22 CA          1.1762  -22.6542  -43.4335 C.3       10 UNK         0.1400 
     23 CB          2.6537  -22.3625  -43.1319 C.3       10 UNK        -0.1800 
     24 N           0.3357  -21.5815  -42.8975 N.am      10 UNK        -0.5000 
     25 C          -1.0036  -21.6316  -42.8402 C.2       9 UNK         0.5000 
     26 O          -1.6649  -22.6118  -43.1810 O.2       9 UNK        -0.5000 
     27 CA         -1.7324  -20.3577  -42.3742 C.3       9 UNK         0.1400 
     28 CB         -1.7529  -20.2624  -40.8416 C.3       9 UNK        -0.1800 
     29 N          -1.1480  -19.1400  -42.9335 N.am      9 UNK        -0.5000 
     30 C          -1.0912  -18.8504  -44.2409 C.2       8 UNK         0.5000 
     31 O          -1.5828  -19.5506  -45.1230 O.2       8 UNK        -0.5000 
     32 CA         -0.3039  -17.5917  -44.6325 C.3       8 UNK         0.1400 
     33 CB         -1.1791  -16.3462  -44.4603 C.3       8 UNK        -0.1800 
     34 N           0.9357  -17.4605  -43.8647 N.am      8 UNK        -0.5000 
     35 C           1.9628  -18.3191  -43.9520 C.2       7 UNK         0.5000 
     36 O           1.9819  -19.2774  -44.7214 O.2       7 UNK        -0.5000 
     37 CA          3.1325  -18.1191  -42.9737 C.3       7 UNK         0.1400 
     38 CB          4.1893  -17.1699  -43.5524 C.3       7 UNK        -0.1800 
     39 N           2.6749  -17.6241  -41.6763 N.am      7 UNK        -0.5000 
     40 C           2.0399  -18.3909  -40.7786 C.2       6 UNK         0.5000 
     41 O           1.8324  -19.5945  -40.9381 O.2       6 UNK        -0.5000 
     42 CA          1.5057  -17.6885  -39.5159 C.3       6 UNK         0.1400 
     43 CB          2.5868  -17.6389  -38.4263 C.3       6 UNK        -0.1800 
     44 N           1.0143  -16.3323  -39.7731 N.am      6 UNK        -0.5000 
     45 C          -0.0186  -16.0354  -40.5734 C.2       5 UNK         0.5000 
     46 O          -0.6736  -16.8911  -41.1673 O.2       5 UNK        -0.5000 
     47 CA         -0.3800  -14.5464  -40.7605 C.3       5 UNK         0.1400 
     48 CB          0.1788  -13.6304  -39.6492 C.3       5 UNK        -0.1800 
     49 N          -0.0023  -14.0221  -42.0797 N.am      5 UNK        -0.5000 
     50 C           1.2179  -14.0126  -42.6368 C.2       4 UNK         0.5000 
     51 O           2.1882  -14.5881  -42.1406 O.2       4 UNK        -0.5000 
     52 CA          1.4054  -13.2359  -43.9626 C.3       4 UNK         0.1400 
     53 CB          2.2612  -14.0241  -44.9678 C.3       4 UNK        -0.1800 
     54 N           0.1680  -12.8095  -44.6289 N.am      4 UNK        -0.5000 
     55 C          -0.5742  -11.7486  -44.2764 C.2       3 UNK         0.5000 
     56 O          -0.3569  -11.0875  -43.2608 O.2       3 UNK        -0.5000 
     57 CA         -1.7379  -11.3295  -45.2016 C.3       3 UNK         0.1400 
     58 CB         -1.4164   -9.9948  -45.8929 C.3       3 UNK        -0.1800 
     59 N          -2.0635  -12.3139  -46.2339 N.am      3 UNK        -0.5000 
     60 C          -2.7721  -13.4326  -46.0375 C.2       2 UNK         0.5000 
     61 O          -3.2665  -13.7394  -44.9528 O.2       2 UNK        -0.5000 
     62 CA         -2.9512  -14.3758  -47.2482 C.3       2 UNK         0.1400 
     63 CB         -4.3436  -14.1896  -47.8693 C.3       2 UNK        -0.1800 
     64 N          -1.9491  -14.2362  -48.3096 N.am      2 UNK        -0.5000 
     65 C          -0.6173  -14.3455  -48.1834 C.2       1 UNK         0.5000 
     66 O          -0.0549  -14.5194  -47.1042 O.2       1 UNK        -0.5000 
     67 C          -0.8886  -22.3789  -47.3763 C.2       11 UNK         0.5000 
     68 O          -1.0369  -23.2651  -48.2155 O.2       11 UNK        -0.5000 
     69 N          -1.8792  -21.9109  -46.6049 N.am      12 UNK        -0.5000 
     70 CA         -3.2650  -22.3742  -46.6541 C.3       12 UNK         0.1400 
     71 CB         -4.1303  -21.5031  -45.7322 C.3       12 UNK        -0.1800 
     72 C          -3.4203  -23.8638  -46.3019 C.2       12 UNK         0.5000 
     73 O          -4.2165  -24.5506  -46.9405 O.2       12 UNK        -0.5000 
     74 N          -2.6478  -24.3514  -45.3228 N.am      13 UNK        -0.5000 
     75 CA         -2.5951  -25.7666  -44.9562 C.3       13 UNK         0.1400 
     76 CB         -1.8087  -25.9321  -43.6469 C.3       13 UNK        -0.1800 
     77 C          -1.9962  -26.6448  -46.0714 C.2       13 UNK         0.5000 
     78 O          -2.5075  -27.7364  -46.3233 O.2       13 UNK        -0.5000 
     79 N          -0.9365  -26.1500  -46.7244 N.am      14 UNK        -0.5000 
     80 CA         -0.2395  -26.8370  -47.8101 C.3       14 UNK         0.1400 
     81 CB          1.1408  -26.1917  -48.0129 C.3       14 UNK        -0.1800 
     82 C          -1.0335  -26.8468  -49.1298 C.2       14 UNK         0.5000 
     83 O          -1.1297  -27.8932  -49.7721 O.2       14 UNK        -0.5000 
     84 N          -1.5693  -25.6834  -49.5192 N.am      15 UNK        -0.5000 
     85 CA         -2.1907  -25.4421  -50.8241 C.3       15 UNK         0.1400 
     86 CB         -1.7531  -24.0570  -51.3230 C.3       15 UNK        -0.1800 
     87 C          -3.7266  -25.5729  -50.8186 C.2       15 UNK         0.5000 
     88 O          -4.3523  -25.2542  -51.8301 O.2       15 UNK        -0.5000 
     89 N          -4.3068  -26.0421  -49.7046 N.am      16 UNK        -0.5000 
     90 CA         -5.7356  -26.2992  -49.4884 C.3       16 UNK         0.1400 
     91 CB         -6.2382  -27.4330  -50.4072 C.3       16 UNK        -0.1800 
     92 C          -6.5859  -25.0158  -49.5870 C.2       16 UNK         0.5000 
     93 O          -7.4174  -24.8749  -50.4849 O.2       16 UNK        -0.5000 
     94 N          -6.3301  -24.1010  -48.6446 N.am      17 UNK        -0.5000 
     95 CA         -6.9826  -22.8091  -48.3966 C.3       17 UNK         0.1400 
     96 CB         -8.5123  -22.9559  -48.2626 C.3       17 UNK        -0.1800 
     97 C          -6.5939  -21.6801  -49.3713 C.2       17 UNK         0.5000 
     98 O          -6.9837  -20.5349  -49.1378 O.2       17 UNK        -0.5000 
     99 N          -5.8230  -21.9885  -50.4201 N.am      18 UNK        -0.5000 
    100 CA        -5.2794  -21.0074  -51.3565 C.3       18 UNK         0.1400 
    101 CB        -4.9454  -21.7203  -52.6744 C.3       18 UNK        -0.1800 
    102 C         -4.0325  -20.3242  -50.7635 C.2       18 UNK         0.5000 
    103 O         -3.2442  -20.9831  -50.0837 O.2       18 UNK        -0.5000 
    104 N         -3.8632  -19.0277  -51.0465 N.am      19 UNK        -0.5000 
    105 CA        -2.7275  -18.2179  -50.6016 C.3       19 UNK         0.1400 
    106 CB        -2.8198  -17.9173  -49.0883 C.3       19 UNK        -0.1800 
    107 C         -2.6215  -16.9435  -51.4586 C.2       19 UNK         0.5000 
    108 O         -2.4381  -15.8514  -50.9193 O.2       19 UNK        -0.5000 
    109 N         -2.7575  -17.0841  -52.7828 N.am      20 UNK        -0.5000 
    110 CA        -2.6824  -15.9715  -53.7284 C.3       20 UNK         0.1400 
    111 CB        -4.0387  -15.2438  -53.8180 C.3       20 UNK        -0.1800 
    112 C         -2.1757  -16.4721  -55.0855 C.2       20 UNK         0.5000 
    113 O         -0.9960  -16.2984  -55.3909 O.2       20 UNK        -0.5000 
    114 N         -3.0643  -17.1046  -55.8580 N.am      21 UNK        -0.5000 
    115 CA        -2.7878  -17.6796  -57.1703 C.3       21 UNK         0.1400 
    116 CB        -3.1930  -16.6721  -58.2620 C.3       21 UNK        -0.1800 
    117 C         -3.5878  -18.9909  -57.2731 C.2       21 UNK         0.5000 
    118 O         -4.8077  -18.9129  -57.4221 O.2       21 UNK        -0.5000 
    119 N         -2.9930  -20.1862  -57.1455 N.am      22 UNK        -0.5000 
    120 CA        -1.5722  -20.5476  -56.9561 C.3       22 UNK         0.1400 
    121 C         -0.6800  -20.3013  -58.2096 C.2       22 UNK         0.5000 
    122 N          0.5688  -20.7472  -58.1919 N.am      22 UNK        -0.7600 
    123 O         -1.1019  -19.7148  -59.2036 O.2       22 UNK        -0.5000 
    124 C124       -0.9255  -19.9973  -55.6489 C.3       23 UNK        -0.0398 
    125 S125       -1.9879  -20.1756  -54.1739 S.3       23 UNK        -0.2404 
    126 C126       -0.8619  -20.9845  -52.9912 C.3       23 UNK        -0.0205 
    127 H127       -2.3181  -13.0796  -52.3267 H         1 UNK         0.0600 
    128 H128       -1.1449  -11.9393  -52.9976 H         1 UNK         0.0600 
    129 H129       -2.3687  -11.3839  -51.8495 H         1 UNK         0.0600 
    130 H130       -1.1275  -14.4845  -51.0441 H         1 UNK         0.3000 
    131 H131        1.0102  -13.4841  -49.2448 H         1 UNK         0.0600 
    132 H132        0.2150  -16.3366  -50.0171 H         1 UNK         0.0800 
    133 H133        1.4814  -15.9261  -48.8922 H         1 UNK         0.0800 
    134 H134        2.0947  -16.4087  -53.2991 H         1 UNK         0.0800 
    135 H135        0.4906  -16.0887  -52.6869 H         1 UNK         0.0800 
    136 H136       -0.2299  -18.2714  -53.4309 H         1 UNK         0.1150 
    137 H137        0.8781  -21.6977  -51.0962 H         1 UNK         0.1150 
    138 H138        2.9197  -17.9828  -50.5525 H         1 UNK         0.1150 
    139 H139        2.7399  -21.6074  -49.6143 H         1 UNK         0.0800 
    140 H140        3.8873  -20.3055  -49.8050 H         1 UNK         0.0800 
    141 H141        0.1756  -20.3930  -48.7811 H         1 UNK         0.0800 
    142 H142        0.1253  -19.6583  -47.2130 H         1 UNK         0.0800 
    143 H143        1.2185  -22.4770  -47.6358 H         1 UNK         0.0600 
    144 H144        1.0739  -20.8832  -45.3063 H         1 UNK         0.3000 
    145 H145        0.9049  -23.5761  -42.9147 H         1 UNK         0.0600 
    146 H146        2.8203  -22.2360  -42.0619 H         1 UNK         0.0600 
    147 H147        3.2871  -23.1852  -43.4657 H         1 UNK         0.0600 
    148 H148        3.0014  -21.4598  -43.6330 H         1 UNK         0.0600 
    149 H149        0.8077  -20.7486  -42.5682 H         1 UNK         0.3000 
    150 H150       -2.7650  -20.4184  -42.7230 H         1 UNK         0.0600 
    151 H151       -2.2260  -21.1419  -40.4031 H         1 UNK         0.0600 
    152 H152       -2.3148  -19.3895  -40.5087 H         1 UNK         0.0600 
    153 H153       -0.7476  -20.1897  -40.4270 H         1 UNK         0.0600 
    154 H154       -0.7766  -18.4631  -42.2728 H         1 UNK         0.3000 
    155 H155       -0.0379  -17.6730  -45.6886 H         1 UNK         0.0600 
    156 H156       -1.4979  -16.1956  -43.4312 H         1 UNK         0.0600 
    157 H157       -2.0851  -16.4353  -45.0574 H         1 UNK         0.0600 
    158 H158       -0.6574  -15.4491  -44.7819 H         1 UNK         0.0600 
    159 H159        0.9682  -16.7376  -43.1615 H         1 UNK         0.3000 
    160 H160        3.6079  -19.0914  -42.8272 H         1 UNK         0.0600 
    161 H161        3.8006  -16.1609  -43.6685 H         1 UNK         0.0600 
    162 H162        4.5262  -17.5095  -44.5327 H         1 UNK         0.0600 
    163 H163        5.0655  -17.1172  -42.9062 H         1 UNK         0.0600 
    164 H164        2.7596  -16.6284  -41.5066 H         1 UNK         0.3000 
    165 H165        0.6689  -18.2808  -39.1399 H         1 UNK         0.0600 
    166 H166        2.1938  -17.2212  -37.4992 H         1 UNK         0.0600 
    167 H167        2.9580  -18.6392  -38.1992 H         1 UNK         0.0600 
    168 H168        3.4406  -17.0334  -38.7331 H         1 UNK         0.0600 
    169 H169        1.5210  -15.5740  -39.3402 H         1 UNK         0.3000 
    170 H170       -1.4685  -14.4942  -40.7097 H         1 UNK         0.0600 
    171 H171       -0.1183  -13.9827  -38.6605 H         1 UNK         0.0600 
    172 H172        1.2675  -13.5695  -39.6698 H         1 UNK         0.0600 
    173 H173       -0.2062  -12.6161  -39.7554 H         1 UNK         0.0600 
    174 H174       -0.7371  -13.5468  -42.5837 H         1 UNK         0.3000 
    175 H175        1.9659  -12.3348  -43.7057 H         1 UNK         0.0600 
    176 H176        1.8443  -15.0111  -45.1701 H         1 UNK         0.0600 
    177 H177        2.3445  -13.4959  -45.9179 H         1 UNK         0.0600 
    178 H178        3.2756  -14.1579  -44.5934 H         1 UNK         0.0600 
    179 H179       -0.0752  -13.3180  -45.4734 H         1 UNK         0.3000 
    180 H180       -2.6166  -11.1814  -44.5703 H         1 UNK         0.0600 
    181 H181       -0.5459  -10.0791  -46.5448 H         1 UNK         0.0600 
    182 H182       -1.2045   -9.2138  -45.1613 H         1 UNK         0.0600 
    183 H183       -2.2564   -9.6508  -46.4968 H         1 UNK         0.0600 
    184 H184       -1.6890  -12.1447  -47.1561 H         1 UNK         0.3000 
    185 H185       -2.8846  -15.3997  -46.8812 H         1 UNK         0.0600 
    186 H186       -5.1279  -14.3341  -47.1250 H         1 UNK         0.0600 
    187 H187       -4.4657  -13.1893  -48.2865 H         1 UNK         0.0600 
    188 H188       -4.5194  -14.9101  -48.6687 H         1 UNK         0.0600 
    189 H189       -2.3128  -14.1372  -49.2475 H         1 UNK         0.3000 
    190 H190       -1.6832  -21.1486  -45.9584 H         1 UNK         0.3000 
    191 H191       -3.6200  -22.2431  -47.6782 H         1 UNK         0.0600 
    192 H192       -3.7674  -21.5257  -44.7047 H         1 UNK         0.0600 
    193 H193       -5.1653  -21.8435  -45.7176 H         1 UNK         0.0600 
    194 H194       -4.1327  -20.4644  -46.0635 H         1 UNK         0.0600 
    195 H195       -2.0647  -23.7149  -44.7881 H         1 UNK         0.3000 
    196 H196       -3.6178  -26.1064  -44.7798 H         1 UNK         0.0600 
    197 H197       -1.7673  -26.9794  -43.3454 H         1 UNK         0.0600 
    198 H198       -2.2777  -25.3777  -42.8339 H         1 UNK         0.0600 
    199 H199       -0.7826  -25.5769  -43.7443 H         1 UNK         0.0600 
    200 H200       -0.5593  -25.2538  -46.4352 H         1 UNK         0.3000 
    201 H201       -0.0812  -27.8752  -47.5104 H         1 UNK         0.0600 
    202 H202        1.7423  -26.2578  -47.1061 H         1 UNK         0.0600 
    203 H203        1.0590  -25.1377  -48.2808 H         1 UNK         0.0600 
    204 H204        1.6942  -26.6920  -48.8085 H         1 UNK         0.0600 
    205 H205       -1.4294  -24.8579  -48.9365 H         1 UNK         0.3000 
    206 H206       -1.8200  -26.1761  -51.5423 H         1 UNK         0.0600 
    207 H207       -0.6671  -23.9637  -51.3331 H         1 UNK         0.0600 
    208 H208       -2.1031  -23.8739  -52.3393 H         1 UNK         0.0600 
    209 H209       -2.1502  -23.2660  -50.6882 H         1 UNK         0.0600 
    210 H210       -3.7054  -26.2183  -48.9113 H         1 UNK         0.3000 
    211 H211       -5.8284  -26.6541  -48.4607 H         1 UNK         0.0600 
    212 H212       -6.1976  -27.1569  -51.4611 H         1 UNK         0.0600 
    213 H213       -7.2739  -27.6865  -50.1780 H         1 UNK         0.0600 
    214 H214       -5.6455  -28.3381  -50.2751 H         1 UNK         0.0600 
    215 H215       -5.5752  -24.3209  -47.9931 H         1 UNK         0.3000 
    216 H216       -6.6120  -22.4907  -47.4229 H         1 UNK         0.0600 
    217 H217       -8.9614  -22.0294  -47.9031 H         1 UNK         0.0600 
    218 H218       -8.7741  -23.7390  -47.5510 H         1 UNK         0.0600 
    219 H219       -8.9851  -23.1931  -49.2157 H         1 UNK         0.0600 
    220 H220       -5.5216  -22.9452  -50.5358 H         1 UNK         0.3000 
    221 H221       -6.0416  -20.2521  -51.5599 H         1 UNK         0.0600 
    222 H222       -4.1068  -22.4082  -52.5616 H         1 UNK         0.0600 
    223 H223       -5.7975  -22.2913  -53.0436 H         1 UNK         0.0600 
    224 H224       -4.6836  -20.9999  -53.4487 H         1 UNK         0.0600 
    225 H225       -4.5525  -18.5444  -51.6060 H         1 UNK         0.3000 
    226 H226       -1.8108  -18.7832  -50.7751 H         1 UNK         0.0600 
    227 H227       -2.8141  -18.8314  -48.4944 H         1 UNK         0.0600 
    228 H228       -1.9717  -17.3192  -48.7530 H         1 UNK         0.0600 
    229 H229       -3.7289  -17.3667  -48.8458 H         1 UNK         0.0600 
    230 H230       -2.8400  -18.0110  -53.1813 H         1 UNK         0.3000 
    231 H231       -1.9384  -15.2534  -53.3773 H         1 UNK         0.0600 
    232 H232       -4.0183  -14.4696  -54.5860 H         1 UNK         0.0600 
    233 H233       -4.2828  -14.7550  -52.8747 H         1 UNK         0.0600 
    234 H234       -4.8553  -15.9263  -54.0546 H         1 UNK         0.0600 
    235 H235       -4.0086  -17.2384  -55.5229 H         1 UNK         0.3000 
    236 H236       -1.7246  -17.8673  -57.2964 H         1 UNK         0.0600 
    237 H237       -3.0372  -17.0948  -59.2553 H         1 UNK         0.0600 
    238 H238       -4.2426  -16.3858  -58.1846 H         1 UNK         0.0600 
    239 H239       -2.5949  -15.7631  -58.1977 H         1 UNK         0.0600 
    240 H240       -3.5962  -20.9911  -57.2205 H         1 UNK         0.3000 
    241 H241       -1.6013  -21.6331  -56.8529 H         1 UNK         0.0600 
    242 H242        1.1499  -20.5928  -59.0018 H         1 UNK         0.3800 
    243 H243        0.9473  -21.2551  -57.4077 H         1 UNK         0.3800 
    244 H244        0.0133  -20.5194  -55.4604 H         1 UNK         0.0800 
    245 H245       -0.6439  -18.9513  -55.7454 H         1 UNK         0.0800 
    246 H246       -0.3856  -21.8406  -53.4709 H         1 UNK         0.0800 
    247 H247       -1.4794  -21.3869  -52.1889 H         1 UNK         0.0800 
@<TRIPOS>BOND
     1    1    2 1    
     2    1  127 1    
     3    1  128 1    
     4    1  129 1    
     5    2    3 2    
     6    2    4 am   BACKBONE|DICT|INTERRES
     7    4    5 1    
     8    4  130 1    
     9    5    6 1    
    10    5   65 1    
    11    5  131 1    
    12    6    7 1    
    13    6  132 1    
    14    6  133 1    
    15    7    8 1    
    16    8    9 1    
    17    8  134 1    
    18    8  135 1    
    19    9   10 ar   
    20    9   14 ar   
    21   10   11 ar   
    22   10  136 1    
    23   11   12 ar   
    24   11  126 1    
    25   12   13 ar   
    26   12  137 1    
    27   13   14 ar   
    28   13   15 1    
    29   14  138 1    
    30   15   16 1    
    31   15  139 1    
    32   15  140 1    
    33   16   17 1    
    34   17   18 1    
    35   17  141 1    
    36   17  142 1    
    37   18   19 1    
    38   18   67 1    
    39   18  143 1    
    40   19   20 am   BACKBONE|DICT|INTERRES
    41   19  144 1    
    42   20   21 2    
    43   20   22 1    
    44   22   23 1    
    45   22   24 1    
    46   22  145 1    
    47   23  146 1    
    48   23  147 1    
    49   23  148 1    
    50   24   25 am   BACKBONE|DICT|INTERRES
    51   24  149 1    
    52   25   26 2    
    53   25   27 1    
    54   27   28 1    
    55   27   29 1    
    56   27  150 1    
    57   28  151 1    
    58   28  152 1    
    59   28  153 1    
    60   29   30 am   BACKBONE|DICT|INTERRES
    61   29  154 1    
    62   30   31 2    
    63   30   32 1    
    64   32   33 1    
    65   32   34 1    
    66   32  155 1    
    67   33  156 1    
    68   33  157 1    
    69   33  158 1    
    70   34   35 am   BACKBONE|DICT|INTERRES
    71   34  159 1    
    72   35   36 2    
    73   35   37 1    
    74   37   38 1    
    75   37   39 1    
    76   37  160 1    
    77   38  161 1    
    78   38  162 1    
    79   38  163 1    
    80   39   40 am   BACKBONE|DICT|INTERRES
    81   39  164 1    
    82   40   41 2    
    83   40   42 1    
    84   42   43 1    
    85   42   44 1    
    86   42  165 1    
    87   43  166 1    
    88   43  167 1    
    89   43  168 1    
    90   44   45 am   BACKBONE|DICT|INTERRES
    91   44  169 1    
    92   45   46 2    
    93   45   47 1    
    94   47   48 1    
    95   47   49 1    
    96   47  170 1    
    97   48  171 1    
    98   48  172 1    
    99   48  173 1    
   100   49   50 am   BACKBONE|DICT|INTERRES
   101   49  174 1    
   102   50   51 2    
   103   50   52 1    
   104   52   53 1    
   105   52   54 1    
   106   52  175 1    
   107   53  176 1    
   108   53  177 1    
   109   53  178 1    
   110   54   55 am   BACKBONE|DICT|INTERRES
   111   54  179 1    
   112   55   56 2    
   113   55   57 1    
   114   57   58 1    
   115   57   59 1    
   116   57  180 1    
   117   58  181 1    
   118   58  182 1    
   119   58  183 1    
   120   59   60 am   BACKBONE|DICT|INTERRES
   121   59  184 1    
   122   60   61 2    
   123   60   62 1    
   124   62   63 1    
   125   62   64 1    
   126   62  185 1    
   127   63  186 1    
   128   63  187 1    
   129   63  188 1    
   130   64   65 am   BACKBONE|DICT|INTERRES
   131   64  189 1    
   132   65   66 2    
   133   67   68 2    
   134   67   69 am   BACKBONE|DICT|INTERRES
   135   69   70 1    
   136   69  190 1    
   137   70   71 1    
   138   70   72 1    
   139   70  191 1    
   140   71  192 1    
   141   71  193 1    
   142   71  194 1    
   143   72   73 2    
   144   72   74 am   BACKBONE|DICT|INTERRES
   145   74   75 1    
   146   74  195 1    
   147   75   76 1    
   148   75   77 1    
   149   75  196 1    
   150   76  197 1    
   151   76  198 1    
   152   76  199 1    
   153   77   78 2    
   154   77   79 am   BACKBONE|DICT|INTERRES
   155   79   80 1    
   156   79  200 1    
   157   80   81 1    
   158   80   82 1    
   159   80  201 1    
   160   81  202 1    
   161   81  203 1    
   162   81  204 1    
   163   82   83 2    
   164   82   84 am   BACKBONE|DICT|INTERRES
   165   84   85 1    
   166   84  205 1    
   167   85   86 1    
   168   85   87 1    
   169   85  206 1    
   170   86  207 1    
   171   86  208 1    
   172   86  209 1    
   173   87   88 2    
   174   87   89 am   BACKBONE|DICT|INTERRES
   175   89   90 1    
   176   89  210 1    
   177   90   91 1    
   178   90   92 1    
   179   90  211 1    
   180   91  212 1    
   181   91  213 1    
   182   91  214 1    
   183   92   93 2    
   184   92   94 am   BACKBONE|DICT|INTERRES
   185   94   95 1    
   186   94  215 1    
   187   95   96 1    
   188   95   97 1    
   189   95  216 1    
   190   96  217 1    
   191   96  218 1    
   192   96  219 1    
   193   97   98 2    
   194   97   99 am   BACKBONE|DICT|INTERRES
   195   99  100 1    
   196   99  220 1    
   197  100  101 1    
   198  100  102 1    
   199  100  221 1    
   200  101  222 1    
   201  101  223 1    
   202  101  224 1    
   203  102  103 2    
   204  102  104 am   BACKBONE|DICT|INTERRES
   205  104  105 1    
   206  104  225 1    
   207  105  106 1    
   208  105  107 1    
   209  105  226 1    
   210  106  227 1    
   211  106  228 1    
   212  106  229 1    
   213  107  108 2    
   214  107  109 am   BACKBONE|DICT|INTERRES
   215  109  110 1    
   216  109  230 1    
   217  110  111 1    
   218  110  112 1    
   219  110  231 1    
   220  111  232 1    
   221  111  233 1    
   222  111  234 1    
   223  112  113 2    
   224  112  114 am   BACKBONE|DICT|INTERRES
   225  114  115 1    
   226  114  235 1    
   227  115  116 1    
   228  115  117 1    
   229  115  236 1    
   230  116  237 1    
   231  116  238 1    
   232  116  239 1    
   233  117  118 2    
   234  117  119 am   BACKBONE|DICT|INTERRES
   235  119  120 1    
   236  119  240 1    
   237  120  121 1    
   238  120  124 1    
   239  120  241 1    
   240  121  122 am   BACKBONE|DICT|INTERRES
   241  121  123 2    
   242  122  242 1    
   243  122  243 1    
   244  124  125 1    
   245  124  244 1    
   246  124  245 1    
   247  125  126 1    
   248  126  246 1    
   249  126  247 1    
@<TRIPOS>SUBSTRUCTURE
     1 UNK         1 GROUP             0       ****    0 ROOT    
