@<TRIPOS>MOLECULE
3R540
247   249    1
SMALL
USER_CHARGES


@<TRIPOS>ATOM
      1 CA          4.3956   -9.7720  -47.0695 C.3       0 UNK        -0.1800 
      2 C           3.9061  -11.1986  -46.8722 C.2       0 UNK         0.5000 
      3 O           3.9384  -11.7096  -45.7516 O.2       0 UNK        -0.5000 
      4 N           3.4243  -11.8384  -47.9454 N.am      1 UNK        -0.5000 
      5 CA          2.9455  -13.2286  -47.9983 C.3       1 UNK         0.1400 
      6 C6          3.0219  -13.7796  -49.4504 C.3       23 UNK        -0.0398 
      7 S7          3.5247  -15.5312  -49.5429 S.3       23 UNK        -0.2404 
      8 C8          1.9075  -16.3574  -49.5316 C.3       23 UNK        -0.0205 
      9 C9          1.9970  -17.7855  -50.0401 C.ar      23 UNK        -0.0193 
     10 C10         1.5642  -18.1021  -51.3312 C.ar      23 UNK        -0.1150 
     11 C11         1.6279  -19.4181  -51.7970 C.ar      23 UNK        -0.0193 
     12 C12         2.1398  -20.4180  -50.9637 C.ar      23 UNK        -0.1150 
     13 C13         2.5879  -20.1104  -49.6756 C.ar      23 UNK        -0.0193 
     14 C14         2.5047  -18.7929  -49.2162 C.ar      23 UNK        -0.1150 
     15 C15         3.2024  -21.1925  -48.7991 C.3       23 UNK        -0.0205 
     16 S16         1.9602  -22.3192  -48.0931 S.3       23 UNK        -0.2404 
     17 C17         1.0997  -21.2316  -46.9064 C.3       23 UNK        -0.0398 
     18 CA         -0.4388  -21.3071  -47.0313 C.3       11 UNK         0.1400 
     19 N          -1.1095  -20.7463  -45.8572 N.am      11 UNK        -0.5000 
     20 C          -2.4200  -20.8655  -45.6017 C.2       10 UNK         0.5000 
     21 O          -3.1988  -21.5036  -46.3093 O.2       10 UNK        -0.5000 
     22 CA         -2.9610  -20.1013  -44.3812 C.3       10 UNK         0.1400 
     23 CB         -2.6508  -20.8567  -43.0806 C.3       10 UNK        -0.1800 
     24 N          -2.4307  -18.7407  -44.2995 N.am      10 UNK        -0.5000 
     25 C          -2.6511  -17.7813  -45.2094 C.2       9 UNK         0.5000 
     26 O          -3.3811  -17.9261  -46.1896 O.2       9 UNK        -0.5000 
     27 CA         -1.8905  -16.4563  -45.0162 C.3       9 UNK         0.1400 
     28 CB         -2.5983  -15.5579  -43.9903 C.3       9 UNK        -0.1800 
     29 N          -0.5005  -16.6683  -44.6095 N.am      9 UNK        -0.5000 
     30 C           0.4343  -17.2386  -45.3832 C.2       8 UNK         0.5000 
     31 O           0.2292  -17.6361  -46.5283 O.2       8 UNK        -0.5000 
     32 CA          1.8160  -17.4559  -44.7470 C.3       8 UNK         0.1400 
     33 CB          2.6535  -16.1689  -44.7982 C.3       8 UNK        -0.1800 
     34 N           1.7080  -17.9373  -43.3687 N.am      8 UNK        -0.5000 
     35 C           1.2571  -19.1599  -43.0448 C.2       7 UNK         0.5000 
     36 O           0.9194  -20.0008  -43.8771 O.2       7 UNK        -0.5000 
     37 CA          1.1106  -19.4912  -41.5475 C.3       7 UNK         0.1400 
     38 CB          2.4411  -20.0027  -40.9763 C.3       7 UNK        -0.1800 
     39 N           0.6493  -18.3570  -40.7497 N.am      7 UNK        -0.5000 
     40 C          -0.5097  -17.7071  -40.9264 C.2       6 UNK         0.5000 
     41 O          -1.3649  -18.0488  -41.7417 O.2       6 UNK        -0.5000 
     42 CA         -0.7316  -16.4329  -40.0885 C.3       6 UNK         0.1400 
     43 CB         -1.6309  -16.7351  -38.8810 C.3       6 UNK        -0.1800 
     44 N           0.5089  -15.8045  -39.6203 N.am      6 UNK        -0.5000 
     45 C           1.4744  -15.3204  -40.4141 C.2       5 UNK         0.5000 
     46 O           1.4260  -15.3743  -41.6452 O.2       5 UNK        -0.5000 
     47 CA          2.6923  -14.7218  -39.6833 C.3       5 UNK         0.1400 
     48 CB          3.5519  -15.8239  -39.0299 C.3       5 UNK        -0.1800 
     49 N           3.5014  -13.8403  -40.5293 N.am      5 UNK        -0.5000 
     50 C           4.2811  -14.1448  -41.5755 C.2       4 UNK         0.5000 
     51 O           4.5243  -15.2940  -41.9481 O.2       4 UNK        -0.5000 
     52 CA          4.8872  -12.9379  -42.3291 C.3       4 UNK         0.1400 
     53 CB          5.7895  -13.3658  -43.5011 C.3       4 UNK        -0.1800 
     54 N           3.8638  -12.0249  -42.8451 N.am      4 UNK        -0.5000 
     55 C           3.1068  -11.1815  -42.1279 C.2       3 UNK         0.5000 
     56 O           3.2165  -11.0350  -40.9095 O.2       3 UNK        -0.5000 
     57 CA          2.0297  -10.3894  -42.8918 C.3       3 UNK         0.1400 
     58 CB          2.6064   -9.0636  -43.4107 C.3       3 UNK        -0.1800 
     59 N           1.4759  -11.1458  -44.0154 N.am      3 UNK        -0.5000 
     60 C           0.6306  -12.1823  -43.9025 C.2       2 UNK         0.5000 
     61 O           0.1471  -12.5568  -42.8353 O.2       2 UNK        -0.5000 
     62 CA          0.2795  -12.9289  -45.2000 C.3       2 UNK         0.1400 
     63 CB         -0.9661  -12.2891  -45.8466 C.3       2 UNK        -0.1800 
     64 N           1.4386  -12.9217  -46.0947 N.am      2 UNK        -0.5000 
     65 C           1.5493  -13.3956  -47.3389 C.2       1 UNK         0.5000 
     66 O           0.6208  -13.9193  -47.9534 O.2       1 UNK        -0.5000 
     67 C          -0.9629  -20.6859  -48.3432 C.2       11 UNK         0.5000 
     68 O          -1.2375  -21.4296  -49.2839 O.2       11 UNK        -0.5000 
     69 N          -1.1658  -19.3598  -48.3636 N.am      12 UNK        -0.5000 
     70 CA         -1.7587  -18.6371  -49.4900 C.3       12 UNK         0.1400 
     71 CB         -1.7242  -17.1246  -49.2258 C.3       12 UNK        -0.1800 
     72 C          -3.1995  -19.0790  -49.7962 C.2       12 UNK         0.5000 
     73 O          -3.5558  -19.2017  -50.9662 O.2       12 UNK        -0.5000 
     74 N          -3.9991  -19.3159  -48.7486 N.am      13 UNK        -0.5000 
     75 CA         -5.3724  -19.8038  -48.8592 C.3       13 UNK         0.1400 
     76 CB         -6.0847  -19.6305  -47.5093 C.3       13 UNK        -0.1800 
     77 C          -5.4489  -21.2665  -49.3344 C.2       13 UNK         0.5000 
     78 O          -6.3185  -21.5963  -50.1406 O.2       13 UNK        -0.5000 
     79 N          -4.5522  -22.1182  -48.8210 N.am      14 UNK        -0.5000 
     80 CA         -4.5155  -23.5454  -49.1308 C.3       14 UNK         0.1400 
     81 CB         -3.7885  -24.2912  -48.0017 C.3       14 UNK        -0.1800 
     82 C          -3.8543  -23.8664  -50.4804 C.2       14 UNK         0.5000 
     83 O          -4.2424  -24.8483  -51.1125 O.2       14 UNK        -0.5000 
     84 N          -2.8217  -23.1005  -50.8609 N.am      15 UNK        -0.5000 
     85 CA         -1.9635  -23.2860  -52.0409 C.3       15 UNK         0.1400 
     86 CB         -2.7531  -22.9932  -53.3316 C.3       15 UNK        -0.1800 
     87 C          -1.2489  -24.6558  -52.0918 C.2       15 UNK         0.5000 
     88 O          -0.9016  -25.1282  -53.1748 O.2       15 UNK        -0.5000 
     89 N          -1.0875  -25.2875  -50.9179 N.am      16 UNK        -0.5000 
     90 CA         -0.6221  -26.6610  -50.6795 C.3       16 UNK         0.1400 
     91 CB          0.8355  -26.8406  -51.1513 C.3       16 UNK        -0.1800 
     92 C          -1.5578  -27.7628  -51.2361 C.2       16 UNK         0.5000 
     93 O          -1.1973  -28.9396  -51.1810 O.2       16 UNK        -0.5000 
     94 N          -2.7401  -27.3808  -51.7377 N.am      17 UNK        -0.5000 
     95 CA         -3.7511  -28.2678  -52.3170 C.3       17 UNK         0.1400 
     96 CB         -4.1364  -27.7131  -53.6987 C.3       17 UNK        -0.1800 
     97 C          -5.0075  -28.3755  -51.4333 C.2       17 UNK         0.5000 
     98 O          -5.8075  -29.2889  -51.6377 O.2       17 UNK        -0.5000 
     99 N          -5.1700  -27.4259  -50.4994 N.am      18 UNK        -0.5000 
    100 CA        -6.3648  -27.1455  -49.6969 C.3       18 UNK         0.1400 
    101 CB        -6.7203  -28.3295  -48.7733 C.3       18 UNK        -0.1800 
    102 C         -7.5462  -26.6659  -50.5691 C.2       18 UNK         0.5000 
    103 O         -8.7020  -26.9588  -50.2572 O.2       18 UNK        -0.5000 
    104 N         -7.2342  -25.9428  -51.6533 N.am      19 UNK        -0.5000 
    105 CA        -8.1718  -25.4795  -52.6713 C.3       19 UNK         0.1400 
    106 CB        -8.6488  -26.6724  -53.5258 C.3       19 UNK        -0.1800 
    107 C         -7.4918  -24.4246  -53.5579 C.2       19 UNK         0.5000 
    108 O         -6.2687  -24.2762  -53.5124 O.2       19 UNK        -0.5000 
    109 N         -8.3040  -23.7337  -54.3695 N.am      20 UNK        -0.5000 
    110 CA        -7.9620  -22.7531  -55.4116 C.3       20 UNK         0.1400 
    111 CB        -7.0423  -23.3691  -56.4845 C.3       20 UNK        -0.1800 
    112 C         -7.3974  -21.4118  -54.9017 C.2       20 UNK         0.5000 
    113 O         -7.8468  -20.3660  -55.3727 O.2       20 UNK        -0.5000 
    114 N         -6.4528  -21.4715  -53.9543 N.am      21 UNK        -0.5000 
    115 CA        -5.6848  -20.3783  -53.3468 C.3       21 UNK         0.1400 
    116 CB        -6.6110  -19.3232  -52.7064 C.3       21 UNK        -0.1800 
    117 C         -4.6702  -19.7217  -54.3088 C.2       21 UNK         0.5000 
    118 O         -4.8048  -19.7910  -55.5326 O.2       21 UNK        -0.5000 
    119 N         -3.6548  -19.0890  -53.7150 N.am      22 UNK        -0.5000 
    120 CA        -2.5781  -18.3546  -54.4000 C.3       22 UNK         0.1400 
    121 C         -2.9691  -16.9098  -54.8304 C.2       22 UNK         0.5000 
    122 N         -4.1287  -16.3869  -54.4499 N.am      22 UNK        -0.7600 
    123 O         -2.2078  -16.2516  -55.5340 O.2       22 UNK        -0.5000 
    124 C124       -1.2745  -18.3474  -53.5579 C.3       23 UNK        -0.0398 
    125 S125       -0.6269  -20.0327  -53.2876 S.3       23 UNK        -0.2404 
    126 C126        1.1700  -19.7588  -53.2072 C.3       23 UNK        -0.0205 
    127 H127        3.7187   -9.0715  -46.5813 H         1 UNK         0.0600 
    128 H128        4.4573   -9.5084  -48.1255 H         1 UNK         0.0600 
    129 H129        5.3867   -9.6526  -46.6317 H         1 UNK         0.0600 
    130 H130        3.3824  -11.3382  -48.8221 H         1 UNK         0.3000 
    131 H131        3.6371  -13.8131  -47.3871 H         1 UNK         0.0600 
    132 H132        3.7890  -13.2402  -50.0081 H         1 UNK         0.0800 
    133 H133        2.1023  -13.6076  -50.0123 H         1 UNK         0.0800 
    134 H134        1.1954  -15.7897  -50.1323 H         1 UNK         0.0800 
    135 H135        1.5233  -16.3605  -48.5115 H         1 UNK         0.0800 
    136 H136        1.1749  -17.3252  -51.9737 H         1 UNK         0.1150 
    137 H137        2.1998  -21.4369  -51.3197 H         1 UNK         0.1150 
    138 H138        2.8468  -18.5430  -48.2217 H         1 UNK         0.1150 
    139 H139        3.9038  -21.7772  -49.3960 H         1 UNK         0.0800 
    140 H140        3.7892  -20.7509  -47.9920 H         1 UNK         0.0800 
    141 H141        1.4450  -20.2011  -46.9930 H         1 UNK         0.0800 
    142 H142        1.4032  -21.5643  -45.9135 H         1 UNK         0.0800 
    143 H143       -0.7096  -22.3652  -47.0545 H         1 UNK         0.0600 
    144 H144       -0.5230  -20.2394  -45.2015 H         1 UNK         0.3000 
    145 H145       -4.0457  -20.0318  -44.4849 H         1 UNK         0.0600 
    146 H146       -3.0867  -20.3516  -42.2184 H         1 UNK         0.0600 
    147 H147       -1.5775  -20.9418  -42.9099 H         1 UNK         0.0600 
    148 H148       -3.0609  -21.8670  -43.1086 H         1 UNK         0.0600 
    149 H149       -1.8691  -18.5187  -43.4811 H         1 UNK         0.3000 
    150 H150       -1.8813  -15.9339  -45.9754 H         1 UNK         0.0600 
    151 H151       -3.6217  -15.3460  -44.3022 H         1 UNK         0.0600 
    152 H152       -2.0888  -14.6009  -43.8796 H         1 UNK         0.0600 
    153 H153       -2.6472  -16.0253  -43.0067 H         1 UNK         0.0600 
    154 H154       -0.2534  -16.4124  -43.6641 H         1 UNK         0.3000 
    155 H155        2.3362  -18.2165  -45.3334 H         1 UNK         0.0600 
    156 H156        2.7720  -15.8245  -45.8259 H         1 UNK         0.0600 
    157 H157        3.6526  -16.3338  -44.3951 H         1 UNK         0.0600 
    158 H158        2.1945  -15.3597  -44.2296 H         1 UNK         0.0600 
    159 H159        1.9114  -17.2675  -42.6357 H         1 UNK         0.3000 
    160 H160        0.3686  -20.2867  -41.4544 H         1 UNK         0.0600 
    161 H161        3.2162  -19.2358  -41.0117 H         1 UNK         0.0600 
    162 H162        2.8035  -20.8625  -41.5415 H         1 UNK         0.0600 
    163 H163        2.3296  -20.3206  -39.9395 H         1 UNK         0.0600 
    164 H164        1.2892  -18.0017  -40.0555 H         1 UNK         0.3000 
    165 H165       -1.2461  -15.7123  -40.7277 H         1 UNK         0.0600 
    166 H166       -1.8722  -15.8257  -38.3304 H         1 UNK         0.0600 
    167 H167       -2.5749  -17.1804  -39.1987 H         1 UNK         0.0600 
    168 H168       -1.1555  -17.4320  -38.1895 H         1 UNK         0.0600 
    169 H169        0.6194  -15.7324  -38.6189 H         1 UNK         0.3000 
    170 H170        2.3050  -14.0828  -38.8883 H         1 UNK         0.0600 
    171 H171        4.4352  -15.4028  -38.5498 H         1 UNK         0.0600 
    172 H172        2.9905  -16.3551  -38.2608 H         1 UNK         0.0600 
    173 H173        3.8860  -16.5668  -39.7547 H         1 UNK         0.0600 
    174 H174        3.3522  -12.8468  -40.3732 H         1 UNK         0.3000 
    175 H175        5.5069  -12.3913  -41.6154 H         1 UNK         0.0600 
    176 H176        5.2282  -13.9126  -44.2602 H         1 UNK         0.0600 
    177 H177        6.2459  -12.5011  -43.9833 H         1 UNK         0.0600 
    178 H178        6.5992  -14.0113  -43.1590 H         1 UNK         0.0600 
    179 H179        3.7412  -12.0338  -43.8523 H         1 UNK         0.3000 
    180 H180        1.2208  -10.1621  -42.1942 H         1 UNK         0.0600 
    181 H181        1.8476   -8.4776  -43.9297 H         1 UNK         0.0600 
    182 H182        3.4361   -9.2274  -44.0992 H         1 UNK         0.0600 
    183 H183        2.9807   -8.4538  -42.5874 H         1 UNK         0.0600 
    184 H184        1.7976  -10.8770  -44.9331 H         1 UNK         0.3000 
    185 H185        0.0593  -13.9645  -44.9416 H         1 UNK         0.0600 
    186 H186       -0.7460  -11.3005  -46.2505 H         1 UNK         0.0600 
    187 H187       -1.3624  -12.9034  -46.6544 H         1 UNK         0.0600 
    188 H188       -1.7704  -12.1754  -45.1184 H         1 UNK         0.0600 
    189 H189        2.2906  -12.5327  -45.6990 H         1 UNK         0.3000 
    190 H190       -0.8646  -18.7985  -47.5716 H         1 UNK         0.3000 
    191 H191       -1.1463  -18.8496  -50.3678 H         1 UNK         0.0600 
    192 H192       -2.3848  -16.8400  -48.4072 H         1 UNK         0.0600 
    193 H193       -2.0392  -16.5686  -50.1094 H         1 UNK         0.0600 
    194 H194       -0.7246  -16.7867  -48.9676 H         1 UNK         0.0600 
    195 H195       -3.6503  -19.1266  -47.8145 H         1 UNK         0.3000 
    196 H196       -5.8930  -19.1879  -49.5952 H         1 UNK         0.0600 
    197 H197       -6.0957  -18.5846  -47.2018 H         1 UNK         0.0600 
    198 H198       -5.5989  -20.2044  -46.7196 H         1 UNK         0.0600 
    199 H199       -7.1214  -19.9641  -47.5688 H         1 UNK         0.0600 
    200 H200       -3.9062  -21.7838  -48.1115 H         1 UNK         0.3000 
    201 H201       -5.5414  -23.9170  -49.1724 H         1 UNK         0.0600 
    202 H202       -4.2981  -24.1515  -47.0481 H         1 UNK         0.0600 
    203 H203       -2.7623  -23.9403  -47.8839 H         1 UNK         0.0600 
    204 H204       -3.7511  -25.3640  -48.1956 H         1 UNK         0.0600 
    205 H205       -2.5114  -22.3601  -50.2341 H         1 UNK         0.3000 
    206 H206       -1.1701  -22.5443  -51.9524 H         1 UNK         0.0600 
    207 H207       -3.5487  -23.7198  -53.4975 H         1 UNK         0.0600 
    208 H208       -3.2008  -22.0038  -53.2902 H         1 UNK         0.0600 
    209 H209       -2.1024  -23.0102  -54.2064 H         1 UNK         0.0600 
    210 H210       -1.3966  -24.7906  -50.0949 H         1 UNK         0.3000 
    211 H211       -0.6303  -26.7892  -49.5963 H         1 UNK         0.0600 
    212 H212        0.9186  -26.8102  -52.2378 H         1 UNK         0.0600 
    213 H213        1.2376  -27.7996  -50.8227 H         1 UNK         0.0600 
    214 H214        1.4811  -26.0631  -50.7427 H         1 UNK         0.0600 
    215 H215       -2.9647  -26.3926  -51.7397 H         1 UNK         0.3000 
    216 H216       -3.3526  -29.2757  -52.4483 H         1 UNK         0.0600 
    217 H217       -4.8824  -28.3447  -54.1829 H         1 UNK         0.0600 
    218 H218       -3.2704  -27.6673  -54.3593 H         1 UNK         0.0600 
    219 H219       -4.5542  -26.7074  -53.6263 H         1 UNK         0.0600 
    220 H220       -4.4840  -26.6804  -50.4967 H         1 UNK         0.3000 
    221 H221       -6.1060  -26.3037  -49.0545 H         1 UNK         0.0600 
    222 H222       -7.0871  -29.1894  -49.3340 H         1 UNK         0.0600 
    223 H223       -5.8553  -28.6501  -48.1928 H         1 UNK         0.0600 
    224 H224       -7.5000  -28.0487  -48.0645 H         1 UNK         0.0600 
    225 H225       -6.2697  -25.6725  -51.8220 H         1 UNK         0.3000 
    226 H226       -9.0262  -25.0116  -52.1781 H         1 UNK         0.0600 
    227 H227       -9.1811  -27.4099  -52.9251 H         1 UNK         0.0600 
    228 H228       -9.3326  -26.3519  -54.3125 H         1 UNK         0.0600 
    229 H229       -7.8097  -27.1780  -54.0058 H         1 UNK         0.0600 
    230 H230       -9.2946  -23.9178  -54.2911 H         1 UNK         0.3000 
    231 H231       -8.9083  -22.5188  -55.9022 H         1 UNK         0.0600 
    232 H232       -6.8889  -22.6720  -57.3092 H         1 UNK         0.0600 
    233 H233       -7.4763  -24.2774  -56.9025 H         1 UNK         0.0600 
    234 H234       -6.0585  -23.6188  -56.0863 H         1 UNK         0.0600 
    235 H235       -6.1727  -22.4072  -53.6699 H         1 UNK         0.3000 
    236 H236       -5.1142  -20.8454  -52.5432 H         1 UNK         0.0600 
    237 H237       -7.1489  -18.7402  -53.4539 H         1 UNK         0.0600 
    238 H238       -7.3454  -19.7895  -52.0498 H         1 UNK         0.0600 
    239 H239       -6.0389  -18.6199  -52.1010 H         1 UNK         0.0600 
    240 H240       -3.6027  -19.1000  -52.6955 H         1 UNK         0.3000 
    241 H241       -2.3576  -18.8817  -55.3302 H         1 UNK         0.0600 
    242 H242       -4.3725  -15.4530  -54.7406 H         1 UNK         0.3800 
    243 H243       -4.7646  -16.9179  -53.8776 H         1 UNK         0.3800 
    244 H244       -1.4443  -17.8731  -52.5905 H         1 UNK         0.0800 
    245 H245       -0.5049  -17.7575  -54.0579 H         1 UNK         0.0800 
    246 H246        1.4713  -18.9764  -53.9048 H         1 UNK         0.0800 
    247 H247        1.6699  -20.6673  -53.5464 H         1 UNK         0.0800 
@<TRIPOS>BOND
     1    1    2 1    
     2    1  127 1    
     3    1  128 1    
     4    1  129 1    
     5    2    3 2    
     6    2    4 am   BACKBONE|DICT|INTERRES
     7    4    5 1    
     8    4  130 1    
     9    5    6 1    
    10    5   65 1    
    11    5  131 1    
    12    6    7 1    
    13    6  132 1    
    14    6  133 1    
    15    7    8 1    
    16    8    9 1    
    17    8  134 1    
    18    8  135 1    
    19    9   10 ar   
    20    9   14 ar   
    21   10   11 ar   
    22   10  136 1    
    23   11   12 ar   
    24   11  126 1    
    25   12   13 ar   
    26   12  137 1    
    27   13   14 ar   
    28   13   15 1    
    29   14  138 1    
    30   15   16 1    
    31   15  139 1    
    32   15  140 1    
    33   16   17 1    
    34   17   18 1    
    35   17  141 1    
    36   17  142 1    
    37   18   19 1    
    38   18   67 1    
    39   18  143 1    
    40   19   20 am   BACKBONE|DICT|INTERRES
    41   19  144 1    
    42   20   21 2    
    43   20   22 1    
    44   22   23 1    
    45   22   24 1    
    46   22  145 1    
    47   23  146 1    
    48   23  147 1    
    49   23  148 1    
    50   24   25 am   BACKBONE|DICT|INTERRES
    51   24  149 1    
    52   25   26 2    
    53   25   27 1    
    54   27   28 1    
    55   27   29 1    
    56   27  150 1    
    57   28  151 1    
    58   28  152 1    
    59   28  153 1    
    60   29   30 am   BACKBONE|DICT|INTERRES
    61   29  154 1    
    62   30   31 2    
    63   30   32 1    
    64   32   33 1    
    65   32   34 1    
    66   32  155 1    
    67   33  156 1    
    68   33  157 1    
    69   33  158 1    
    70   34   35 am   BACKBONE|DICT|INTERRES
    71   34  159 1    
    72   35   36 2    
    73   35   37 1    
    74   37   38 1    
    75   37   39 1    
    76   37  160 1    
    77   38  161 1    
    78   38  162 1    
    79   38  163 1    
    80   39   40 am   BACKBONE|DICT|INTERRES
    81   39  164 1    
    82   40   41 2    
    83   40   42 1    
    84   42   43 1    
    85   42   44 1    
    86   42  165 1    
    87   43  166 1    
    88   43  167 1    
    89   43  168 1    
    90   44   45 am   BACKBONE|DICT|INTERRES
    91   44  169 1    
    92   45   46 2    
    93   45   47 1    
    94   47   48 1    
    95   47   49 1    
    96   47  170 1    
    97   48  171 1    
    98   48  172 1    
    99   48  173 1    
   100   49   50 am   BACKBONE|DICT|INTERRES
   101   49  174 1    
   102   50   51 2    
   103   50   52 1    
   104   52   53 1    
   105   52   54 1    
   106   52  175 1    
   107   53  176 1    
   108   53  177 1    
   109   53  178 1    
   110   54   55 am   BACKBONE|DICT|INTERRES
   111   54  179 1    
   112   55   56 2    
   113   55   57 1    
   114   57   58 1    
   115   57   59 1    
   116   57  180 1    
   117   58  181 1    
   118   58  182 1    
   119   58  183 1    
   120   59   60 am   BACKBONE|DICT|INTERRES
   121   59  184 1    
   122   60   61 2    
   123   60   62 1    
   124   62   63 1    
   125   62   64 1    
   126   62  185 1    
   127   63  186 1    
   128   63  187 1    
   129   63  188 1    
   130   64   65 am   BACKBONE|DICT|INTERRES
   131   64  189 1    
   132   65   66 2    
   133   67   68 2    
   134   67   69 am   BACKBONE|DICT|INTERRES
   135   69   70 1    
   136   69  190 1    
   137   70   71 1    
   138   70   72 1    
   139   70  191 1    
   140   71  192 1    
   141   71  193 1    
   142   71  194 1    
   143   72   73 2    
   144   72   74 am   BACKBONE|DICT|INTERRES
   145   74   75 1    
   146   74  195 1    
   147   75   76 1    
   148   75   77 1    
   149   75  196 1    
   150   76  197 1    
   151   76  198 1    
   152   76  199 1    
   153   77   78 2    
   154   77   79 am   BACKBONE|DICT|INTERRES
   155   79   80 1    
   156   79  200 1    
   157   80   81 1    
   158   80   82 1    
   159   80  201 1    
   160   81  202 1    
   161   81  203 1    
   162   81  204 1    
   163   82   83 2    
   164   82   84 am   BACKBONE|DICT|INTERRES
   165   84   85 1    
   166   84  205 1    
   167   85   86 1    
   168   85   87 1    
   169   85  206 1    
   170   86  207 1    
   171   86  208 1    
   172   86  209 1    
   173   87   88 2    
   174   87   89 am   BACKBONE|DICT|INTERRES
   175   89   90 1    
   176   89  210 1    
   177   90   91 1    
   178   90   92 1    
   179   90  211 1    
   180   91  212 1    
   181   91  213 1    
   182   91  214 1    
   183   92   93 2    
   184   92   94 am   BACKBONE|DICT|INTERRES
   185   94   95 1    
   186   94  215 1    
   187   95   96 1    
   188   95   97 1    
   189   95  216 1    
   190   96  217 1    
   191   96  218 1    
   192   96  219 1    
   193   97   98 2    
   194   97   99 am   BACKBONE|DICT|INTERRES
   195   99  100 1    
   196   99  220 1    
   197  100  101 1    
   198  100  102 1    
   199  100  221 1    
   200  101  222 1    
   201  101  223 1    
   202  101  224 1    
   203  102  103 2    
   204  102  104 am   BACKBONE|DICT|INTERRES
   205  104  105 1    
   206  104  225 1    
   207  105  106 1    
   208  105  107 1    
   209  105  226 1    
   210  106  227 1    
   211  106  228 1    
   212  106  229 1    
   213  107  108 2    
   214  107  109 am   BACKBONE|DICT|INTERRES
   215  109  110 1    
   216  109  230 1    
   217  110  111 1    
   218  110  112 1    
   219  110  231 1    
   220  111  232 1    
   221  111  233 1    
   222  111  234 1    
   223  112  113 2    
   224  112  114 am   BACKBONE|DICT|INTERRES
   225  114  115 1    
   226  114  235 1    
   227  115  116 1    
   228  115  117 1    
   229  115  236 1    
   230  116  237 1    
   231  116  238 1    
   232  116  239 1    
   233  117  118 2    
   234  117  119 am   BACKBONE|DICT|INTERRES
   235  119  120 1    
   236  119  240 1    
   237  120  121 1    
   238  120  124 1    
   239  120  241 1    
   240  121  122 am   BACKBONE|DICT|INTERRES
   241  121  123 2    
   242  122  242 1    
   243  122  243 1    
   244  124  125 1    
   245  124  244 1    
   246  124  245 1    
   247  125  126 1    
   248  126  246 1    
   249  126  247 1    
@<TRIPOS>SUBSTRUCTURE
     1 UNK         1 GROUP             0       ****    0 ROOT    
