@<TRIPOS>MOLECULE
3R540
247   249    1
SMALL
USER_CHARGES


@<TRIPOS>ATOM
      1 CA         -0.1001  -15.0592  -50.9858 C.3       0 UNK        -0.1800 
      2 C           1.2422  -14.3817  -50.7707 C.2       0 UNK         0.5000 
      3 O           1.5504  -13.3977  -51.4435 O.2       0 UNK        -0.5000 
      4 N           2.0414  -14.9078  -49.8339 N.am      1 UNK        -0.5000 
      5 CA          3.3594  -14.3741  -49.4746 C.3       1 UNK         0.1400 
      6 C6          4.2109  -15.4011  -48.6846 C.3       23 UNK        -0.0398 
      7 S7          3.5124  -15.8870  -47.0625 S.3       23 UNK        -0.2404 
      8 C8          3.1563  -17.6517  -47.3149 C.3       23 UNK        -0.0205 
      9 C9          1.9528  -17.8893  -48.2168 C.ar      23 UNK        -0.0193 
     10 C10         0.6754  -17.4979  -47.8090 C.ar      23 UNK        -0.1150 
     11 C11        -0.4490  -17.7706  -48.5945 C.ar      23 UNK        -0.0193 
     12 C12        -0.2810  -18.4554  -49.8024 C.ar      23 UNK        -0.1150 
     13 C13         0.9919  -18.8517  -50.2232 C.ar      23 UNK        -0.0193 
     14 C14         2.1049  -18.5580  -49.4321 C.ar      23 UNK        -0.1150 
     15 C15         1.1736  -19.6185  -51.5207 C.3       23 UNK        -0.0205 
     16 S16         1.2718  -21.4097  -51.2185 S.3       23 UNK        -0.2404 
     17 C17        -0.4715  -21.8256  -50.8899 C.3       23 UNK        -0.0398 
     18 CA         -0.6775  -22.5944  -49.5656 C.3       11 UNK         0.1400 
     19 N          -0.2601  -21.8469  -48.3691 N.am      11 UNK        -0.5000 
     20 C          -0.0314  -22.4381  -47.1868 C.2       10 UNK         0.5000 
     21 O          -0.2018  -23.6413  -46.9888 O.2       10 UNK        -0.5000 
     22 CA          0.4176  -21.5457  -46.0149 C.3       10 UNK         0.1400 
     23 CB          1.8477  -21.0344  -46.2374 C.3       10 UNK        -0.1800 
     24 N          -0.4730  -20.4227  -45.6930 N.am      10 UNK        -0.5000 
     25 C          -1.7947  -20.5238  -45.4617 C.2       9 UNK         0.5000 
     26 O          -2.4433  -21.5386  -45.7098 O.2       9 UNK        -0.5000 
     27 CA         -2.5383  -19.3297  -44.8302 C.3       9 UNK         0.1400 
     28 CB         -3.1846  -19.7341  -43.4919 C.3       9 UNK        -0.1800 
     29 N          -1.6700  -18.1746  -44.6273 N.am      9 UNK        -0.5000 
     30 C          -2.0449  -16.8980  -44.5291 C.2       8 UNK         0.5000 
     31 O          -3.2228  -16.5394  -44.5668 O.2       8 UNK        -0.5000 
     32 CA         -0.9126  -15.8455  -44.4101 C.3       8 UNK         0.1400 
     33 CB         -1.4397  -14.4660  -43.9752 C.3       8 UNK        -0.1800 
     34 N           0.2164  -16.2073  -43.5427 N.am      8 UNK        -0.5000 
     35 C           1.0944  -17.2131  -43.6792 C.2       7 UNK         0.5000 
     36 O           1.0330  -18.0654  -44.5658 O.2       7 UNK        -0.5000 
     37 CA          2.2236  -17.2977  -42.6394 C.3       7 UNK         0.1400 
     38 CB          3.4686  -16.5487  -43.1389 C.3       7 UNK        -0.1800 
     39 N           1.8183  -16.7601  -41.3398 N.am      7 UNK        -0.5000 
     40 C           1.1117  -17.4405  -40.4254 C.2       6 UNK         0.5000 
     41 O           0.7550  -18.6100  -40.5704 O.2       6 UNK        -0.5000 
     42 CA          0.7450  -16.6951  -39.1268 C.3       6 UNK         0.1400 
     43 CB          1.8048  -16.9529  -38.0447 C.3       6 UNK        -0.1800 
     44 N           0.6062  -15.2512  -39.3207 N.am      6 UNK        -0.5000 
     45 C          -0.4410  -14.6607  -39.9134 C.2       5 UNK         0.5000 
     46 O          -1.4399  -15.2669  -40.2997 O.2       5 UNK        -0.5000 
     47 CA         -0.3356  -13.1389  -40.1445 C.3       5 UNK         0.1400 
     48 CB         -0.9389  -12.3702  -38.9594 C.3       5 UNK        -0.1800 
     49 N           1.0388  -12.6759  -40.3727 N.am      5 UNK        -0.5000 
     50 C           1.7985  -13.0539  -41.4079 C.2       4 UNK         0.5000 
     51 O           1.4196  -13.8413  -42.2786 O.2       4 UNK        -0.5000 
     52 CA          3.2366  -12.5256  -41.4465 C.3       4 UNK         0.1400 
     53 CB          4.1240  -13.3376  -40.4817 C.3       4 UNK        -0.1800 
     54 N           3.7192  -12.6561  -42.8163 N.am      4 UNK        -0.5000 
     55 C           4.8435  -12.1404  -43.3220 C.2       3 UNK         0.5000 
     56 O           5.6382  -11.4560  -42.6761 O.2       3 UNK        -0.5000 
     57 CA          5.1270  -12.4363  -44.8063 C.3       3 UNK         0.1400 
     58 CB          5.9235  -13.7422  -44.9529 C.3       3 UNK        -0.1800 
     59 N           3.9179  -12.5241  -45.6280 N.am      3 UNK        -0.5000 
     60 C           3.1467  -11.4809  -45.9698 C.2       2 UNK         0.5000 
     61 O           3.3318  -10.3368  -45.5510 O.2       2 UNK        -0.5000 
     62 CA          1.9878  -11.7653  -46.9556 C.3       2 UNK         0.1400 
     63 CB          1.5620  -10.5159  -47.7537 C.3       2 UNK        -0.1800 
     64 N           2.2505  -12.8886  -47.8653 N.am      2 UNK        -0.5000 
     65 C           3.2695  -13.0225  -48.7320 C.2       1 UNK         0.5000 
     66 O           4.1221  -12.1584  -48.9409 O.2       1 UNK        -0.5000 
     67 C          -2.1301  -23.1070  -49.4840 C.2       11 UNK         0.5000 
     68 O          -2.4681  -24.0397  -50.2153 O.2       11 UNK        -0.5000 
     69 N          -2.9570  -22.5105  -48.6142 N.am      12 UNK        -0.5000 
     70 CA         -4.3160  -22.9721  -48.3418 C.3       12 UNK         0.1400 
     71 CB         -5.1634  -21.8203  -47.7805 C.3       12 UNK        -0.1800 
     72 C          -4.3014  -24.1777  -47.3892 C.2       12 UNK         0.5000 
     73 O          -4.9609  -25.1784  -47.6669 O.2       12 UNK        -0.5000 
     74 N          -3.5091  -24.0769  -46.3130 N.am      13 UNK        -0.5000 
     75 CA         -3.3001  -25.1212  -45.3096 C.3       13 UNK         0.1400 
     76 CB         -2.4929  -24.5401  -44.1386 C.3       13 UNK        -0.1800 
     77 C          -2.6085  -26.3712  -45.8828 C.2       13 UNK         0.5000 
     78 O          -3.0006  -27.4902  -45.5504 O.2       13 UNK        -0.5000 
     79 N          -1.6169  -26.1592  -46.7590 N.am      14 UNK        -0.5000 
     80 CA         -0.9141  -27.2147  -47.4921 C.3       14 UNK         0.1400 
     81 CB          0.4096  -26.6469  -48.0290 C.3       14 UNK        -0.1800 
     82 C          -1.7393  -27.8098  -48.6512 C.2       14 UNK         0.5000 
     83 O          -1.3632  -28.8601  -49.1726 O.2       14 UNK        -0.5000 
     84 N          -2.8181  -27.1179  -49.0521 N.am      15 UNK        -0.5000 
     85 CA         -3.6862  -27.4003  -50.2016 C.3       15 UNK         0.1400 
     86 CB         -4.4718  -28.7110  -49.9943 C.3       15 UNK        -0.1800 
     87 C          -2.9335  -27.3469  -51.5496 C.2       15 UNK         0.5000 
     88 O          -3.2767  -28.0696  -52.4865 O.2       15 UNK        -0.5000 
     89 N          -1.9144  -26.4820  -51.6152 N.am      16 UNK        -0.5000 
     90 CA         -1.0660  -26.2591  -52.7819 C.3       16 UNK         0.1400 
     91 CB          0.3038  -25.7479  -52.3084 C.3       16 UNK        -0.1800 
     92 C          -1.6996  -25.2662  -53.7700 C.2       16 UNK         0.5000 
     93 O          -1.5084  -25.4121  -54.9777 O.2       16 UNK        -0.5000 
     94 N          -2.4440  -24.2837  -53.2455 N.am      17 UNK        -0.5000 
     95 CA         -3.1255  -23.2478  -54.0212 C.3       17 UNK         0.1400 
     96 CB         -2.1298  -22.1613  -54.4754 C.3       17 UNK        -0.1800 
     97 C          -4.3203  -22.6931  -53.2288 C.2       17 UNK         0.5000 
     98 O          -4.5497  -21.4795  -53.2137 O.2       17 UNK        -0.5000 
     99 N          -5.0638  -23.6013  -52.5816 N.am      18 UNK        -0.5000 
    100 CA        -6.2928  -23.3107  -51.8460 C.3       18 UNK         0.1400 
    101 CB        -6.7787  -24.5837  -51.1353 C.3       18 UNK        -0.1800 
    102 C         -7.3805  -22.7513  -52.7791 C.2       18 UNK         0.5000 
    103 O         -7.7428  -23.4099  -53.7559 O.2       18 UNK        -0.5000 
    104 N         -7.8361  -21.5320  -52.4708 N.am      19 UNK        -0.5000 
    105 CA        -8.7821  -20.6991  -53.2207 C.3       19 UNK         0.1400 
    106 CB       -10.1495  -21.3975  -53.3729 C.3       19 UNK        -0.1800 
    107 C         -8.2316  -20.1734  -54.5653 C.2       19 UNK         0.5000 
    108 O         -8.9988  -19.6060  -55.3449 O.2       19 UNK        -0.5000 
    109 N         -6.9239  -20.3382  -54.8071 N.am      20 UNK        -0.5000 
    110 CA        -6.2174  -19.8338  -55.9827 C.3       20 UNK         0.1400 
    111 CB        -5.4838  -20.9886  -56.6838 C.3       20 UNK        -0.1800 
    112 C         -5.2509  -18.7149  -55.5700 C.2       20 UNK         0.5000 
    113 O         -5.3305  -17.6168  -56.1219 O.2       20 UNK        -0.5000 
    114 N         -4.3827  -18.9970  -54.5889 N.am      21 UNK        -0.5000 
    115 CA        -3.4854  -18.0140  -53.9828 C.3       21 UNK         0.1400 
    116 CB        -2.1475  -18.6781  -53.6195 C.3       21 UNK        -0.1800 
    117 C         -4.1325  -17.4001  -52.7344 C.2       21 UNK         0.5000 
    118 O         -4.1778  -16.1757  -52.6126 O.2       21 UNK        -0.5000 
    119 N         -4.6260  -18.2679  -51.8434 N.am      22 UNK        -0.5000 
    120 CA        -5.2392  -17.9193  -50.5573 C.3       22 UNK         0.1400 
    121 C         -6.4830  -18.8078  -50.3187 C.2       22 UNK         0.5000 
    122 N         -7.5567  -18.2588  -49.7700 N.am      22 UNK        -0.7600 
    123 O         -6.4733  -20.0035  -50.5979 O.2       22 UNK        -0.5000 
    124 C124       -4.2338  -18.0677  -49.3853 C.3       23 UNK        -0.0398 
    125 S125       -2.9615  -16.7626  -49.3926 S.3       23 UNK        -0.2404 
    126 C126       -1.8289  -17.3525  -48.0939 C.3       23 UNK        -0.0205 
    127 H127       -0.7408  -14.4618  -51.6346 H         1 UNK         0.0600 
    128 H128       -0.6105  -15.1846  -50.0324 H         1 UNK         0.0600 
    129 H129        0.0335  -16.0386  -51.4446 H         1 UNK         0.0600 
    130 H130        1.7450  -15.7310  -49.3265 H         1 UNK         0.3000 
    131 H131        3.8902  -14.1785  -50.4090 H         1 UNK         0.0600 
    132 H132        5.2117  -15.0012  -48.5119 H         1 UNK         0.0800 
    133 H133        4.3605  -16.2913  -49.2967 H         1 UNK         0.0800 
    134 H134        2.9629  -18.1083  -46.3446 H         1 UNK         0.0800 
    135 H135        4.0458  -18.1483  -47.7056 H         1 UNK         0.0800 
    136 H136        0.5650  -16.9909  -46.8644 H         1 UNK         0.1150 
    137 H137       -1.1414  -18.6797  -50.4157 H         1 UNK         0.1150 
    138 H138        3.0862  -18.8798  -49.7515 H         1 UNK         0.1150 
    139 H139        0.3658  -19.4021  -52.2204 H         1 UNK         0.0800 
    140 H140        2.0928  -19.2931  -52.0101 H         1 UNK         0.0800 
    141 H141       -0.7919  -22.4452  -51.7271 H         1 UNK         0.0800 
    142 H142       -1.0961  -20.9333  -50.9214 H         1 UNK         0.0800 
    143 H143       -0.0500  -23.4867  -49.6195 H         1 UNK         0.0600 
    144 H144       -0.0899  -20.8568  -48.4746 H         1 UNK         0.3000 
    145 H145        0.4359  -22.1811  -45.1272 H         1 UNK         0.0600 
    146 H146        1.9109  -20.3939  -47.1148 H         1 UNK         0.0600 
    147 H147        2.2071  -20.4684  -45.3780 H         1 UNK         0.0600 
    148 H148        2.5388  -21.8641  -46.3912 H         1 UNK         0.0600 
    149 H149        0.0028  -19.5524  -45.4913 H         1 UNK         0.3000 
    150 H150       -3.3311  -19.0545  -45.5283 H         1 UNK         0.0600 
    151 H151       -3.8456  -20.5931  -43.6151 H         1 UNK         0.0600 
    152 H152       -3.7860  -18.9240  -43.0796 H         1 UNK         0.0600 
    153 H153       -2.4306  -20.0018  -42.7507 H         1 UNK         0.0600 
    154 H154       -0.6701  -18.3527  -44.5682 H         1 UNK         0.3000 
    155 H155       -0.5095  -15.7184  -45.4139 H         1 UNK         0.0600 
    156 H156       -2.2255  -14.1116  -44.6434 H         1 UNK         0.0600 
    157 H157       -0.6489  -13.7162  -43.9925 H         1 UNK         0.0600 
    158 H158       -1.8527  -14.4970  -42.9667 H         1 UNK         0.0600 
    159 H159        0.4075  -15.5431  -42.8016 H         1 UNK         0.3000 
    160 H160        2.4897  -18.3504  -42.5216 H         1 UNK         0.0600 
    161 H161        3.2593  -15.4972  -43.3324 H         1 UNK         0.0600 
    162 H162        3.8346  -16.9831  -44.0699 H         1 UNK         0.0600 
    163 H163        4.2814  -16.6023  -42.4147 H         1 UNK         0.0600 
    164 H164        2.0265  -15.7875  -41.1693 H         1 UNK         0.3000 
    165 H165       -0.2082  -17.0935  -38.7722 H         1 UNK         0.0600 
    166 H166        1.5258  -16.4855  -37.1001 H         1 UNK         0.0600 
    167 H167        1.9182  -18.0213  -37.8561 H         1 UNK         0.0600 
    168 H168        2.7819  -16.5654  -38.3363 H         1 UNK         0.0600 
    169 H169        1.3749  -14.6731  -39.0153 H         1 UNK         0.3000 
    170 H170       -0.9191  -12.9030  -41.0370 H         1 UNK         0.0600 
    171 H171       -1.9704  -12.6766  -38.7797 H         1 UNK         0.0600 
    172 H172       -0.3796  -12.5442  -38.0393 H         1 UNK         0.0600 
    173 H173       -0.9492  -11.2968  -39.1494 H         1 UNK         0.0600 
    174 H174        1.4181  -12.0353  -39.6900 H         1 UNK         0.3000 
    175 H175        3.2361  -11.4711  -41.1641 H         1 UNK         0.0600 
    176 H176        4.1664  -14.3901  -40.7648 H         1 UNK         0.0600 
    177 H177        5.1455  -12.9584  -40.4616 H         1 UNK         0.0600 
    178 H178        3.7470  -13.2862  -39.4597 H         1 UNK         0.0600 
    179 H179        3.0954  -13.1792  -43.4181 H         1 UNK         0.3000 
    180 H180        5.7407  -11.6202  -45.1938 H         1 UNK         0.0600 
    181 H181        5.3535  -14.6041  -44.6043 H         1 UNK         0.0600 
    182 H182        6.8474  -13.7039  -44.3745 H         1 UNK         0.0600 
    183 H183        6.1985  -13.9219  -45.9925 H         1 UNK         0.0600 
    184 H184        3.7002  -13.4299  -46.0184 H         1 UNK         0.3000 
    185 H185        1.1397  -12.0661  -46.3389 H         1 UNK         0.0600 
    186 H186        0.7382  -10.7429  -48.4305 H         1 UNK         0.0600 
    187 H187        1.2234   -9.7208  -47.0884 H         1 UNK         0.0600 
    188 H188        2.3840  -10.1169  -48.3488 H         1 UNK         0.0600 
    189 H189        1.6172  -13.6710  -47.7825 H         1 UNK         0.3000 
    190 H190       -2.5866  -21.8000  -47.9984 H         1 UNK         0.3000 
    191 H191       -4.7690  -23.2909  -49.2803 H         1 UNK         0.0600 
    192 H192       -5.1516  -20.9626  -48.4510 H         1 UNK         0.0600 
    193 H193       -6.2035  -22.1270  -47.6650 H         1 UNK         0.0600 
    194 H194       -4.8122  -21.4852  -46.8050 H         1 UNK         0.0600 
    195 H195       -3.0206  -23.1980  -46.1517 H         1 UNK         0.3000 
    196 H196       -4.2794  -25.4246  -44.9338 H         1 UNK         0.0600 
    197 H197       -2.3336  -25.2891  -43.3621 H         1 UNK         0.0600 
    198 H198       -3.0147  -23.6998  -43.6798 H         1 UNK         0.0600 
    199 H199       -1.5133  -24.1859  -44.4625 H         1 UNK         0.0600 
    200 H200       -1.2992  -25.2062  -46.9194 H         1 UNK         0.3000 
    201 H201       -0.6830  -28.0266  -46.7995 H         1 UNK         0.0600 
    202 H202        1.0281  -26.2556  -47.2210 H         1 UNK         0.0600 
    203 H203        0.2401  -25.8396  -48.7423 H         1 UNK         0.0600 
    204 H204        0.9901  -27.4173  -48.5381 H         1 UNK         0.0600 
    205 H205       -3.0527  -26.2817  -48.5347 H         1 UNK         0.3000 
    206 H206       -4.4103  -26.5869  -50.2327 H         1 UNK         0.0600 
    207 H207       -3.8195  -29.5843  -50.0188 H         1 UNK         0.0600 
    208 H208       -4.9944  -28.7082  -49.0377 H         1 UNK         0.0600 
    209 H209       -5.2238  -28.8432  -50.7731 H         1 UNK         0.0600 
    210 H210       -1.7724  -25.8662  -50.8239 H         1 UNK         0.3000 
    211 H211       -0.9159  -27.2074  -53.3026 H         1 UNK         0.0600 
    212 H212        0.9764  -25.5950  -53.1533 H         1 UNK         0.0600 
    213 H213        0.7807  -26.4635  -51.6383 H         1 UNK         0.0600 
    214 H214        0.2214  -24.7982  -51.7795 H         1 UNK         0.0600 
    215 H215       -2.5627  -24.2412  -52.2376 H         1 UNK         0.3000 
    216 H216       -3.5516  -23.7073  -54.9155 H         1 UNK         0.0600 
    217 H217       -2.6168  -21.4141  -55.1014 H         1 UNK         0.0600 
    218 H218       -1.3174  -22.5860  -55.0647 H         1 UNK         0.0600 
    219 H219       -1.6875  -21.6396  -53.6298 H         1 UNK         0.0600 
    220 H220       -4.8277  -24.5759  -52.6899 H         1 UNK         0.3000 
    221 H221       -6.0580  -22.5644  -51.0857 H         1 UNK         0.0600 
    222 H222       -6.9764  -25.3908  -51.8419 H         1 UNK         0.0600 
    223 H223       -6.0455  -24.9407  -50.4141 H         1 UNK         0.0600 
    224 H224       -7.7021  -24.3938  -50.5868 H         1 UNK         0.0600 
    225 H225       -7.4003  -21.0571  -51.6791 H         1 UNK         0.3000 
    226 H226       -8.9384  -19.8134  -52.6033 H         1 UNK         0.0600 
    227 H227      -10.5168  -21.7600  -52.4129 H         1 UNK         0.0600 
    228 H228      -10.8983  -20.7086  -53.7653 H         1 UNK         0.0600 
    229 H229      -10.1005  -22.2450  -54.0569 H         1 UNK         0.0600 
    230 H230       -6.3591  -20.7936  -54.1008 H         1 UNK         0.3000 
    231 H231       -6.9197  -19.4079  -56.7023 H         1 UNK         0.0600 
    232 H232       -4.7920  -21.4999  -56.0173 H         1 UNK         0.0600 
    233 H233       -4.9117  -20.6267  -57.5390 H         1 UNK         0.0600 
    234 H234       -6.1915  -21.7296  -57.0557 H         1 UNK         0.0600 
    235 H235       -4.3955  -19.9208  -54.1651 H         1 UNK         0.3000 
    236 H236       -3.2746  -17.2089  -54.6901 H         1 UNK         0.0600 
    237 H237       -1.6606  -19.0932  -54.5017 H         1 UNK         0.0600 
    238 H238       -1.4623  -17.9506  -53.1822 H         1 UNK         0.0600 
    239 H239       -2.2769  -19.4812  -52.8938 H         1 UNK         0.0600 
    240 H240       -4.6105  -19.2581  -52.0498 H         1 UNK         0.3000 
    241 H241       -5.5858  -16.8843  -50.5920 H         1 UNK         0.0600 
    242 H242       -8.3631  -18.8357  -49.5907 H         1 UNK         0.3800 
    243 H243       -7.5865  -17.2816  -49.5229 H         1 UNK         0.3800 
    244 H244       -4.7489  -18.0106  -48.4243 H         1 UNK         0.0800 
    245 H245       -3.7483  -19.0448  -49.4194 H         1 UNK         0.0800 
    246 H246       -2.2751  -18.1883  -47.5573 H         1 UNK         0.0800 
    247 H247       -1.7271  -16.5384  -47.3777 H         1 UNK         0.0800 
@<TRIPOS>BOND
     1    1    2 1    
     2    1  127 1    
     3    1  128 1    
     4    1  129 1    
     5    2    3 2    
     6    2    4 am   BACKBONE|DICT|INTERRES
     7    4    5 1    
     8    4  130 1    
     9    5    6 1    
    10    5   65 1    
    11    5  131 1    
    12    6    7 1    
    13    6  132 1    
    14    6  133 1    
    15    7    8 1    
    16    8    9 1    
    17    8  134 1    
    18    8  135 1    
    19    9   10 ar   
    20    9   14 ar   
    21   10   11 ar   
    22   10  136 1    
    23   11   12 ar   
    24   11  126 1    
    25   12   13 ar   
    26   12  137 1    
    27   13   14 ar   
    28   13   15 1    
    29   14  138 1    
    30   15   16 1    
    31   15  139 1    
    32   15  140 1    
    33   16   17 1    
    34   17   18 1    
    35   17  141 1    
    36   17  142 1    
    37   18   19 1    
    38   18   67 1    
    39   18  143 1    
    40   19   20 am   BACKBONE|DICT|INTERRES
    41   19  144 1    
    42   20   21 2    
    43   20   22 1    
    44   22   23 1    
    45   22   24 1    
    46   22  145 1    
    47   23  146 1    
    48   23  147 1    
    49   23  148 1    
    50   24   25 am   BACKBONE|DICT|INTERRES
    51   24  149 1    
    52   25   26 2    
    53   25   27 1    
    54   27   28 1    
    55   27   29 1    
    56   27  150 1    
    57   28  151 1    
    58   28  152 1    
    59   28  153 1    
    60   29   30 am   BACKBONE|DICT|INTERRES
    61   29  154 1    
    62   30   31 2    
    63   30   32 1    
    64   32   33 1    
    65   32   34 1    
    66   32  155 1    
    67   33  156 1    
    68   33  157 1    
    69   33  158 1    
    70   34   35 am   BACKBONE|DICT|INTERRES
    71   34  159 1    
    72   35   36 2    
    73   35   37 1    
    74   37   38 1    
    75   37   39 1    
    76   37  160 1    
    77   38  161 1    
    78   38  162 1    
    79   38  163 1    
    80   39   40 am   BACKBONE|DICT|INTERRES
    81   39  164 1    
    82   40   41 2    
    83   40   42 1    
    84   42   43 1    
    85   42   44 1    
    86   42  165 1    
    87   43  166 1    
    88   43  167 1    
    89   43  168 1    
    90   44   45 am   BACKBONE|DICT|INTERRES
    91   44  169 1    
    92   45   46 2    
    93   45   47 1    
    94   47   48 1    
    95   47   49 1    
    96   47  170 1    
    97   48  171 1    
    98   48  172 1    
    99   48  173 1    
   100   49   50 am   BACKBONE|DICT|INTERRES
   101   49  174 1    
   102   50   51 2    
   103   50   52 1    
   104   52   53 1    
   105   52   54 1    
   106   52  175 1    
   107   53  176 1    
   108   53  177 1    
   109   53  178 1    
   110   54   55 am   BACKBONE|DICT|INTERRES
   111   54  179 1    
   112   55   56 2    
   113   55   57 1    
   114   57   58 1    
   115   57   59 1    
   116   57  180 1    
   117   58  181 1    
   118   58  182 1    
   119   58  183 1    
   120   59   60 am   BACKBONE|DICT|INTERRES
   121   59  184 1    
   122   60   61 2    
   123   60   62 1    
   124   62   63 1    
   125   62   64 1    
   126   62  185 1    
   127   63  186 1    
   128   63  187 1    
   129   63  188 1    
   130   64   65 am   BACKBONE|DICT|INTERRES
   131   64  189 1    
   132   65   66 2    
   133   67   68 2    
   134   67   69 am   BACKBONE|DICT|INTERRES
   135   69   70 1    
   136   69  190 1    
   137   70   71 1    
   138   70   72 1    
   139   70  191 1    
   140   71  192 1    
   141   71  193 1    
   142   71  194 1    
   143   72   73 2    
   144   72   74 am   BACKBONE|DICT|INTERRES
   145   74   75 1    
   146   74  195 1    
   147   75   76 1    
   148   75   77 1    
   149   75  196 1    
   150   76  197 1    
   151   76  198 1    
   152   76  199 1    
   153   77   78 2    
   154   77   79 am   BACKBONE|DICT|INTERRES
   155   79   80 1    
   156   79  200 1    
   157   80   81 1    
   158   80   82 1    
   159   80  201 1    
   160   81  202 1    
   161   81  203 1    
   162   81  204 1    
   163   82   83 2    
   164   82   84 am   BACKBONE|DICT|INTERRES
   165   84   85 1    
   166   84  205 1    
   167   85   86 1    
   168   85   87 1    
   169   85  206 1    
   170   86  207 1    
   171   86  208 1    
   172   86  209 1    
   173   87   88 2    
   174   87   89 am   BACKBONE|DICT|INTERRES
   175   89   90 1    
   176   89  210 1    
   177   90   91 1    
   178   90   92 1    
   179   90  211 1    
   180   91  212 1    
   181   91  213 1    
   182   91  214 1    
   183   92   93 2    
   184   92   94 am   BACKBONE|DICT|INTERRES
   185   94   95 1    
   186   94  215 1    
   187   95   96 1    
   188   95   97 1    
   189   95  216 1    
   190   96  217 1    
   191   96  218 1    
   192   96  219 1    
   193   97   98 2    
   194   97   99 am   BACKBONE|DICT|INTERRES
   195   99  100 1    
   196   99  220 1    
   197  100  101 1    
   198  100  102 1    
   199  100  221 1    
   200  101  222 1    
   201  101  223 1    
   202  101  224 1    
   203  102  103 2    
   204  102  104 am   BACKBONE|DICT|INTERRES
   205  104  105 1    
   206  104  225 1    
   207  105  106 1    
   208  105  107 1    
   209  105  226 1    
   210  106  227 1    
   211  106  228 1    
   212  106  229 1    
   213  107  108 2    
   214  107  109 am   BACKBONE|DICT|INTERRES
   215  109  110 1    
   216  109  230 1    
   217  110  111 1    
   218  110  112 1    
   219  110  231 1    
   220  111  232 1    
   221  111  233 1    
   222  111  234 1    
   223  112  113 2    
   224  112  114 am   BACKBONE|DICT|INTERRES
   225  114  115 1    
   226  114  235 1    
   227  115  116 1    
   228  115  117 1    
   229  115  236 1    
   230  116  237 1    
   231  116  238 1    
   232  116  239 1    
   233  117  118 2    
   234  117  119 am   BACKBONE|DICT|INTERRES
   235  119  120 1    
   236  119  240 1    
   237  120  121 1    
   238  120  124 1    
   239  120  241 1    
   240  121  122 am   BACKBONE|DICT|INTERRES
   241  121  123 2    
   242  122  242 1    
   243  122  243 1    
   244  124  125 1    
   245  124  244 1    
   246  124  245 1    
   247  125  126 1    
   248  126  246 1    
   249  126  247 1    
@<TRIPOS>SUBSTRUCTURE
     1 UNK         1 GROUP             0       ****    0 ROOT    
