@<TRIPOS>MOLECULE
3R540
247   249    1
SMALL
USER_CHARGES


@<TRIPOS>ATOM
      1 CA          1.3472  -10.9928  -49.7655 C.3       0 UNK        -0.1800 
      2 C           0.0242  -11.7245  -49.5459 C.2       0 UNK         0.5000 
      3 O          -0.9132  -11.5167  -50.3133 O.2       0 UNK        -0.5000 
      4 N          -0.1092  -12.5876  -48.5283 N.am      1 UNK        -0.5000 
      5 CA          0.8903  -12.9174  -47.5007 C.3       1 UNK         0.1400 
      6 C6          0.5121  -14.1962  -46.7148 C.3       23 UNK        -0.0398 
      7 S7          0.4484  -15.6736  -47.7825 S.3       23 UNK        -0.2404 
      8 C8         -1.3460  -15.9005  -47.9873 C.3       23 UNK        -0.0205 
      9 C9         -1.6365  -16.9093  -49.0856 C.ar      23 UNK        -0.0193 
     10 C10        -1.7292  -16.4857  -50.4158 C.ar      23 UNK        -0.1150 
     11 C11        -1.9576  -17.4113  -51.4372 C.ar      23 UNK        -0.0193 
     12 C12        -2.0978  -18.7624  -51.1205 C.ar      23 UNK        -0.1150 
     13 C13        -2.0027  -19.1996  -49.7985 C.ar      23 UNK        -0.0193 
     14 C14        -1.7868  -18.2662  -48.7799 C.ar      23 UNK        -0.1150 
     15 C15        -2.1035  -20.6844  -49.4939 C.3       23 UNK        -0.0205 
     16 S16        -0.4727  -21.4824  -49.5969 S.3       23 UNK        -0.2404 
     17 C17         0.1348  -21.2591  -47.8897 C.3       23 UNK        -0.0398 
     18 CA          0.1164  -22.5736  -47.0769 C.3       11 UNK         0.1400 
     19 N           0.8270  -22.4372  -45.8073 N.am      11 UNK        -0.5000 
     20 C           1.1874  -23.4637  -45.0253 C.2       10 UNK         0.5000 
     21 O           1.0205  -24.6456  -45.3264 O.2       10 UNK        -0.5000 
     22 CA          1.7975  -23.1080  -43.6581 C.3       10 UNK         0.1400 
     23 CB          3.2923  -22.7836  -43.7960 C.3       10 UNK        -0.1800 
     24 N           1.1059  -21.9932  -43.0074 N.am      10 UNK        -0.5000 
     25 C          -0.1769  -22.0252  -42.6168 C.2       9 UNK         0.5000 
     26 O          -0.8999  -23.0160  -42.7252 O.2       9 UNK        -0.5000 
     27 CA         -0.7631  -20.7242  -42.0404 C.3       9 UNK         0.1400 
     28 CB         -0.3542  -20.5493  -40.5703 C.3       9 UNK        -0.1800 
     29 N          -0.3799  -19.5347  -42.8018 N.am      9 UNK        -0.5000 
     30 C          -0.7109  -19.3013  -44.0803 C.2       8 UNK         0.5000 
     31 O          -1.3882  -20.0642  -44.7661 O.2       8 UNK        -0.5000 
     32 CA         -0.1411  -18.0251  -44.7219 C.3       8 UNK         0.1400 
     33 CB         -0.8875  -16.7808  -44.2181 C.3       8 UNK        -0.1800 
     34 N           1.2931  -17.8820  -44.4796 N.am      8 UNK        -0.5000 
     35 C           2.2225  -18.7652  -44.8741 C.2       7 UNK         0.5000 
     36 O           1.9785  -19.7733  -45.5374 O.2       7 UNK        -0.5000 
     37 CA          3.6590  -18.5077  -44.3933 C.3       7 UNK         0.1400 
     38 CB          4.3650  -17.4911  -45.3027 C.3       7 UNK        -0.1800 
     39 N           3.6880  -18.0449  -43.0049 N.am      7 UNK        -0.5000 
     40 C           3.3744  -18.8109  -41.9492 C.2       6 UNK         0.5000 
     41 O           3.0665  -19.9995  -42.0337 O.2       6 UNK        -0.5000 
     42 CA          3.3586  -18.1202  -40.5734 C.3       6 UNK         0.1400 
     43 CB          4.7793  -18.0187  -39.9988 C.3       6 UNK        -0.1800 
     44 N           2.7569  -16.7873  -40.6249 N.am      6 UNK        -0.5000 
     45 C           1.4651  -16.5513  -40.8948 C.2       5 UNK         0.5000 
     46 O           0.6343  -17.4399  -41.0775 O.2       5 UNK        -0.5000 
     47 CA          1.0387  -15.0774  -41.0281 C.3       5 UNK         0.1400 
     48 CB          0.5988  -14.5160  -39.6685 C.3       5 UNK        -0.1800 
     49 N           2.0809  -14.2163  -41.5906 N.am      5 UNK        -0.5000 
     50 C           2.6242  -14.3472  -42.8069 C.2       4 UNK         0.5000 
     51 O           2.3070  -15.2394  -43.5958 O.2       4 UNK        -0.5000 
     52 CA          3.6986  -13.3073  -43.1858 C.3       4 UNK         0.1400 
     53 CB          4.3722  -13.6121  -44.5356 C.3       4 UNK        -0.1800 
     54 N           3.1525  -11.9477  -43.2088 N.am      4 UNK        -0.5000 
     55 C           2.9306  -11.1918  -42.1222 C.2       3 UNK         0.5000 
     56 O           3.1592  -11.5826  -40.9758 O.2       3 UNK        -0.5000 
     57 CA          2.3647   -9.7715  -42.3233 C.3       3 UNK         0.1400 
     58 CB          3.4743   -8.7240  -42.1421 C.3       3 UNK        -0.1800 
     59 N           1.7298   -9.5607  -43.6237 N.am      3 UNK        -0.5000 
     60 C           0.5456  -10.0630  -43.9954 C.2       2 UNK         0.5000 
     61 O          -0.1576  -10.7659  -43.2680 O.2       2 UNK        -0.5000 
     62 CA          0.0668   -9.7476  -45.4292 C.3       2 UNK         0.1400 
     63 CB          0.8362   -8.5950  -46.1144 C.3       2 UNK        -0.1800 
     64 N           0.0817  -10.9385  -46.2833 N.am      2 UNK        -0.5000 
     65 C           1.1267  -11.7459  -46.5250 C.2       1 UNK         0.5000 
     66 O           2.2465  -11.5821  -46.0406 O.2       1 UNK        -0.5000 
     67 C          -1.3121  -23.1181  -46.8653 C.2       11 UNK         0.5000 
     68 O          -1.6927  -24.0707  -47.5428 O.2       11 UNK        -0.5000 
     69 N          -2.0605  -22.5474  -45.9097 N.am      12 UNK        -0.5000 
     70 CA         -3.4365  -22.9314  -45.5713 C.3       12 UNK         0.1400 
     71 CB         -3.9908  -21.9629  -44.5160 C.3       12 UNK        -0.1800 
     72 C          -3.5928  -24.3904  -45.0952 C.2       12 UNK         0.5000 
     73 O          -4.6723  -24.9654  -45.2371 O.2       12 UNK        -0.5000 
     74 N          -2.5163  -24.9687  -44.5486 N.am      13 UNK        -0.5000 
     75 CA         -2.4351  -26.3770  -44.1676 C.3       13 UNK         0.1400 
     76 CB         -1.2776  -26.5515  -43.1721 C.3       13 UNK        -0.1800 
     77 C          -2.2612  -27.3282  -45.3711 C.2       13 UNK         0.5000 
     78 O          -2.5334  -28.5210  -45.2264 O.2       13 UNK        -0.5000 
     79 N          -1.7987  -26.8088  -46.5171 N.am      14 UNK        -0.5000 
     80 CA         -1.4817  -27.5809  -47.7192 C.3       14 UNK         0.1400 
     81 CB         -0.0608  -27.2157  -48.1791 C.3       14 UNK        -0.1800 
     82 C          -2.4879  -27.3365  -48.8570 C.2       14 UNK         0.5000 
     83 O          -2.8657  -28.2888  -49.5412 O.2       14 UNK        -0.5000 
     84 N          -2.8938  -26.0779  -49.0533 N.am      15 UNK        -0.5000 
     85 CA         -3.7750  -25.6207  -50.1247 C.3       15 UNK         0.1400 
     86 CB         -2.9596  -25.4204  -51.4196 C.3       15 UNK        -0.1800 
     87 C          -4.5309  -24.3605  -49.6628 C.2       15 UNK         0.5000 
     88 O          -4.8330  -24.2389  -48.4755 O.2       15 UNK        -0.5000 
     89 N          -4.8456  -23.4502  -50.5913 N.am      16 UNK        -0.5000 
     90 CA         -5.5545  -22.1994  -50.3425 C.3       16 UNK         0.1400 
     91 CB         -7.0554  -22.4727  -50.1224 C.3       16 UNK        -0.1800 
     92 C          -5.3591  -21.2674  -51.5439 C.2       16 UNK         0.5000 
     93 O          -5.0672  -21.7370  -52.6476 O.2       16 UNK        -0.5000 
     94 N          -5.5879  -19.9657  -51.3313 N.am      17 UNK        -0.5000 
     95 CA         -5.6329  -18.9606  -52.3977 C.3       17 UNK         0.1400 
     96 CB         -5.7082  -17.5575  -51.7782 C.3       17 UNK        -0.1800 
     97 C          -6.8106  -19.1983  -53.3632 C.2       17 UNK         0.5000 
     98 O          -6.6535  -19.0346  -54.5724 O.2       17 UNK        -0.5000 
     99 N          -7.9444  -19.6597  -52.8139 N.am      18 UNK        -0.5000 
    100 CA        -9.1400  -20.0757  -53.5529 C.3       18 UNK         0.1400 
    101 CB       -10.2896  -20.2854  -52.5557 C.3       18 UNK        -0.1800 
    102 C         -8.9283  -21.3460  -54.4029 C.2       18 UNK         0.5000 
    103 O         -9.6506  -21.5462  -55.3795 O.2       18 UNK        -0.5000 
    104 N         -7.9313  -22.1641  -54.0360 N.am      19 UNK        -0.5000 
    105 CA        -7.4871  -23.3409  -54.7862 C.3       19 UNK         0.1400 
    106 CB        -6.9497  -24.3907  -53.7977 C.3       19 UNK        -0.1800 
    107 C         -6.4322  -22.9923  -55.8591 C.2       19 UNK         0.5000 
    108 O         -5.9562  -23.8989  -56.5433 O.2       19 UNK        -0.5000 
    109 N         -6.0880  -21.7002  -55.9885 N.am      20 UNK        -0.5000 
    110 CA        -5.1185  -21.1206  -56.9207 C.3       20 UNK         0.1400 
    111 CB        -5.5797  -21.2970  -58.3831 C.3       20 UNK        -0.1800 
    112 C         -3.6796  -21.6116  -56.6670 C.2       20 UNK         0.5000 
    113 O         -2.9496  -21.9078  -57.6149 O.2       20 UNK        -0.5000 
    114 N         -3.2916  -21.6834  -55.3839 N.am      21 UNK        -0.5000 
    115 CA        -1.9375  -22.0480  -54.9561 C.3       21 UNK         0.1400 
    116 CB        -1.9372  -22.3185  -53.4456 C.3       21 UNK        -0.1800 
    117 C         -0.8709  -20.9984  -55.3356 C.2       21 UNK         0.5000 
    118 O          0.2830  -21.3680  -55.5580 O.2       21 UNK        -0.5000 
    119 N         -1.2759  -19.7248  -55.4342 N.am      22 UNK        -0.5000 
    120 CA        -0.4710  -18.6426  -56.0197 C.3       22 UNK         0.1400 
    121 C         -0.6320  -18.6368  -57.5626 C.2       22 UNK         0.5000 
    122 N          0.4606  -18.6626  -58.3131 N.am      22 UNK        -0.7600 
    123 O         -1.7434  -18.5675  -58.0828 O.2       22 UNK        -0.5000 
    124 C124       -0.8352  -17.2546  -55.4335 C.3       23 UNK        -0.0398 
    125 S125       -0.3918  -17.1223  -53.6701 S.3       23 UNK        -0.2404 
    126 C126       -2.0261  -16.9738  -52.8891 C.3       23 UNK        -0.0205 
    127 H127        1.4965  -10.2274  -49.0042 H         1 UNK         0.0600 
    128 H128        1.3499  -10.4985  -50.7372 H         1 UNK         0.0600 
    129 H129        2.1923  -11.6801  -49.7474 H         1 UNK         0.0600 
    130 H130       -0.9910  -13.0677  -48.4341 H         1 UNK         0.3000 
    131 H131        1.8411  -13.1137  -47.9993 H         1 UNK         0.0600 
    132 H132        1.2523  -14.3980  -45.9385 H         1 UNK         0.0800 
    133 H133       -0.4412  -14.0683  -46.1994 H         1 UNK         0.0800 
    134 H134       -1.7841  -16.2290  -47.0442 H         1 UNK         0.0800 
    135 H135       -1.8180  -14.9487  -48.2323 H         1 UNK         0.0800 
    136 H136       -1.6010  -15.4399  -50.6579 H         1 UNK         0.1150 
    137 H137       -2.2573  -19.4765  -51.9128 H         1 UNK         0.1150 
    138 H138       -1.7116  -18.5953  -47.7538 H         1 UNK         0.1150 
    139 H139       -2.5591  -20.8522  -48.5169 H         1 UNK         0.0800 
    140 H140       -2.7557  -21.1658  -50.2212 H         1 UNK         0.0800 
    141 H141        1.1582  -20.8884  -47.9610 H         1 UNK         0.0800 
    142 H142       -0.4253  -20.4778  -47.3762 H         1 UNK         0.0800 
    143 H143        0.6591  -23.3218  -47.6594 H         1 UNK         0.0600 
    144 H144        1.0475  -21.4910  -45.5093 H         1 UNK         0.3000 
    145 H145        1.6980  -23.9837  -43.0133 H         1 UNK         0.0600 
    146 H146        3.7502  -22.6157  -42.8212 H         1 UNK         0.0600 
    147 H147        3.8288  -23.6065  -44.2699 H         1 UNK         0.0600 
    148 H148        3.4567  -21.8916  -44.4010 H         1 UNK         0.0600 
    149 H149        1.6529  -21.1547  -42.8378 H         1 UNK         0.3000 
    150 H150       -1.8509  -20.8051  -42.0805 H         1 UNK         0.0600 
    151 H151       -0.6360  -21.4213  -39.9788 H         1 UNK         0.0600 
    152 H152       -0.8445  -19.6829  -40.1262 H         1 UNK         0.0600 
    153 H153        0.7227  -20.4134  -40.4653 H         1 UNK         0.0600 
    154 H154        0.1520  -18.8299  -42.2979 H         1 UNK         0.3000 
    155 H155       -0.2824  -18.0959  -45.8019 H         1 UNK         0.0600 
    156 H156       -0.4488  -15.8668  -44.6136 H         1 UNK         0.0600 
    157 H157       -0.8738  -16.7092  -43.1315 H         1 UNK         0.0600 
    158 H158       -1.9327  -16.8053  -44.5277 H         1 UNK         0.0600 
    159 H159        1.5962  -17.0515  -43.9803 H         1 UNK         0.3000 
    160 H160        4.2081  -19.4500  -44.4482 H         1 UNK         0.0600 
    161 H161        3.8245  -16.5459  -45.3508 H         1 UNK         0.0600 
    162 H162        4.4387  -17.8724  -46.3218 H         1 UNK         0.0600 
    163 H163        5.3783  -17.2853  -44.9579 H         1 UNK         0.0600 
    164 H164        3.8678  -17.0630  -42.8581 H         1 UNK         0.3000 
    165 H165        2.7609  -18.7367  -39.8985 H         1 UNK         0.0600 
    166 H166        5.4220  -17.3900  -40.6162 H         1 UNK         0.0600 
    167 H167        4.7680  -17.6011  -38.9918 H         1 UNK         0.0600 
    168 H168        5.2452  -19.0031  -39.9360 H         1 UNK         0.0600 
    169 H169        3.3706  -15.9989  -40.4825 H         1 UNK         0.3000 
    170 H170        0.1828  -15.0416  -41.7044 H         1 UNK         0.0600 
    171 H171       -0.1960  -15.1235  -39.2335 H         1 UNK         0.0600 
    172 H172        1.4242  -14.4939  -38.9558 H         1 UNK         0.0600 
    173 H173        0.2138  -13.5008  -39.7676 H         1 UNK         0.0600 
    174 H174        2.3836  -13.4283  -41.0268 H         1 UNK         0.3000 
    175 H175        4.4773  -13.3555  -42.4218 H         1 UNK         0.0600 
    176 H176        5.0904  -12.8372  -44.8037 H         1 UNK         0.0600 
    177 H177        4.9176  -14.5548  -44.4900 H         1 UNK         0.0600 
    178 H178        3.6484  -13.6925  -45.3463 H         1 UNK         0.0600 
    179 H179        2.8913  -11.5882  -44.1218 H         1 UNK         0.3000 
    180 H180        1.6143   -9.6090  -41.5467 H         1 UNK         0.0600 
    181 H181        4.2518   -8.8266  -42.9003 H         1 UNK         0.0600 
    182 H182        3.9520   -8.8239  -41.1665 H         1 UNK         0.0600 
    183 H183        3.0753   -7.7113  -42.2037 H         1 UNK         0.0600 
    184 H184        2.2527   -9.0214  -44.2984 H         1 UNK         0.3000 
    185 H185       -0.9758   -9.4389  -45.3403 H         1 UNK         0.0600 
    186 H186        0.3893   -8.3527  -47.0787 H         1 UNK         0.0600 
    187 H187        0.8046   -7.6865  -45.5115 H         1 UNK         0.0600 
    188 H188        1.8831   -8.8421  -46.2941 H         1 UNK         0.0600 
    189 H189       -0.7983  -11.1668  -46.7237 H         1 UNK         0.3000 
    190 H190       -1.6886  -21.7439  -45.4065 H         1 UNK         0.3000 
    191 H191       -4.0357  -22.8164  -46.4749 H         1 UNK         0.0600 
    192 H192       -5.0211  -22.2113  -44.2584 H         1 UNK         0.0600 
    193 H193       -3.9880  -20.9361  -44.8819 H         1 UNK         0.0600 
    194 H194       -3.4052  -21.9953  -43.5972 H         1 UNK         0.0600 
    195 H195       -1.6881  -24.4052  -44.4019 H         1 UNK         0.3000 
    196 H196       -3.3615  -26.6540  -43.6602 H         1 UNK         0.0600 
    197 H197       -1.2134  -27.5828  -42.8230 H         1 UNK         0.0600 
    198 H198       -1.4131  -25.9189  -42.2945 H         1 UNK         0.0600 
    199 H199       -0.3179  -26.2970  -43.6225 H         1 UNK         0.0600 
    200 H200       -1.6480  -25.8076  -46.5768 H         1 UNK         0.3000 
    201 H201       -1.4917  -28.6502  -47.4986 H         1 UNK         0.0600 
    202 H202        0.6731  -27.4460  -47.4065 H         1 UNK         0.0600 
    203 H203        0.0279  -26.1544  -48.4153 H         1 UNK         0.0600 
    204 H204        0.2184  -27.7764  -49.0720 H         1 UNK         0.0600 
    205 H205       -2.5570  -25.3415  -48.4332 H         1 UNK         0.3000 
    206 H206       -4.5351  -26.3831  -50.3059 H         1 UNK         0.0600 
    207 H207       -2.4208  -26.3282  -51.6914 H         1 UNK         0.0600 
    208 H208       -3.6033  -25.1753  -52.2648 H         1 UNK         0.0600 
    209 H209       -2.2243  -24.6227  -51.3061 H         1 UNK         0.0600 
    210 H210       -4.5504  -23.5747  -51.5512 H         1 UNK         0.3000 
    211 H211       -5.1331  -21.7183  -49.4575 H         1 UNK         0.0600 
    212 H212       -7.5025  -22.9767  -50.9800 H         1 UNK         0.0600 
    213 H213       -7.6081  -21.5468  -49.9594 H         1 UNK         0.0600 
    214 H214       -7.2222  -23.0994  -49.2464 H         1 UNK         0.0600 
    215 H215       -5.8140  -19.6457  -50.4005 H         1 UNK         0.3000 
    216 H216       -4.7084  -19.0347  -52.9737 H         1 UNK         0.0600 
    217 H217       -5.6833  -16.7888  -52.5517 H         1 UNK         0.0600 
    218 H218       -4.8662  -17.3733  -51.1111 H         1 UNK         0.0600 
    219 H219       -6.6249  -17.4173  -51.2042 H         1 UNK         0.0600 
    220 H220       -7.9823  -19.7574  -51.8104 H         1 UNK         0.3000 
    221 H221       -9.4163  -19.2673  -54.2331 H         1 UNK         0.0600 
    222 H222      -10.0601  -21.0728  -51.8365 H         1 UNK         0.0600 
    223 H223      -10.5013  -19.3722  -51.9992 H         1 UNK         0.0600 
    224 H224      -11.2079  -20.5695  -53.0716 H         1 UNK         0.0600 
    225 H225       -7.3586  -21.9043  -53.2463 H         1 UNK         0.3000 
    226 H226       -8.3416  -23.7796  -55.3054 H         1 UNK         0.0600 
    227 H227       -7.6852  -24.6233  -53.0276 H         1 UNK         0.0600 
    228 H228       -6.7144  -25.3239  -54.3108 H         1 UNK         0.0600 
    229 H229       -6.0387  -24.0561  -53.3036 H         1 UNK         0.0600 
    230 H230       -6.5292  -21.0303  -55.3707 H         1 UNK         0.3000 
    231 H231       -5.1068  -20.0494  -56.7149 H         1 UNK         0.0600 
    232 H232       -4.9329  -20.7427  -59.0642 H         1 UNK         0.0600 
    233 H233       -6.5938  -20.9228  -58.5241 H         1 UNK         0.0600 
    234 H234       -5.5606  -22.3418  -58.6941 H         1 UNK         0.0600 
    235 H235       -3.9647  -21.4928  -54.6515 H         1 UNK         0.3000 
    236 H236       -1.6681  -22.9787  -55.4601 H         1 UNK         0.0600 
    237 H237       -2.6209  -23.1290  -53.1997 H         1 UNK         0.0600 
    238 H238       -0.9457  -22.6067  -53.0939 H         1 UNK         0.0600 
    239 H239       -2.2468  -21.4428  -52.8794 H         1 UNK         0.0600 
    240 H240       -2.2507  -19.5211  -55.2789 H         1 UNK         0.3000 
    241 H241        0.5806  -18.8259  -55.7884 H         1 UNK         0.0600 
    242 H242        1.3817  -18.7167  -57.9054 H         1 UNK         0.3800 
    243 H243        0.3658  -18.6446  -59.3169 H         1 UNK         0.3800 
    244 H244       -0.2897  -16.4682  -55.9583 H         1 UNK         0.0800 
    245 H245       -1.8939  -17.0339  -55.5797 H         1 UNK         0.0800 
    246 H246       -2.7513  -17.5910  -53.4207 H         1 UNK         0.0800 
    247 H247       -2.3773  -15.9437  -52.9659 H         1 UNK         0.0800 
@<TRIPOS>BOND
     1    1    2 1    
     2    1  127 1    
     3    1  128 1    
     4    1  129 1    
     5    2    3 2    
     6    2    4 am   BACKBONE|DICT|INTERRES
     7    4    5 1    
     8    4  130 1    
     9    5    6 1    
    10    5   65 1    
    11    5  131 1    
    12    6    7 1    
    13    6  132 1    
    14    6  133 1    
    15    7    8 1    
    16    8    9 1    
    17    8  134 1    
    18    8  135 1    
    19    9   10 ar   
    20    9   14 ar   
    21   10   11 ar   
    22   10  136 1    
    23   11   12 ar   
    24   11  126 1    
    25   12   13 ar   
    26   12  137 1    
    27   13   14 ar   
    28   13   15 1    
    29   14  138 1    
    30   15   16 1    
    31   15  139 1    
    32   15  140 1    
    33   16   17 1    
    34   17   18 1    
    35   17  141 1    
    36   17  142 1    
    37   18   19 1    
    38   18   67 1    
    39   18  143 1    
    40   19   20 am   BACKBONE|DICT|INTERRES
    41   19  144 1    
    42   20   21 2    
    43   20   22 1    
    44   22   23 1    
    45   22   24 1    
    46   22  145 1    
    47   23  146 1    
    48   23  147 1    
    49   23  148 1    
    50   24   25 am   BACKBONE|DICT|INTERRES
    51   24  149 1    
    52   25   26 2    
    53   25   27 1    
    54   27   28 1    
    55   27   29 1    
    56   27  150 1    
    57   28  151 1    
    58   28  152 1    
    59   28  153 1    
    60   29   30 am   BACKBONE|DICT|INTERRES
    61   29  154 1    
    62   30   31 2    
    63   30   32 1    
    64   32   33 1    
    65   32   34 1    
    66   32  155 1    
    67   33  156 1    
    68   33  157 1    
    69   33  158 1    
    70   34   35 am   BACKBONE|DICT|INTERRES
    71   34  159 1    
    72   35   36 2    
    73   35   37 1    
    74   37   38 1    
    75   37   39 1    
    76   37  160 1    
    77   38  161 1    
    78   38  162 1    
    79   38  163 1    
    80   39   40 am   BACKBONE|DICT|INTERRES
    81   39  164 1    
    82   40   41 2    
    83   40   42 1    
    84   42   43 1    
    85   42   44 1    
    86   42  165 1    
    87   43  166 1    
    88   43  167 1    
    89   43  168 1    
    90   44   45 am   BACKBONE|DICT|INTERRES
    91   44  169 1    
    92   45   46 2    
    93   45   47 1    
    94   47   48 1    
    95   47   49 1    
    96   47  170 1    
    97   48  171 1    
    98   48  172 1    
    99   48  173 1    
   100   49   50 am   BACKBONE|DICT|INTERRES
   101   49  174 1    
   102   50   51 2    
   103   50   52 1    
   104   52   53 1    
   105   52   54 1    
   106   52  175 1    
   107   53  176 1    
   108   53  177 1    
   109   53  178 1    
   110   54   55 am   BACKBONE|DICT|INTERRES
   111   54  179 1    
   112   55   56 2    
   113   55   57 1    
   114   57   58 1    
   115   57   59 1    
   116   57  180 1    
   117   58  181 1    
   118   58  182 1    
   119   58  183 1    
   120   59   60 am   BACKBONE|DICT|INTERRES
   121   59  184 1    
   122   60   61 2    
   123   60   62 1    
   124   62   63 1    
   125   62   64 1    
   126   62  185 1    
   127   63  186 1    
   128   63  187 1    
   129   63  188 1    
   130   64   65 am   BACKBONE|DICT|INTERRES
   131   64  189 1    
   132   65   66 2    
   133   67   68 2    
   134   67   69 am   BACKBONE|DICT|INTERRES
   135   69   70 1    
   136   69  190 1    
   137   70   71 1    
   138   70   72 1    
   139   70  191 1    
   140   71  192 1    
   141   71  193 1    
   142   71  194 1    
   143   72   73 2    
   144   72   74 am   BACKBONE|DICT|INTERRES
   145   74   75 1    
   146   74  195 1    
   147   75   76 1    
   148   75   77 1    
   149   75  196 1    
   150   76  197 1    
   151   76  198 1    
   152   76  199 1    
   153   77   78 2    
   154   77   79 am   BACKBONE|DICT|INTERRES
   155   79   80 1    
   156   79  200 1    
   157   80   81 1    
   158   80   82 1    
   159   80  201 1    
   160   81  202 1    
   161   81  203 1    
   162   81  204 1    
   163   82   83 2    
   164   82   84 am   BACKBONE|DICT|INTERRES
   165   84   85 1    
   166   84  205 1    
   167   85   86 1    
   168   85   87 1    
   169   85  206 1    
   170   86  207 1    
   171   86  208 1    
   172   86  209 1    
   173   87   88 2    
   174   87   89 am   BACKBONE|DICT|INTERRES
   175   89   90 1    
   176   89  210 1    
   177   90   91 1    
   178   90   92 1    
   179   90  211 1    
   180   91  212 1    
   181   91  213 1    
   182   91  214 1    
   183   92   93 2    
   184   92   94 am   BACKBONE|DICT|INTERRES
   185   94   95 1    
   186   94  215 1    
   187   95   96 1    
   188   95   97 1    
   189   95  216 1    
   190   96  217 1    
   191   96  218 1    
   192   96  219 1    
   193   97   98 2    
   194   97   99 am   BACKBONE|DICT|INTERRES
   195   99  100 1    
   196   99  220 1    
   197  100  101 1    
   198  100  102 1    
   199  100  221 1    
   200  101  222 1    
   201  101  223 1    
   202  101  224 1    
   203  102  103 2    
   204  102  104 am   BACKBONE|DICT|INTERRES
   205  104  105 1    
   206  104  225 1    
   207  105  106 1    
   208  105  107 1    
   209  105  226 1    
   210  106  227 1    
   211  106  228 1    
   212  106  229 1    
   213  107  108 2    
   214  107  109 am   BACKBONE|DICT|INTERRES
   215  109  110 1    
   216  109  230 1    
   217  110  111 1    
   218  110  112 1    
   219  110  231 1    
   220  111  232 1    
   221  111  233 1    
   222  111  234 1    
   223  112  113 2    
   224  112  114 am   BACKBONE|DICT|INTERRES
   225  114  115 1    
   226  114  235 1    
   227  115  116 1    
   228  115  117 1    
   229  115  236 1    
   230  116  237 1    
   231  116  238 1    
   232  116  239 1    
   233  117  118 2    
   234  117  119 am   BACKBONE|DICT|INTERRES
   235  119  120 1    
   236  119  240 1    
   237  120  121 1    
   238  120  124 1    
   239  120  241 1    
   240  121  122 am   BACKBONE|DICT|INTERRES
   241  121  123 2    
   242  122  242 1    
   243  122  243 1    
   244  124  125 1    
   245  124  244 1    
   246  124  245 1    
   247  125  126 1    
   248  126  246 1    
   249  126  247 1    
@<TRIPOS>SUBSTRUCTURE
     1 UNK         1 GROUP             0       ****    0 ROOT    
