@<TRIPOS>MOLECULE
3R540
247   249    1
SMALL
USER_CHARGES


@<TRIPOS>ATOM
      1 CA          4.9554  -13.8217  -54.0696 C.3       0 UNK        -0.1800 
      2 C           4.7128  -13.6013  -52.5830 C.2       0 UNK         0.5000 
      3 O           5.0207  -12.5279  -52.0637 O.2       0 UNK        -0.5000 
      4 N           4.1717  -14.6149  -51.8975 N.am      1 UNK        -0.5000 
      5 CA          3.8195  -14.5731  -50.4742 C.3       1 UNK         0.1400 
      6 C6          3.5275  -15.9815  -49.8933 C.3       23 UNK        -0.0398 
      7 S7          4.8433  -17.2084  -50.2006 S.3       23 UNK        -0.2404 
      8 C8          4.0636  -18.2813  -51.4522 C.3       23 UNK        -0.0205 
      9 C9          3.0527  -19.2462  -50.8460 C.ar      23 UNK        -0.0193 
     10 C10         1.6873  -18.9399  -50.8415 C.ar      23 UNK        -0.1150 
     11 C11         0.7569  -19.8367  -50.3076 C.ar      23 UNK        -0.0193 
     12 C12         1.2012  -21.0663  -49.8135 C.ar      23 UNK        -0.1150 
     13 C13         2.5628  -21.3750  -49.7876 C.ar      23 UNK        -0.0193 
     14 C14         3.4841  -20.4627  -50.3087 C.ar      23 UNK        -0.1150 
     15 C15         3.0330  -22.6975  -49.2030 C.3       23 UNK        -0.0205 
     16 S16         3.6455  -22.5382  -47.4919 S.3       23 UNK        -0.2404 
     17 C17         2.2067  -21.9054  -46.5576 C.3       23 UNK        -0.0398 
     18 CA          1.3113  -23.0276  -45.9693 C.3       11 UNK         0.1400 
     19 N           0.8782  -22.7258  -44.6006 N.am      11 UNK        -0.5000 
     20 C           0.3616  -23.6203  -43.7453 C.2       10 UNK         0.5000 
     21 O           0.2314  -24.8141  -44.0204 O.2       10 UNK        -0.5000 
     22 CA         -0.1496  -23.0858  -42.3914 C.3       10 UNK         0.1400 
     23 CB         -0.0609  -24.1309  -41.2599 C.3       10 UNK        -0.1800 
     24 N           0.4554  -21.8103  -41.9940 N.am      10 UNK        -0.5000 
     25 C           1.7311  -21.5736  -41.6498 C.2       9 UNK         0.5000 
     26 O           2.5975  -22.4475  -41.6018 O.2       9 UNK        -0.5000 
     27 CA          2.1232  -20.1165  -41.3176 C.3       9 UNK         0.1400 
     28 CB          3.1817  -19.6041  -42.3082 C.3       9 UNK        -0.1800 
     29 N           0.9929  -19.1850  -41.3194 N.am      9 UNK        -0.5000 
     30 C           0.0658  -19.0810  -40.3583 C.2       8 UNK         0.5000 
     31 O           0.0994  -19.7170  -39.3046 O.2       8 UNK        -0.5000 
     32 CA         -1.1270  -18.1473  -40.6483 C.3       8 UNK         0.1400 
     33 CB         -0.8213  -16.7137  -40.1902 C.3       8 UNK        -0.1800 
     34 N          -1.5262  -18.1409  -42.0607 N.am      8 UNK        -0.5000 
     35 C          -2.0034  -19.2084  -42.7189 C.2       7 UNK         0.5000 
     36 O          -2.1809  -20.3078  -42.1948 O.2       7 UNK        -0.5000 
     37 CA         -2.2774  -19.0455  -44.2240 C.3       7 UNK         0.1400 
     38 CB         -3.6179  -18.3352  -44.4644 C.3       7 UNK        -0.1800 
     39 N          -1.1990  -18.3413  -44.9170 N.am      7 UNK        -0.5000 
     40 C           0.0498  -18.8119  -45.0496 C.2       6 UNK         0.5000 
     41 O           0.3978  -19.9297  -44.6670 O.2       6 UNK        -0.5000 
     42 CA          1.1034  -17.8577  -45.6443 C.3       6 UNK         0.1400 
     43 CB          1.0847  -17.8708  -47.1766 C.3       6 UNK        -0.1800 
     44 N           0.9472  -16.4833  -45.1736 N.am      6 UNK        -0.5000 
     45 C           1.1037  -16.0948  -43.9015 C.2       5 UNK         0.5000 
     46 O           1.4336  -16.8523  -42.9907 O.2       5 UNK        -0.5000 
     47 CA          0.7968  -14.6220  -43.5888 C.3       5 UNK         0.1400 
     48 CB          1.9868  -13.7253  -43.9602 C.3       5 UNK        -0.1800 
     49 N          -0.4072  -14.1621  -44.2803 N.am      5 UNK        -0.5000 
     50 C          -1.6501  -14.5544  -43.9668 C.2       4 UNK         0.5000 
     51 O          -1.9111  -15.3277  -43.0451 O.2       4 UNK        -0.5000 
     52 CA         -2.7879  -14.0208  -44.8572 C.3       4 UNK         0.1400 
     53 CB         -3.2063  -12.6101  -44.4169 C.3       4 UNK        -0.1800 
     54 N          -2.4355  -14.0029  -46.2783 N.am      4 UNK        -0.5000 
     55 C          -2.1985  -15.1038  -47.0047 C.2       3 UNK         0.5000 
     56 O          -2.2602  -16.2439  -46.5511 O.2       3 UNK        -0.5000 
     57 CA         -1.7598  -14.8955  -48.4649 C.3       3 UNK         0.1400 
     58 CB         -2.9773  -14.7241  -49.3847 C.3       3 UNK        -0.1800 
     59 N          -0.8425  -13.7675  -48.6544 N.am      3 UNK        -0.5000 
     60 C           0.3564  -13.6570  -48.0687 C.2       2 UNK         0.5000 
     61 O           0.7809  -14.4413  -47.2173 O.2       2 UNK        -0.5000 
     62 CA          1.2580  -12.5011  -48.5329 C.3       2 UNK         0.1400 
     63 CB          1.5739  -11.5411  -47.3757 C.3       2 UNK        -0.1800 
     64 N           2.5001  -13.0682  -49.0541 N.am      2 UNK        -0.5000 
     65 C           2.5843  -13.6788  -50.2425 C.2       1 UNK         0.5000 
     66 O           1.6991  -13.6214  -51.1010 O.2       1 UNK        -0.5000 
     67 C           0.1049  -23.3349  -46.8828 C.2       11 UNK         0.5000 
     68 O           0.2507  -24.0867  -47.8441 O.2       11 UNK        -0.5000 
     69 N          -1.0800  -22.8151  -46.5239 N.am      12 UNK        -0.5000 
     70 CA         -2.3690  -23.0493  -47.1845 C.3       12 UNK         0.1400 
     71 CB         -3.4549  -22.2540  -46.4421 C.3       12 UNK        -0.1800 
     72 C          -2.7770  -24.5345  -47.2984 C.2       12 UNK         0.5000 
     73 O          -3.5667  -24.8810  -48.1772 O.2       12 UNK        -0.5000 
     74 N          -2.2366  -25.3851  -46.4147 N.am      13 UNK        -0.5000 
     75 CA         -2.4107  -26.8361  -46.4484 C.3       13 UNK         0.1400 
     76 CB         -2.1774  -27.3894  -45.0339 C.3       13 UNK        -0.1800 
     77 C          -1.4738  -27.5329  -47.4572 C.2       13 UNK         0.5000 
     78 O          -1.7597  -28.6646  -47.8506 O.2       13 UNK        -0.5000 
     79 N          -0.3716  -26.8735  -47.8403 N.am      14 UNK        -0.5000 
     80 CA          0.6569  -27.4103  -48.7303 C.3       14 UNK         0.1400 
     81 CB          2.0427  -26.9975  -48.2067 C.3       14 UNK        -0.1800 
     82 C           0.4697  -26.9380  -50.1812 C.2       14 UNK         0.5000 
     83 O           0.7012  -27.7243  -51.1009 O.2       14 UNK        -0.5000 
     84 N           0.0575  -25.6792  -50.3710 N.am      15 UNK        -0.5000 
     85 CA         -0.1611  -25.0580  -51.6752 C.3       15 UNK         0.1400 
     86 CB          1.1785  -24.5489  -52.2405 C.3       15 UNK        -0.1800 
     87 C          -1.1698  -23.9099  -51.5421 C.2       15 UNK         0.5000 
     88 O          -1.4242  -23.4426  -50.4325 O.2       15 UNK        -0.5000 
     89 N          -1.7063  -23.4608  -52.6800 N.am      16 UNK        -0.5000 
     90 CA         -2.5781  -22.2954  -52.7872 C.3       16 UNK         0.1400 
     91 CB         -4.0013  -22.7493  -53.1470 C.3       16 UNK        -0.1800 
     92 C          -2.0140  -21.3545  -53.8611 C.2       16 UNK         0.5000 
     93 O          -1.4062  -21.8228  -54.8281 O.2       16 UNK        -0.5000 
     94 N          -2.2361  -20.0523  -53.6718 N.am      17 UNK        -0.5000 
     95 CA         -1.7871  -18.9762  -54.5554 C.3       17 UNK         0.1400 
     96 CB         -0.4842  -18.3806  -53.9938 C.3       17 UNK        -0.1800 
     97 C          -2.8532  -17.8786  -54.7376 C.2       17 UNK         0.5000 
     98 O          -2.7407  -17.0907  -55.6779 O.2       17 UNK        -0.5000 
     99 N          -3.8558  -17.8310  -53.8527 N.am      18 UNK        -0.5000 
    100 CA        -4.9427  -16.8565  -53.8379 C.3       18 UNK         0.1400 
    101 CB        -4.7091  -15.9025  -52.6514 C.3       18 UNK        -0.1800 
    102 C         -6.2960  -17.5777  -53.7091 C.2       18 UNK         0.5000 
    103 O         -6.3419  -18.8055  -53.5855 O.2       18 UNK        -0.5000 
    104 N         -7.3819  -16.7976  -53.7212 N.am      19 UNK        -0.5000 
    105 CA        -8.7227  -17.2529  -53.3553 C.3       19 UNK         0.1400 
    106 CB        -9.7573  -16.3365  -54.0277 C.3       19 UNK        -0.1800 
    107 C         -8.8949  -17.2290  -51.8241 C.2       19 UNK         0.5000 
    108 O         -8.2495  -16.4213  -51.1515 O.2       19 UNK        -0.5000 
    109 N         -9.7908  -18.0857  -51.3139 N.am      20 UNK        -0.5000 
    110 CA       -10.1172  -18.2751  -49.8953 C.3       20 UNK         0.1400 
    111 CB       -10.8035  -17.0185  -49.3108 C.3       20 UNK        -0.1800 
    112 C         -8.8939  -18.7715  -49.0940 C.2       20 UNK         0.5000 
    113 O         -8.3332  -19.8101  -49.4528 O.2       20 UNK        -0.5000 
    114 N         -8.5043  -18.0518  -48.0317 N.am      21 UNK        -0.5000 
    115 CA        -7.3332  -18.3355  -47.1998 C.3       21 UNK         0.1400 
    116 CB        -7.2877  -17.3393  -46.0296 C.3       21 UNK        -0.1800 
    117 C         -6.0349  -18.2843  -48.0266 C.2       21 UNK         0.5000 
    118 O         -5.6697  -17.2158  -48.5185 O.2       21 UNK        -0.5000 
    119 N         -5.3936  -19.4490  -48.1869 N.am      22 UNK        -0.5000 
    120 CA        -4.2517  -19.6748  -49.0898 C.3       22 UNK         0.1400 
    121 C         -4.6215  -19.6031  -50.6023 C.2       22 UNK         0.5000 
    122 N         -5.8788  -19.7706  -50.9868 N.am      22 UNK        -0.7600 
    123 O         -3.7614  -19.3989  -51.4535 O.2       22 UNK        -0.5000 
    124 C124       -3.0092  -18.8094  -48.7232 C.3       23 UNK        -0.0398 
    125 S125       -1.4671  -19.7718  -48.6322 S.3       23 UNK        -0.2404 
    126 C126       -0.7219  -19.4735  -50.2686 C.3       23 UNK        -0.0205 
    127 H127        6.0142  -13.7019  -54.2991 H         1 UNK         0.0600 
    128 H128        4.3940  -13.0922  -54.6534 H         1 UNK         0.0600 
    129 H129        4.6497  -14.8190  -54.3872 H         1 UNK         0.0600 
    130 H130        3.9262  -15.4641  -52.3827 H         1 UNK         0.3000 
    131 H131        4.6658  -14.1457  -49.9319 H         1 UNK         0.0600 
    132 H132        2.5808  -16.3631  -50.2742 H         1 UNK         0.0800 
    133 H133        3.4022  -15.9124  -48.8116 H         1 UNK         0.0800 
    134 H134        4.8463  -18.8508  -51.9557 H         1 UNK         0.0800 
    135 H135        3.5936  -17.6724  -52.2255 H         1 UNK         0.0800 
    136 H136        1.3457  -18.0025  -51.2558 H         1 UNK         0.1150 
    137 H137        0.4839  -21.7732  -49.4202 H         1 UNK         0.1150 
    138 H138        4.5384  -20.7015  -50.2982 H         1 UNK         0.1150 
    139 H139        2.2377  -23.4402  -49.2435 H         1 UNK         0.0800 
    140 H140        3.8373  -23.0966  -49.8224 H         1 UNK         0.0800 
    141 H141        1.6369  -21.1892  -47.1485 H         1 UNK         0.0800 
    142 H142        2.6324  -21.3121  -45.7470 H         1 UNK         0.0800 
    143 H143        1.9010  -23.9452  -45.9096 H         1 UNK         0.0600 
    144 H144        0.8776  -21.7425  -44.3409 H         1 UNK         0.3000 
    145 H145       -1.2077  -22.8716  -42.5457 H         1 UNK         0.0600 
    146 H146       -0.4289  -23.7242  -40.3179 H         1 UNK         0.0600 
    147 H147       -0.6658  -25.0085  -41.4908 H         1 UNK         0.0600 
    148 H148        0.9614  -24.4750  -41.1020 H         1 UNK         0.0600 
    149 H149       -0.1792  -21.0207  -42.0116 H         1 UNK         0.3000 
    150 H150        2.5654  -20.1202  -40.3194 H         1 UNK         0.0600 
    151 H151        4.0709  -20.2355  -42.2973 H         1 UNK         0.0600 
    152 H152        3.5007  -18.5925  -42.0567 H         1 UNK         0.0600 
    153 H153        2.8015  -19.5907  -43.3298 H         1 UNK         0.0600 
    154 H154        0.9297  -18.5583  -42.1161 H         1 UNK         0.3000 
    155 H155       -1.9765  -18.5125  -40.0676 H         1 UNK         0.0600 
    156 H156       -0.5508  -16.6904  -39.1338 H         1 UNK         0.0600 
    157 H157       -1.6886  -16.0658  -40.3178 H         1 UNK         0.0600 
    158 H158        0.0064  -16.2789  -40.7503 H         1 UNK         0.0600 
    159 H159       -1.4436  -17.2562  -42.5513 H         1 UNK         0.3000 
    160 H160       -2.3456  -20.0468  -44.6513 H         1 UNK         0.0600 
    161 H161       -3.5960  -17.3028  -44.1146 H         1 UNK         0.0600 
    162 H162       -4.4296  -18.8434  -43.9427 H         1 UNK         0.0600 
    163 H163       -3.8735  -18.3226  -45.5229 H         1 UNK         0.0600 
    164 H164       -1.4332  -17.4409  -45.3268 H         1 UNK         0.3000 
    165 H165        2.0843  -18.2107  -45.3200 H         1 UNK         0.0600 
    166 H166        1.8848  -17.2553  -47.5846 H         1 UNK         0.0600 
    167 H167        1.2276  -18.8800  -47.5612 H         1 UNK         0.0600 
    168 H168        0.1412  -17.4928  -47.5700 H         1 UNK         0.0600 
    169 H169        0.7131  -15.7831  -45.8727 H         1 UNK         0.3000 
    170 H170        0.6282  -14.5325  -42.5136 H         1 UNK         0.0600 
    171 H171        2.8709  -13.9982  -43.3828 H         1 UNK         0.0600 
    172 H172        2.2475  -13.8165  -45.0145 H         1 UNK         0.0600 
    173 H173        1.7738  -12.6764  -43.7536 H         1 UNK         0.0600 
    174 H174       -0.2708  -13.5811  -45.0941 H         1 UNK         0.3000 
    175 H175       -3.6456  -14.6852  -44.7314 H         1 UNK         0.0600 
    176 H176       -3.4895  -12.5987  -43.3635 H         1 UNK         0.0600 
    177 H177       -2.3982  -11.8892  -44.5476 H         1 UNK         0.0600 
    178 H178       -4.0662  -12.2581  -44.9870 H         1 UNK         0.0600 
    179 H179       -2.3508  -13.1007  -46.7226 H         1 UNK         0.3000 
    180 H180       -1.2316  -15.7998  -48.7746 H         1 UNK         0.0600 
    181 H181       -3.5284  -13.8103  -49.1599 H         1 UNK         0.0600 
    182 H182       -3.6705  -15.5588  -49.2758 H         1 UNK         0.0600 
    183 H183       -2.6785  -14.6889  -50.4323 H         1 UNK         0.0600 
    184 H184       -1.1073  -13.0888  -49.3537 H         1 UNK         0.3000 
    185 H185        0.7548  -11.9351  -49.3200 H         1 UNK         0.0600 
    186 H186        0.6586  -11.1309  -46.9472 H         1 UNK         0.0600 
    187 H187        2.1202  -12.0359  -46.5731 H         1 UNK         0.0600 
    188 H188        2.1772  -10.7003  -47.7186 H         1 UNK         0.0600 
    189 H189        3.2469  -13.1865  -48.3849 H         1 UNK         0.3000 
    190 H190       -1.0935  -22.2011  -45.7236 H         1 UNK         0.3000 
    191 H191       -2.2958  -22.6534  -48.1968 H         1 UNK         0.0600 
    192 H192       -3.5189  -22.5418  -45.3921 H         1 UNK         0.0600 
    193 H193       -4.4362  -22.4195  -46.8886 H         1 UNK         0.0600 
    194 H194       -3.2592  -21.1833  -46.4889 H         1 UNK         0.0600 
    195 H195       -1.5958  -25.0240  -45.7213 H         1 UNK         0.3000 
    196 H196       -3.4386  -27.0659  -46.7369 H         1 UNK         0.0600 
    197 H197       -2.3344  -28.4684  -45.0050 H         1 UNK         0.0600 
    198 H198       -2.8653  -26.9422  -44.3162 H         1 UNK         0.0600 
    199 H199       -1.1606  -27.1963  -44.6892 H         1 UNK         0.0600 
    200 H200       -0.2421  -25.9109  -47.5464 H         1 UNK         0.3000 
    201 H201        0.6163  -28.5017  -48.7280 H         1 UNK         0.0600 
    202 H202        2.2020  -27.3559  -47.1897 H         1 UNK         0.0600 
    203 H203        2.1723  -25.9148  -48.2035 H         1 UNK         0.0600 
    204 H204        2.8342  -27.4185  -48.8278 H         1 UNK         0.0600 
    205 H205       -0.1308  -25.0761  -49.5736 H         1 UNK         0.3000 
    206 H206       -0.5870  -25.7969  -52.3574 H         1 UNK         0.0600 
    207 H207        1.9042  -25.3565  -52.3369 H         1 UNK         0.0600 
    208 H208        1.0480  -24.1135  -53.2317 H         1 UNK         0.0600 
    209 H209        1.6150  -23.7805  -51.6025 H         1 UNK         0.0600 
    210 H210       -1.3931  -23.8382  -53.5644 H         1 UNK         0.3000 
    211 H211       -2.6150  -21.7594  -51.8380 H         1 UNK         0.0600 
    212 H212       -4.6738  -21.8937  -53.2257 H         1 UNK         0.0600 
    213 H213       -4.4067  -23.4107  -52.3812 H         1 UNK         0.0600 
    214 H214       -4.0276  -23.2802  -54.0993 H         1 UNK         0.0600 
    215 H215       -2.7577  -19.7712  -52.8425 H         1 UNK         0.3000 
    216 H216       -1.5847  -19.3782  -55.5503 H         1 UNK         0.0600 
    217 H217        0.2898  -19.1421  -53.8953 H         1 UNK         0.0600 
    218 H218       -0.6410  -17.9331  -53.0120 H         1 UNK         0.0600 
    219 H219       -0.0937  -17.6026  -54.6509 H         1 UNK         0.0600 
    220 H220       -3.9132  -18.5251  -53.1139 H         1 UNK         0.3000 
    221 H221       -4.9610  -16.2823  -54.7662 H         1 UNK         0.0600 
    222 H222       -4.7453  -16.4333  -51.6983 H         1 UNK         0.0600 
    223 H223       -3.7367  -15.4155  -52.7246 H         1 UNK         0.0600 
    224 H224       -5.4614  -15.1141  -52.6154 H         1 UNK         0.0600 
    225 H225       -7.2598  -15.7975  -53.7830 H         1 UNK         0.3000 
    226 H226       -8.8743  -18.2729  -53.7154 H         1 UNK         0.0600 
    227 H227       -9.6500  -16.3503  -55.1125 H         1 UNK         0.0600 
    228 H228      -10.7736  -16.6591  -53.7983 H         1 UNK         0.0600 
    229 H229       -9.6582  -15.3028  -53.6934 H         1 UNK         0.0600 
    230 H230      -10.2563  -18.7210  -51.9470 H         1 UNK         0.3000 
    231 H231      -10.8451  -19.0868  -49.8574 H         1 UNK         0.0600 
    232 H232      -11.6785  -16.7455  -49.9009 H         1 UNK         0.0600 
    233 H233      -10.1401  -16.1534  -49.2892 H         1 UNK         0.0600 
    234 H234      -11.1509  -17.1976  -48.2926 H         1 UNK         0.0600 
    235 H235       -8.9951  -17.1927  -47.8334 H         1 UNK         0.3000 
    236 H236       -7.4525  -19.3382  -46.7842 H         1 UNK         0.0600 
    237 H237       -6.4271  -17.5310  -45.3878 H         1 UNK         0.0600 
    238 H238       -7.2117  -16.3088  -46.3793 H         1 UNK         0.0600 
    239 H239       -8.1799  -17.4182  -45.4083 H         1 UNK         0.0600 
    240 H240       -5.7925  -20.2798  -47.7749 H         1 UNK         0.3000 
    241 H241       -3.9932  -20.7223  -48.9356 H         1 UNK         0.0600 
    242 H242       -6.6329  -19.9002  -50.3195 H         1 UNK         0.3800 
    243 H243       -6.0989  -19.6566  -51.9718 H         1 UNK         0.3800 
    244 H244       -2.8914  -17.9524  -49.3877 H         1 UNK         0.0800 
    245 H245       -3.1344  -18.3781  -47.7318 H         1 UNK         0.0800 
    246 H246       -1.2435  -20.0702  -51.0130 H         1 UNK         0.0800 
    247 H247       -0.8640  -18.4269  -50.5407 H         1 UNK         0.0800 
@<TRIPOS>BOND
     1    1    2 1    
     2    1  127 1    
     3    1  128 1    
     4    1  129 1    
     5    2    3 2    
     6    2    4 am   BACKBONE|DICT|INTERRES
     7    4    5 1    
     8    4  130 1    
     9    5    6 1    
    10    5   65 1    
    11    5  131 1    
    12    6    7 1    
    13    6  132 1    
    14    6  133 1    
    15    7    8 1    
    16    8    9 1    
    17    8  134 1    
    18    8  135 1    
    19    9   10 ar   
    20    9   14 ar   
    21   10   11 ar   
    22   10  136 1    
    23   11   12 ar   
    24   11  126 1    
    25   12   13 ar   
    26   12  137 1    
    27   13   14 ar   
    28   13   15 1    
    29   14  138 1    
    30   15   16 1    
    31   15  139 1    
    32   15  140 1    
    33   16   17 1    
    34   17   18 1    
    35   17  141 1    
    36   17  142 1    
    37   18   19 1    
    38   18   67 1    
    39   18  143 1    
    40   19   20 am   BACKBONE|DICT|INTERRES
    41   19  144 1    
    42   20   21 2    
    43   20   22 1    
    44   22   23 1    
    45   22   24 1    
    46   22  145 1    
    47   23  146 1    
    48   23  147 1    
    49   23  148 1    
    50   24   25 am   BACKBONE|DICT|INTERRES
    51   24  149 1    
    52   25   26 2    
    53   25   27 1    
    54   27   28 1    
    55   27   29 1    
    56   27  150 1    
    57   28  151 1    
    58   28  152 1    
    59   28  153 1    
    60   29   30 am   BACKBONE|DICT|INTERRES
    61   29  154 1    
    62   30   31 2    
    63   30   32 1    
    64   32   33 1    
    65   32   34 1    
    66   32  155 1    
    67   33  156 1    
    68   33  157 1    
    69   33  158 1    
    70   34   35 am   BACKBONE|DICT|INTERRES
    71   34  159 1    
    72   35   36 2    
    73   35   37 1    
    74   37   38 1    
    75   37   39 1    
    76   37  160 1    
    77   38  161 1    
    78   38  162 1    
    79   38  163 1    
    80   39   40 am   BACKBONE|DICT|INTERRES
    81   39  164 1    
    82   40   41 2    
    83   40   42 1    
    84   42   43 1    
    85   42   44 1    
    86   42  165 1    
    87   43  166 1    
    88   43  167 1    
    89   43  168 1    
    90   44   45 am   BACKBONE|DICT|INTERRES
    91   44  169 1    
    92   45   46 2    
    93   45   47 1    
    94   47   48 1    
    95   47   49 1    
    96   47  170 1    
    97   48  171 1    
    98   48  172 1    
    99   48  173 1    
   100   49   50 am   BACKBONE|DICT|INTERRES
   101   49  174 1    
   102   50   51 2    
   103   50   52 1    
   104   52   53 1    
   105   52   54 1    
   106   52  175 1    
   107   53  176 1    
   108   53  177 1    
   109   53  178 1    
   110   54   55 am   BACKBONE|DICT|INTERRES
   111   54  179 1    
   112   55   56 2    
   113   55   57 1    
   114   57   58 1    
   115   57   59 1    
   116   57  180 1    
   117   58  181 1    
   118   58  182 1    
   119   58  183 1    
   120   59   60 am   BACKBONE|DICT|INTERRES
   121   59  184 1    
   122   60   61 2    
   123   60   62 1    
   124   62   63 1    
   125   62   64 1    
   126   62  185 1    
   127   63  186 1    
   128   63  187 1    
   129   63  188 1    
   130   64   65 am   BACKBONE|DICT|INTERRES
   131   64  189 1    
   132   65   66 2    
   133   67   68 2    
   134   67   69 am   BACKBONE|DICT|INTERRES
   135   69   70 1    
   136   69  190 1    
   137   70   71 1    
   138   70   72 1    
   139   70  191 1    
   140   71  192 1    
   141   71  193 1    
   142   71  194 1    
   143   72   73 2    
   144   72   74 am   BACKBONE|DICT|INTERRES
   145   74   75 1    
   146   74  195 1    
   147   75   76 1    
   148   75   77 1    
   149   75  196 1    
   150   76  197 1    
   151   76  198 1    
   152   76  199 1    
   153   77   78 2    
   154   77   79 am   BACKBONE|DICT|INTERRES
   155   79   80 1    
   156   79  200 1    
   157   80   81 1    
   158   80   82 1    
   159   80  201 1    
   160   81  202 1    
   161   81  203 1    
   162   81  204 1    
   163   82   83 2    
   164   82   84 am   BACKBONE|DICT|INTERRES
   165   84   85 1    
   166   84  205 1    
   167   85   86 1    
   168   85   87 1    
   169   85  206 1    
   170   86  207 1    
   171   86  208 1    
   172   86  209 1    
   173   87   88 2    
   174   87   89 am   BACKBONE|DICT|INTERRES
   175   89   90 1    
   176   89  210 1    
   177   90   91 1    
   178   90   92 1    
   179   90  211 1    
   180   91  212 1    
   181   91  213 1    
   182   91  214 1    
   183   92   93 2    
   184   92   94 am   BACKBONE|DICT|INTERRES
   185   94   95 1    
   186   94  215 1    
   187   95   96 1    
   188   95   97 1    
   189   95  216 1    
   190   96  217 1    
   191   96  218 1    
   192   96  219 1    
   193   97   98 2    
   194   97   99 am   BACKBONE|DICT|INTERRES
   195   99  100 1    
   196   99  220 1    
   197  100  101 1    
   198  100  102 1    
   199  100  221 1    
   200  101  222 1    
   201  101  223 1    
   202  101  224 1    
   203  102  103 2    
   204  102  104 am   BACKBONE|DICT|INTERRES
   205  104  105 1    
   206  104  225 1    
   207  105  106 1    
   208  105  107 1    
   209  105  226 1    
   210  106  227 1    
   211  106  228 1    
   212  106  229 1    
   213  107  108 2    
   214  107  109 am   BACKBONE|DICT|INTERRES
   215  109  110 1    
   216  109  230 1    
   217  110  111 1    
   218  110  112 1    
   219  110  231 1    
   220  111  232 1    
   221  111  233 1    
   222  111  234 1    
   223  112  113 2    
   224  112  114 am   BACKBONE|DICT|INTERRES
   225  114  115 1    
   226  114  235 1    
   227  115  116 1    
   228  115  117 1    
   229  115  236 1    
   230  116  237 1    
   231  116  238 1    
   232  116  239 1    
   233  117  118 2    
   234  117  119 am   BACKBONE|DICT|INTERRES
   235  119  120 1    
   236  119  240 1    
   237  120  121 1    
   238  120  124 1    
   239  120  241 1    
   240  121  122 am   BACKBONE|DICT|INTERRES
   241  121  123 2    
   242  122  242 1    
   243  122  243 1    
   244  124  125 1    
   245  124  244 1    
   246  124  245 1    
   247  125  126 1    
   248  126  246 1    
   249  126  247 1    
@<TRIPOS>SUBSTRUCTURE
     1 UNK         1 GROUP             0       ****    0 ROOT    
