@<TRIPOS>MOLECULE
3R540
247   249    1
SMALL
USER_CHARGES


@<TRIPOS>ATOM
      1 CA          8.5452  -13.7286  -47.9344 C.3       0 UNK        -0.1800 
      2 C           7.1790  -14.3013  -48.2860 C.2       0 UNK         0.5000 
      3 O           7.0830  -15.1607  -49.1620 O.2       0 UNK        -0.5000 
      4 N           6.1277  -13.8310  -47.6066 N.am      1 UNK        -0.5000 
      5 CA          4.7460  -14.2938  -47.7654 C.3       1 UNK         0.1400 
      6 C6          4.0898  -13.8620  -49.1108 C.3       23 UNK        -0.0398 
      7 S7          3.1094  -15.1906  -49.8788 S.3       23 UNK        -0.2404 
      8 C8          1.4579  -14.9539  -49.1332 C.3       23 UNK        -0.0205 
      9 C9          0.4211  -15.9249  -49.6907 C.ar      23 UNK        -0.0193 
     10 C10        -0.8603  -15.4720  -50.0176 C.ar      23 UNK        -0.1150 
     11 C11        -1.8119  -16.3463  -50.5517 C.ar      23 UNK        -0.0193 
     12 C12        -1.4804  -17.6888  -50.7538 C.ar      23 UNK        -0.1150 
     13 C13        -0.2077  -18.1580  -50.4218 C.ar      23 UNK        -0.0193 
     14 C14         0.7306  -17.2756  -49.8814 C.ar      23 UNK        -0.1150 
     15 C15         0.1726  -19.6078  -50.6746 C.3       23 UNK        -0.0205 
     16 S16         0.6196  -20.4629  -49.1364 S.3       23 UNK        -0.2404 
     17 C17        -1.0091  -20.6348  -48.3368 C.3       23 UNK        -0.0398 
     18 CA         -1.1974  -22.0533  -47.7614 C.3       11 UNK         0.1400 
     19 N          -0.1907  -22.3615  -46.7504 N.am      11 UNK        -0.5000 
     20 C           0.1285  -23.5892  -46.3305 C.2       10 UNK         0.5000 
     21 O          -0.3789  -24.6197  -46.7728 O.2       10 UNK        -0.5000 
     22 CA          1.1910  -23.6745  -45.2213 C.3       10 UNK         0.1400 
     23 CB          2.5846  -23.8554  -45.8400 C.3       10 UNK        -0.1800 
     24 N           1.2014  -22.5006  -44.3444 N.am      10 UNK        -0.5000 
     25 C           0.1812  -22.0988  -43.5761 C.2       9 UNK         0.5000 
     26 O          -0.9010  -22.6832  -43.5209 O.2       9 UNK        -0.5000 
     27 CA          0.3787  -20.8049  -42.7733 C.3       9 UNK         0.1400 
     28 CB          1.2938  -21.0238  -41.5547 C.3       9 UNK        -0.1800 
     29 N           0.8156  -19.6632  -43.5827 N.am      9 UNK        -0.5000 
     30 C           1.9891  -19.4238  -44.1865 C.2       8 UNK         0.5000 
     31 O           2.9206  -20.2283  -44.2284 O.2       8 UNK        -0.5000 
     32 CA          2.1468  -18.0341  -44.8421 C.3       8 UNK         0.1400 
     33 CB          1.7836  -18.0952  -46.3335 C.3       8 UNK        -0.1800 
     34 N           1.3288  -17.0092  -44.1859 N.am      8 UNK        -0.5000 
     35 C           1.5195  -16.5693  -42.9318 C.2       7 UNK         0.5000 
     36 O           2.4961  -16.8653  -42.2425 O.2       7 UNK        -0.5000 
     37 CA          0.3937  -15.7182  -42.3173 C.3       7 UNK         0.1400 
     38 CB          0.5623  -14.2311  -42.6497 C.3       7 UNK        -0.1800 
     39 N          -0.9214  -16.1760  -42.7658 N.am      7 UNK        -0.5000 
     40 C          -1.5640  -17.2334  -42.2501 C.2       6 UNK         0.5000 
     41 O          -1.1422  -17.8932  -41.3010 O.2       6 UNK        -0.5000 
     42 CA         -2.8892  -17.6426  -42.9167 C.3       6 UNK         0.1400 
     43 CB         -4.0795  -16.9900  -42.1988 C.3       6 UNK        -0.1800 
     44 N          -2.9411  -17.2971  -44.3373 N.am      6 UNK        -0.5000 
     45 C          -2.2722  -17.9337  -45.3090 C.2       5 UNK         0.5000 
     46 O          -1.5909  -18.9422  -45.1233 O.2       5 UNK        -0.5000 
     47 CA         -2.3690  -17.3243  -46.7219 C.3       5 UNK         0.1400 
     48 CB         -3.5243  -17.9762  -47.4964 C.3       5 UNK        -0.1800 
     49 N          -2.5548  -15.8697  -46.7071 N.am      5 UNK        -0.5000 
     50 C          -1.6572  -14.9955  -46.2324 C.2       4 UNK         0.5000 
     51 O          -0.5617  -15.3238  -45.7723 O.2       4 UNK        -0.5000 
     52 CA         -2.1150  -13.5327  -46.1590 C.3       4 UNK         0.1400 
     53 CB         -2.7355  -13.2476  -44.7822 C.3       4 UNK        -0.1800 
     54 N          -0.9992  -12.6137  -46.3648 N.am      4 UNK        -0.5000 
     55 C          -0.7127  -12.0155  -47.5237 C.2       3 UNK         0.5000 
     56 O          -1.3347  -12.2236  -48.5654 O.2       3 UNK        -0.5000 
     57 CA          0.4362  -10.9884  -47.5413 C.3       3 UNK         0.1400 
     58 CB         -0.0586   -9.6089  -47.0661 C.3       3 UNK        -0.1800 
     59 N           1.6670  -11.3769  -46.8404 N.am      3 UNK        -0.5000 
     60 C           1.8885  -11.5735  -45.5317 C.2       2 UNK         0.5000 
     61 O           1.0084  -11.5355  -44.6712 O.2       2 UNK        -0.5000 
     62 CA          3.3634  -11.8205  -45.1379 C.3       2 UNK         0.1400 
     63 CB          3.5462  -12.4603  -43.7463 C.3       2 UNK        -0.1800 
     64 N           4.1155  -12.5490  -46.1691 N.am      2 UNK        -0.5000 
     65 C           3.9087  -13.8163  -46.5685 C.2       1 UNK         0.5000 
     66 O           3.1063  -14.5854  -46.0438 O.2       1 UNK        -0.5000 
     67 C          -2.6153  -22.2611  -47.2010 C.2       11 UNK         0.5000 
     68 O          -3.4130  -22.9602  -47.8220 O.2       11 UNK        -0.5000 
     69 N          -2.8920  -21.7161  -46.0064 N.am      12 UNK        -0.5000 
     70 CA         -4.1582  -21.9191  -45.2934 C.3       12 UNK         0.1400 
     71 CB         -4.2317  -20.9731  -44.0885 C.3       12 UNK        -0.1800 
     72 C          -4.3796  -23.3799  -44.8551 C.2       12 UNK         0.5000 
     73 O          -5.5146  -23.8564  -44.8810 O.2       12 UNK        -0.5000 
     74 N          -3.2895  -24.0731  -44.4988 N.am      13 UNK        -0.5000 
     75 CA         -3.2734  -25.5025  -44.1799 C.3       13 UNK         0.1400 
     76 CB         -1.9620  -25.8295  -43.4485 C.3       13 UNK        -0.1800 
     77 C          -3.4348  -26.4169  -45.4133 C.2       13 UNK         0.5000 
     78 O          -3.6751  -27.6121  -45.2392 O.2       13 UNK        -0.5000 
     79 N          -3.2779  -25.8547  -46.6224 N.am      14 UNK        -0.5000 
     80 CA         -3.2955  -26.5221  -47.9287 C.3       14 UNK         0.1400 
     81 CB         -4.6930  -27.0955  -48.2408 C.3       14 UNK        -0.1800 
     82 C          -2.1568  -27.5505  -48.1078 C.2       14 UNK         0.5000 
     83 O          -2.3112  -28.5268  -48.8440 O.2       14 UNK        -0.5000 
     84 N          -1.0212  -27.2963  -47.4447 N.am      15 UNK        -0.5000 
     85 CA          0.2498  -27.9831  -47.6696 C.3       15 UNK         0.1400 
     86 CB          1.1153  -27.8710  -46.4050 C.3       15 UNK        -0.1800 
     87 C           0.9729  -27.3827  -48.8897 C.2       15 UNK         0.5000 
     88 O           1.5910  -28.1189  -49.6597 O.2       15 UNK        -0.5000 
     89 N           0.8406  -26.0602  -49.0540 N.am      16 UNK        -0.5000 
     90 CA          1.1787  -25.3106  -50.2607 C.3       16 UNK         0.1400 
     91 CB          1.8593  -23.9950  -49.8400 C.3       16 UNK        -0.1800 
     92 C          -0.1044  -25.0939  -51.0939 C.2       16 UNK         0.5000 
     93 O          -1.0409  -25.8910  -50.9919 O.2       16 UNK        -0.5000 
     94 N          -0.1438  -24.0289  -51.9080 N.am      17 UNK        -0.5000 
     95 CA         -1.3300  -23.6095  -52.6604 C.3       17 UNK         0.1400 
     96 CB         -0.9611  -22.4496  -53.5980 C.3       17 UNK        -0.1800 
     97 C          -2.4638  -23.2053  -51.7005 C.2       17 UNK         0.5000 
     98 O          -2.2449  -22.3492  -50.8435 O.2       17 UNK        -0.5000 
     99 N          -3.6311  -23.8447  -51.8423 N.am      18 UNK        -0.5000 
    100 CA        -4.7523  -23.8420  -50.8952 C.3       18 UNK         0.1400 
    101 CB        -5.6638  -25.0372  -51.2292 C.3       18 UNK        -0.1800 
    102 C         -5.5367  -22.5120  -50.7950 C.2       18 UNK         0.5000 
    103 O         -6.7671  -22.5225  -50.8596 O.2       18 UNK        -0.5000 
    104 N         -4.8191  -21.3884  -50.6605 N.am      19 UNK        -0.5000 
    105 CA        -5.2593  -19.9963  -50.4709 C.3       19 UNK         0.1400 
    106 CB        -6.0511  -19.8499  -49.1588 C.3       19 UNK        -0.1800 
    107 C         -6.0328  -19.3705  -51.6523 C.2       19 UNK         0.5000 
    108 O         -5.9013  -18.1689  -51.8903 O.2       19 UNK        -0.5000 
    109 N         -6.7907  -20.1879  -52.3939 N.am      20 UNK        -0.5000 
    110 CA        -7.6262  -19.8310  -53.5443 C.3       20 UNK         0.1400 
    111 CB        -8.3694  -21.0889  -54.0187 C.3       20 UNK        -0.1800 
    112 C         -6.8674  -19.1810  -54.7179 C.2       20 UNK         0.5000 
    113 O         -7.4896  -18.4992  -55.5333 O.2       20 UNK        -0.5000 
    114 N         -5.5390  -19.3574  -54.7595 N.am      21 UNK        -0.5000 
    115 CA        -4.6116  -18.7049  -55.6869 C.3       21 UNK         0.1400 
    116 CB        -3.1890  -19.2085  -55.3956 C.3       21 UNK        -0.1800 
    117 C         -4.6575  -17.1622  -55.6370 C.2       21 UNK         0.5000 
    118 O         -4.3748  -16.5208  -56.6499 O.2       21 UNK        -0.5000 
    119 N         -5.0374  -16.6010  -54.4810 N.am      22 UNK        -0.5000 
    120 CA        -5.2848  -15.1628  -54.2885 C.3       22 UNK         0.1400 
    121 C         -6.7266  -14.7111  -54.6715 C.2       22 UNK         0.5000 
    122 N         -7.6158  -15.5853  -55.1291 N.am      22 UNK        -0.7600 
    123 O         -7.0466  -13.5299  -54.5674 O.2       22 UNK        -0.5000 
    124 C124       -4.9080  -14.7018  -52.8573 C.3       23 UNK        -0.0398 
    125 S125       -3.1331  -14.9453  -52.5127 S.3       23 UNK        -0.2404 
    126 C126       -3.1911  -15.8355  -50.9300 C.3       23 UNK        -0.0205 
    127 H127        9.2085  -14.5232  -47.5929 H         1 UNK         0.0600 
    128 H128        8.4808  -12.9775  -47.1467 H         1 UNK         0.0600 
    129 H129        8.9935  -13.2626  -48.8119 H         1 UNK         0.0600 
    130 H130        6.2825  -13.1761  -46.8528 H         1 UNK         0.3000 
    131 H131        4.7778  -15.3846  -47.7098 H         1 UNK         0.0600 
    132 H132        4.8578  -13.6020  -49.8400 H         1 UNK         0.0800 
    133 H133        3.4811  -12.9610  -49.0180 H         1 UNK         0.0800 
    134 H134        1.5109  -15.0912  -48.0536 H         1 UNK         0.0800 
    135 H135        1.1408  -13.9243  -49.3041 H         1 UNK         0.0800 
    136 H136       -1.1177  -14.4326  -49.8758 H         1 UNK         0.1150 
    137 H137       -2.2077  -18.3633  -51.1826 H         1 UNK         0.1150 
    138 H138        1.7130  -17.6447  -49.6230 H         1 UNK         0.1150 
    139 H139       -0.6360  -20.1471  -51.1687 H         1 UNK         0.0800 
    140 H140        1.0246  -19.6364  -51.3549 H         1 UNK         0.0800 
    141 H141       -1.0768  -19.8854  -47.5505 H         1 UNK         0.0800 
    142 H142       -1.7970  -20.4048  -49.0557 H         1 UNK         0.0800 
    143 H143       -1.0729  -22.7670  -48.5781 H         1 UNK         0.0600 
    144 H144        0.2933  -21.5765  -46.3416 H         1 UNK         0.3000 
    145 H145        0.9668  -24.5507  -44.6109 H         1 UNK         0.0600 
    146 H146        3.3412  -24.0053  -45.0696 H         1 UNK         0.0600 
    147 H147        2.6141  -24.7251  -46.4978 H         1 UNK         0.0600 
    148 H148        2.8765  -22.9872  -46.4326 H         1 UNK         0.0600 
    149 H149        2.0366  -21.9208  -44.3493 H         1 UNK         0.3000 
    150 H150       -0.6048  -20.5263  -42.3913 H         1 UNK         0.0600 
    151 H151        0.9001  -21.8110  -40.9108 H         1 UNK         0.0600 
    152 H152        1.3663  -20.1173  -40.9534 H         1 UNK         0.0600 
    153 H153        2.3034  -21.3153  -41.8449 H         1 UNK         0.0600 
    154 H154        0.0973  -18.9658  -43.7278 H         1 UNK         0.3000 
    155 H155        3.1944  -17.7390  -44.7556 H         1 UNK         0.0600 
    156 H156        1.9388  -17.1302  -46.8154 H         1 UNK         0.0600 
    157 H157        0.7433  -18.3807  -46.4859 H         1 UNK         0.0600 
    158 H158        2.4028  -18.8234  -46.8587 H         1 UNK         0.0600 
    159 H159        0.5591  -16.6237  -44.7232 H         1 UNK         0.3000 
    160 H160        0.4482  -15.8217  -41.2313 H         1 UNK         0.0600 
    161 H161        0.6369  -14.0618  -43.7241 H         1 UNK         0.0600 
    162 H162        1.4662  -13.8379  -42.1859 H         1 UNK         0.0600 
    163 H163       -0.2714  -13.6407  -42.2704 H         1 UNK         0.0600 
    164 H164       -1.3019  -15.7201  -43.5818 H         1 UNK         0.3000 
    165 H165       -2.9804  -18.7246  -42.8139 H         1 UNK         0.0600 
    166 H166       -4.0505  -15.9023  -42.2759 H         1 UNK         0.0600 
    167 H167       -5.0266  -17.3323  -42.6165 H         1 UNK         0.0600 
    168 H168       -4.0830  -17.2443  -41.1380 H         1 UNK         0.0600 
    169 H169       -3.5010  -16.4963  -44.5881 H         1 UNK         0.3000 
    170 H170       -1.4349  -17.5361  -47.2459 H         1 UNK         0.0600 
    171 H171       -3.4214  -19.0611  -47.5184 H         1 UNK         0.0600 
    172 H172       -4.4907  -17.7521  -47.0433 H         1 UNK         0.0600 
    173 H173       -3.5522  -17.6332  -48.5297 H         1 UNK         0.0600 
    174 H174       -3.4389  -15.5268  -47.0540 H         1 UNK         0.3000 
    175 H175       -2.8825  -13.3659  -46.9180 H         1 UNK         0.0600 
    176 H176       -3.1024  -12.2227  -44.7233 H         1 UNK         0.0600 
    177 H177       -3.5829  -13.9054  -44.5854 H         1 UNK         0.0600 
    178 H178       -2.0145  -13.3877  -43.9767 H         1 UNK         0.0600 
    179 H179       -0.4035  -12.4136  -45.5658 H         1 UNK         0.3000 
    180 H180        0.7276  -10.8797  -48.5874 H         1 UNK         0.0600 
    181 H181       -0.9131   -9.2771  -47.6573 H         1 UNK         0.0600 
    182 H182       -0.3735   -9.6261  -46.0223 H         1 UNK         0.0600 
    183 H183        0.7202   -8.8533  -47.1694 H         1 UNK         0.0600 
    184 H184        2.4745  -11.4533  -47.4401 H         1 UNK         0.3000 
    185 H185        3.8115  -10.8271  -45.0867 H         1 UNK         0.0600 
    186 H186        3.1617  -13.4782  -43.7115 H         1 UNK         0.0600 
    187 H187        4.5998  -12.4967  -43.4699 H         1 UNK         0.0600 
    188 H188        3.0308  -11.8858  -42.9758 H         1 UNK         0.0600 
    189 H189        4.7840  -11.9897  -46.6802 H         1 UNK         0.3000 
    190 H190       -2.1920  -21.1557  -45.5377 H         1 UNK         0.3000 
    191 H191       -4.9718  -21.6592  -45.9743 H         1 UNK         0.0600 
    192 H192       -5.1232  -21.1644  -43.4898 H         1 UNK         0.0600 
    193 H193       -4.2850  -19.9362  -44.4164 H         1 UNK         0.0600 
    194 H194       -3.3649  -21.0846  -43.4358 H         1 UNK         0.0600 
    195 H195       -2.4045  -23.5806  -44.4183 H         1 UNK         0.3000 
    196 H196       -4.1041  -25.7136  -43.5035 H         1 UNK         0.0600 
    197 H197       -1.9374  -26.8737  -43.1344 H         1 UNK         0.0600 
    198 H198       -1.8446  -25.2185  -42.5534 H         1 UNK         0.0600 
    199 H199       -1.0957  -25.6599  -44.0876 H         1 UNK         0.0600 
    200 H200       -3.0881  -24.8611  -46.6559 H         1 UNK         0.3000 
    201 H201       -3.0943  -25.7401  -48.6622 H         1 UNK         0.0600 
    202 H202       -5.4626  -26.3301  -48.1402 H         1 UNK         0.0600 
    203 H203       -4.9508  -27.9220  -47.5785 H         1 UNK         0.0600 
    204 H204       -4.7424  -27.4713  -49.2631 H         1 UNK         0.0600 
    205 H205       -0.9743  -26.4346  -46.9096 H         1 UNK         0.3000 
    206 H206        0.0627  -29.0408  -47.8665 H         1 UNK         0.0600 
    207 H207        0.6202  -28.3298  -45.5489 H         1 UNK         0.0600 
    208 H208        2.0708  -28.3791  -46.5404 H         1 UNK         0.0600 
    209 H209        1.3278  -26.8327  -46.1499 H         1 UNK         0.0600 
    210 H210        0.2918  -25.5571  -48.3652 H         1 UNK         0.3000 
    211 H211        1.8782  -25.8791  -50.8764 H         1 UNK         0.0600 
    212 H212        1.1764  -23.3515  -49.2876 H         1 UNK         0.0600 
    213 H213        2.2251  -23.4350  -50.7009 H         1 UNK         0.0600 
    214 H214        2.7198  -24.1878  -49.1990 H         1 UNK         0.0600 
    215 H215        0.6438  -23.3985  -51.9240 H         1 UNK         0.3000 
    216 H216       -1.6607  -24.4519  -53.2715 H         1 UNK         0.0600 
    217 H217       -1.8309  -22.1135  -54.1636 H         1 UNK         0.0600 
    218 H218       -0.2024  -22.7529  -54.3195 H         1 UNK         0.0600 
    219 H219       -0.5752  -21.5909  -53.0489 H         1 UNK         0.0600 
    220 H220       -3.7163  -24.5045  -52.6016 H         1 UNK         0.3000 
    221 H221       -4.3399  -24.0295  -49.9048 H         1 UNK         0.0600 
    222 H222       -6.1356  -24.9217  -52.2058 H         1 UNK         0.0600 
    223 H223       -5.1033  -25.9721  -51.2362 H         1 UNK         0.0600 
    224 H224       -6.4578  -25.1460  -50.4892 H         1 UNK         0.0600 
    225 H225       -3.8094  -21.5280  -50.6551 H         1 UNK         0.3000 
    226 H226       -4.3421  -19.4157  -50.3641 H         1 UNK         0.0600 
    227 H227       -5.4913  -20.2498  -48.3132 H         1 UNK         0.0600 
    228 H228       -6.2610  -18.8010  -48.9458 H         1 UNK         0.0600 
    229 H229       -7.0077  -20.3715  -49.2016 H         1 UNK         0.0600 
    230 H230       -6.8638  -21.1475  -52.0648 H         1 UNK         0.3000 
    231 H231       -8.3638  -19.1046  -53.1980 H         1 UNK         0.0600 
    232 H232       -9.0314  -20.8625  -54.8557 H         1 UNK         0.0600 
    233 H233       -8.9857  -21.5068  -53.2222 H         1 UNK         0.0600 
    234 H234       -7.6758  -21.8640  -54.3472 H         1 UNK         0.0600 
    235 H235       -5.1254  -19.9323  -54.0413 H         1 UNK         0.3000 
    236 H236       -4.8871  -19.0092  -56.6986 H         1 UNK         0.0600 
    237 H237       -2.8745  -18.9605  -54.3807 H         1 UNK         0.0600 
    238 H238       -3.1201  -20.2898  -55.5152 H         1 UNK         0.0600 
    239 H239       -2.4678  -18.7609  -56.0808 H         1 UNK         0.0600 
    240 H240       -5.2629  -17.1982  -53.6936 H         1 UNK         0.3000 
    241 H241       -4.6344  -14.6144  -54.9726 H         1 UNK         0.0600 
    242 H242       -7.3873  -16.5661  -55.2531 H         1 UNK         0.3800 
    243 H243       -8.5372  -15.2606  -55.3760 H         1 UNK         0.3800 
    244 H244       -5.1187  -13.6396  -52.7222 H         1 UNK         0.0800 
    245 H245       -5.5136  -15.2299  -52.1188 H         1 UNK         0.0800 
    246 H246       -3.5685  -15.1718  -50.1506 H         1 UNK         0.0800 
    247 H247       -3.8938  -16.6661  -51.0015 H         1 UNK         0.0800 
@<TRIPOS>BOND
     1    1    2 1    
     2    1  127 1    
     3    1  128 1    
     4    1  129 1    
     5    2    3 2    
     6    2    4 am   BACKBONE|DICT|INTERRES
     7    4    5 1    
     8    4  130 1    
     9    5    6 1    
    10    5   65 1    
    11    5  131 1    
    12    6    7 1    
    13    6  132 1    
    14    6  133 1    
    15    7    8 1    
    16    8    9 1    
    17    8  134 1    
    18    8  135 1    
    19    9   10 ar   
    20    9   14 ar   
    21   10   11 ar   
    22   10  136 1    
    23   11   12 ar   
    24   11  126 1    
    25   12   13 ar   
    26   12  137 1    
    27   13   14 ar   
    28   13   15 1    
    29   14  138 1    
    30   15   16 1    
    31   15  139 1    
    32   15  140 1    
    33   16   17 1    
    34   17   18 1    
    35   17  141 1    
    36   17  142 1    
    37   18   19 1    
    38   18   67 1    
    39   18  143 1    
    40   19   20 am   BACKBONE|DICT|INTERRES
    41   19  144 1    
    42   20   21 2    
    43   20   22 1    
    44   22   23 1    
    45   22   24 1    
    46   22  145 1    
    47   23  146 1    
    48   23  147 1    
    49   23  148 1    
    50   24   25 am   BACKBONE|DICT|INTERRES
    51   24  149 1    
    52   25   26 2    
    53   25   27 1    
    54   27   28 1    
    55   27   29 1    
    56   27  150 1    
    57   28  151 1    
    58   28  152 1    
    59   28  153 1    
    60   29   30 am   BACKBONE|DICT|INTERRES
    61   29  154 1    
    62   30   31 2    
    63   30   32 1    
    64   32   33 1    
    65   32   34 1    
    66   32  155 1    
    67   33  156 1    
    68   33  157 1    
    69   33  158 1    
    70   34   35 am   BACKBONE|DICT|INTERRES
    71   34  159 1    
    72   35   36 2    
    73   35   37 1    
    74   37   38 1    
    75   37   39 1    
    76   37  160 1    
    77   38  161 1    
    78   38  162 1    
    79   38  163 1    
    80   39   40 am   BACKBONE|DICT|INTERRES
    81   39  164 1    
    82   40   41 2    
    83   40   42 1    
    84   42   43 1    
    85   42   44 1    
    86   42  165 1    
    87   43  166 1    
    88   43  167 1    
    89   43  168 1    
    90   44   45 am   BACKBONE|DICT|INTERRES
    91   44  169 1    
    92   45   46 2    
    93   45   47 1    
    94   47   48 1    
    95   47   49 1    
    96   47  170 1    
    97   48  171 1    
    98   48  172 1    
    99   48  173 1    
   100   49   50 am   BACKBONE|DICT|INTERRES
   101   49  174 1    
   102   50   51 2    
   103   50   52 1    
   104   52   53 1    
   105   52   54 1    
   106   52  175 1    
   107   53  176 1    
   108   53  177 1    
   109   53  178 1    
   110   54   55 am   BACKBONE|DICT|INTERRES
   111   54  179 1    
   112   55   56 2    
   113   55   57 1    
   114   57   58 1    
   115   57   59 1    
   116   57  180 1    
   117   58  181 1    
   118   58  182 1    
   119   58  183 1    
   120   59   60 am   BACKBONE|DICT|INTERRES
   121   59  184 1    
   122   60   61 2    
   123   60   62 1    
   124   62   63 1    
   125   62   64 1    
   126   62  185 1    
   127   63  186 1    
   128   63  187 1    
   129   63  188 1    
   130   64   65 am   BACKBONE|DICT|INTERRES
   131   64  189 1    
   132   65   66 2    
   133   67   68 2    
   134   67   69 am   BACKBONE|DICT|INTERRES
   135   69   70 1    
   136   69  190 1    
   137   70   71 1    
   138   70   72 1    
   139   70  191 1    
   140   71  192 1    
   141   71  193 1    
   142   71  194 1    
   143   72   73 2    
   144   72   74 am   BACKBONE|DICT|INTERRES
   145   74   75 1    
   146   74  195 1    
   147   75   76 1    
   148   75   77 1    
   149   75  196 1    
   150   76  197 1    
   151   76  198 1    
   152   76  199 1    
   153   77   78 2    
   154   77   79 am   BACKBONE|DICT|INTERRES
   155   79   80 1    
   156   79  200 1    
   157   80   81 1    
   158   80   82 1    
   159   80  201 1    
   160   81  202 1    
   161   81  203 1    
   162   81  204 1    
   163   82   83 2    
   164   82   84 am   BACKBONE|DICT|INTERRES
   165   84   85 1    
   166   84  205 1    
   167   85   86 1    
   168   85   87 1    
   169   85  206 1    
   170   86  207 1    
   171   86  208 1    
   172   86  209 1    
   173   87   88 2    
   174   87   89 am   BACKBONE|DICT|INTERRES
   175   89   90 1    
   176   89  210 1    
   177   90   91 1    
   178   90   92 1    
   179   90  211 1    
   180   91  212 1    
   181   91  213 1    
   182   91  214 1    
   183   92   93 2    
   184   92   94 am   BACKBONE|DICT|INTERRES
   185   94   95 1    
   186   94  215 1    
   187   95   96 1    
   188   95   97 1    
   189   95  216 1    
   190   96  217 1    
   191   96  218 1    
   192   96  219 1    
   193   97   98 2    
   194   97   99 am   BACKBONE|DICT|INTERRES
   195   99  100 1    
   196   99  220 1    
   197  100  101 1    
   198  100  102 1    
   199  100  221 1    
   200  101  222 1    
   201  101  223 1    
   202  101  224 1    
   203  102  103 2    
   204  102  104 am   BACKBONE|DICT|INTERRES
   205  104  105 1    
   206  104  225 1    
   207  105  106 1    
   208  105  107 1    
   209  105  226 1    
   210  106  227 1    
   211  106  228 1    
   212  106  229 1    
   213  107  108 2    
   214  107  109 am   BACKBONE|DICT|INTERRES
   215  109  110 1    
   216  109  230 1    
   217  110  111 1    
   218  110  112 1    
   219  110  231 1    
   220  111  232 1    
   221  111  233 1    
   222  111  234 1    
   223  112  113 2    
   224  112  114 am   BACKBONE|DICT|INTERRES
   225  114  115 1    
   226  114  235 1    
   227  115  116 1    
   228  115  117 1    
   229  115  236 1    
   230  116  237 1    
   231  116  238 1    
   232  116  239 1    
   233  117  118 2    
   234  117  119 am   BACKBONE|DICT|INTERRES
   235  119  120 1    
   236  119  240 1    
   237  120  121 1    
   238  120  124 1    
   239  120  241 1    
   240  121  122 am   BACKBONE|DICT|INTERRES
   241  121  123 2    
   242  122  242 1    
   243  122  243 1    
   244  124  125 1    
   245  124  244 1    
   246  124  245 1    
   247  125  126 1    
   248  126  246 1    
   249  126  247 1    
@<TRIPOS>SUBSTRUCTURE
     1 UNK         1 GROUP             0       ****    0 ROOT    
