@<TRIPOS>MOLECULE
3R540
247   249    1
SMALL
USER_CHARGES


@<TRIPOS>ATOM
      1 CA         -3.5719  -14.6573  -47.1262 C.3       0 UNK        -0.1800 
      2 C          -2.2643  -14.3096  -46.4314 C.2       0 UNK         0.5000 
      3 O          -2.2726  -13.5929  -45.4302 O.2       0 UNK        -0.5000 
      4 N          -1.1394  -14.8280  -46.9426 N.am      1 UNK        -0.5000 
      5 CA          0.2151  -14.5667  -46.4355 C.3       1 UNK         0.1400 
      6 C6          1.3129  -15.1399  -47.3590 C.3       23 UNK        -0.0398 
      7 S7          1.2429  -14.4447  -49.0437 S.3       23 UNK        -0.2404 
      8 C8          2.2739  -15.6274  -49.9715 C.3       23 UNK        -0.0205 
      9 C9          1.6645  -17.0214  -49.9947 C.ar      23 UNK        -0.0193 
     10 C10         0.4833  -17.2599  -50.7028 C.ar      23 UNK        -0.1150 
     11 C11        -0.1052  -18.5273  -50.6936 C.ar      23 UNK        -0.0193 
     12 C12         0.4982  -19.5609  -49.9723 C.ar      23 UNK        -0.1150 
     13 C13         1.6880  -19.3391  -49.2729 C.ar      23 UNK        -0.0193 
     14 C14         2.2708  -18.0690  -49.2948 C.ar      23 UNK        -0.1150 
     15 C15         2.3347  -20.4707  -48.4860 C.3       23 UNK        -0.0205 
     16 S16         2.3583  -20.1571  -46.6906 S.3       23 UNK        -0.2404 
     17 C17         0.5836  -19.9770  -46.3055 C.3       23 UNK        -0.0398 
     18 CA         -0.0628  -21.3091  -45.8620 C.3       11 UNK         0.1400 
     19 N           0.5398  -21.8440  -44.6359 N.am      11 UNK        -0.5000 
     20 C           0.3305  -23.0838  -44.1680 C.2       10 UNK         0.5000 
     21 O          -0.3756  -23.9097  -44.7456 O.2       10 UNK        -0.5000 
     22 CA          0.9608  -23.4583  -42.8113 C.3       10 UNK         0.1400 
     23 CB          2.2668  -24.2368  -43.0278 C.3       10 UNK        -0.1800 
     24 N           1.2310  -22.3153  -41.9375 N.am      10 UNK        -0.5000 
     25 C           0.3273  -21.4281  -41.4962 C.2       9 UNK         0.5000 
     26 O          -0.8751  -21.4949  -41.7490 O.2       9 UNK        -0.5000 
     27 CA          0.8695  -20.2326  -40.6870 C.3       9 UNK         0.1400 
     28 CB          0.7447  -20.5046  -39.1809 C.3       9 UNK        -0.1800 
     29 N           2.2596  -19.8801  -40.9992 N.am      9 UNK        -0.5000 
     30 C           2.7154  -19.5237  -42.2082 C.2       8 UNK         0.5000 
     31 O           2.0120  -19.4824  -43.2203 O.2       8 UNK        -0.5000 
     32 CA          4.2271  -19.2456  -42.3013 C.3       8 UNK         0.1400 
     33 CB          4.9941  -20.5668  -42.4714 C.3       8 UNK        -0.1800 
     34 N           4.5736  -18.3613  -43.4128 N.am      8 UNK        -0.5000 
     35 C           4.2059  -17.0796  -43.5185 C.2       7 UNK         0.5000 
     36 O           3.5612  -16.4746  -42.6559 O.2       7 UNK        -0.5000 
     37 CA          4.6553  -16.3555  -44.7981 C.3       7 UNK         0.1400 
     38 CB          4.0824  -17.0168  -46.0631 C.3       7 UNK        -0.1800 
     39 N           4.2131  -14.9696  -44.7294 N.am      7 UNK        -0.5000 
     40 C           4.8811  -13.9012  -45.1773 C.2       6 UNK         0.5000 
     41 O           5.9374  -13.9682  -45.8067 O.2       6 UNK        -0.5000 
     42 CA          4.2734  -12.5214  -44.8595 C.3       6 UNK         0.1400 
     43 CB          3.5513  -11.9485  -46.0893 C.3       6 UNK        -0.1800 
     44 N           3.3228  -12.5930  -43.7517 N.am      6 UNK        -0.5000 
     45 C           3.6306  -12.5149  -42.4513 C.2       5 UNK         0.5000 
     46 O           4.7645  -12.2778  -42.0311 O.2       5 UNK        -0.5000 
     47 CA          2.4655  -12.7623  -41.4672 C.3       5 UNK         0.1400 
     48 CB          2.6952  -12.1300  -40.0789 C.3       5 UNK        -0.1800 
     49 N           1.1632  -12.3748  -42.0228 N.am      5 UNK        -0.5000 
     50 C           0.7517  -11.1460  -42.3735 C.2       4 UNK         0.5000 
     51 O           1.4055  -10.1198  -42.1838 O.2       4 UNK        -0.5000 
     52 CA         -0.6089  -11.0438  -43.0939 C.3       4 UNK         0.1400 
     53 CB         -0.3937  -10.7720  -44.5910 C.3       4 UNK        -0.1800 
     54 N          -1.4377  -12.2425  -42.9519 N.am      4 UNK        -0.5000 
     55 C          -2.0684  -12.6082  -41.8276 C.2       3 UNK         0.5000 
     56 O          -2.0631  -11.9445  -40.7904 O.2       3 UNK        -0.5000 
     57 CA         -2.8005  -13.9599  -41.8637 C.3       3 UNK         0.1400 
     58 CB         -4.2169  -13.7995  -42.4372 C.3       3 UNK        -0.1800 
     59 N          -2.0701  -14.9590  -42.6452 N.am      3 UNK        -0.5000 
     60 C          -0.9704  -15.5995  -42.2238 C.2       2 UNK         0.5000 
     61 O          -0.4482  -15.4154  -41.1248 O.2       2 UNK        -0.5000 
     62 CA         -0.3481  -16.6093  -43.2060 C.3       2 UNK         0.1400 
     63 CB         -1.1422  -17.9255  -43.1721 C.3       2 UNK        -0.1800 
     64 N          -0.3041  -16.1046  -44.5801 N.am      2 UNK        -0.5000 
     65 C           0.4247  -15.0545  -44.9863 C.2       1 UNK         0.5000 
     66 O           1.2128  -14.4474  -44.2620 O.2       1 UNK        -0.5000 
     67 C          -1.5998  -21.1711  -45.7670 C.2       11 UNK         0.5000 
     68 O          -2.2618  -21.1751  -46.8044 O.2       11 UNK        -0.5000 
     69 N          -2.1564  -21.1013  -44.5463 N.am      12 UNK        -0.5000 
     70 CA         -3.6029  -21.1200  -44.3070 C.3       12 UNK         0.1400 
     71 CB         -3.8939  -20.6129  -42.8860 C.3       12 UNK        -0.1800 
     72 C          -4.2306  -22.5146  -44.5130 C.2       12 UNK         0.5000 
     73 O          -5.4446  -22.6046  -44.6961 O.2       12 UNK        -0.5000 
     74 N          -3.4056  -23.5708  -44.4820 N.am      13 UNK        -0.5000 
     75 CA         -3.8097  -24.9660  -44.6604 C.3       13 UNK         0.1400 
     76 CB         -3.0324  -25.8350  -43.6557 C.3       13 UNK        -0.1800 
     77 C          -3.6067  -25.4603  -46.1081 C.2       13 UNK         0.5000 
     78 O          -3.7551  -26.6581  -46.3577 O.2       13 UNK        -0.5000 
     79 N          -3.2664  -24.5536  -47.0372 N.am      14 UNK        -0.5000 
     80 CA         -3.1124  -24.8335  -48.4659 C.3       14 UNK         0.1400 
     81 CB         -2.5590  -23.5819  -49.1665 C.3       14 UNK        -0.1800 
     82 C          -4.4350  -25.2764  -49.1232 C.2       14 UNK         0.5000 
     83 O          -5.5078  -24.8108  -48.7285 O.2       14 UNK        -0.5000 
     84 N          -4.3268  -26.1574  -50.1254 N.am      15 UNK        -0.5000 
     85 CA         -5.4453  -26.6440  -50.9344 C.3       15 UNK         0.1400 
     86 CB         -4.9500  -27.8080  -51.8072 C.3       15 UNK        -0.1800 
     87 C          -6.0354  -25.5350  -51.8227 C.2       15 UNK         0.5000 
     88 O          -5.3154  -24.6089  -52.2009 O.2       15 UNK        -0.5000 
     89 N          -7.3160  -25.6744  -52.1901 N.am      16 UNK        -0.5000 
     90 CA         -8.0521  -24.7216  -53.0289 C.3       16 UNK         0.1400 
     91 CB         -9.5102  -25.1843  -53.1672 C.3       16 UNK        -0.1800 
     92 C          -7.4203  -24.5020  -54.4171 C.2       16 UNK         0.5000 
     93 O          -7.3892  -23.3704  -54.8996 O.2       16 UNK        -0.5000 
     94 N          -6.8858  -25.5797  -55.0083 N.am      17 UNK        -0.5000 
     95 CA         -6.1736  -25.5584  -56.2872 C.3       17 UNK         0.1400 
     96 CB         -5.9529  -27.0019  -56.7640 C.3       17 UNK        -0.1800 
     97 C          -4.8336  -24.8004  -56.2219 C.2       17 UNK         0.5000 
     98 O          -4.4422  -24.1809  -57.2113 O.2       17 UNK        -0.5000 
     99 N          -4.1662  -24.8477  -55.0600 N.am      18 UNK        -0.5000 
    100 CA        -2.9487  -24.0880  -54.7844 C.3       18 UNK         0.1400 
    101 CB        -2.1769  -24.7305  -53.6202 C.3       18 UNK        -0.1800 
    102 C         -3.2838  -22.6188  -54.4899 C.2       18 UNK         0.5000 
    103 O         -2.6830  -21.7301  -55.0924 O.2       18 UNK        -0.5000 
    104 N         -4.2760  -22.3944  -53.6152 N.am      19 UNK        -0.5000 
    105 CA        -4.7775  -21.0791  -53.2090 C.3       19 UNK         0.1400 
    106 CB        -5.8937  -21.2561  -52.1702 C.3       19 UNK        -0.1800 
    107 C         -5.2607  -20.2162  -54.3884 C.2       19 UNK         0.5000 
    108 O         -5.0102  -19.0114  -54.4025 O.2       19 UNK        -0.5000 
    109 N         -5.8924  -20.8549  -55.3824 N.am      20 UNK        -0.5000 
    110 CA        -6.3099  -20.2376  -56.6415 C.3       20 UNK         0.1400 
    111 CB        -7.1587  -21.2441  -57.4335 C.3       20 UNK        -0.1800 
    112 C         -5.1411  -19.7246  -57.5086 C.2       20 UNK         0.5000 
    113 O         -5.3504  -18.8104  -58.3074 O.2       20 UNK        -0.5000 
    114 N         -3.9457  -20.3096  -57.3488 N.am      21 UNK        -0.5000 
    115 CA        -2.7334  -19.9086  -58.0564 C.3       21 UNK         0.1400 
    116 CB        -1.8531  -21.1406  -58.3250 C.3       21 UNK        -0.1800 
    117 C         -1.9619  -18.8299  -57.2785 C.2       21 UNK         0.5000 
    118 O         -1.6070  -17.8085  -57.8693 O.2       21 UNK        -0.5000 
    119 N         -1.7039  -19.0673  -55.9836 N.am      22 UNK        -0.5000 
    120 CA        -0.9351  -18.1450  -55.1266 C.3       22 UNK         0.1400 
    121 C         -1.7234  -16.9157  -54.5911 C.2       22 UNK         0.5000 
    122 N         -3.0497  -16.9212  -54.5700 N.am      22 UNK        -0.7600 
    123 O         -1.1147  -15.9238  -54.1994 O.2       22 UNK        -0.5000 
    124 C124       -0.1502  -18.8724  -54.0041 C.3       23 UNK        -0.0398 
    125 S125       -1.1698  -19.8803  -52.8738 S.3       23 UNK        -0.2404 
    126 C126       -1.4031  -18.7772  -51.4454 C.3       23 UNK        -0.0205 
    127 H127       -4.2433  -15.1603  -46.4304 H         1 UNK         0.0600 
    128 H128       -3.4142  -15.3128  -47.9830 H         1 UNK         0.0600 
    129 H129       -4.0612  -13.7488  -47.4772 H         1 UNK         0.0600 
    130 H130       -1.1891  -15.3927  -47.7788 H         1 UNK         0.3000 
    131 H131        0.3375  -13.4825  -46.4167 H         1 UNK         0.0600 
    132 H132        2.3042  -14.9222  -46.9603 H         1 UNK         0.0800 
    133 H133        1.2260  -16.2259  -47.4074 H         1 UNK         0.0800 
    134 H134        2.3875  -15.2704  -50.9960 H         1 UNK         0.0800 
    135 H135        3.2757  -15.6460  -49.5394 H         1 UNK         0.0800 
    136 H136        0.0161  -16.4518  -51.2490 H         1 UNK         0.1150 
    137 H137        0.0374  -20.5389  -49.9594 H         1 UNK         0.1150 
    138 H138        3.1857  -17.8950  -48.7466 H         1 UNK         0.1150 
    139 H139        1.8238  -21.4164  -48.6732 H         1 UNK         0.0800 
    140 H140        3.3601  -20.6031  -48.8334 H         1 UNK         0.0800 
    141 H141        0.0625  -19.5612  -47.1680 H         1 UNK         0.0800 
    142 H142        0.4958  -19.2257  -45.5220 H         1 UNK         0.0800 
    143 H143        0.1223  -22.0391  -46.6532 H         1 UNK         0.0600 
    144 H144        1.1266  -21.2036  -44.1117 H         1 UNK         0.3000 
    145 H145        0.2527  -24.1084  -42.2936 H         1 UNK         0.0600 
    146 H146        2.6781  -24.5902  -42.0821 H         1 UNK         0.0600 
    147 H147        2.1004  -25.1133  -43.6555 H         1 UNK         0.0600 
    148 H148        3.0243  -23.6220  -43.5161 H         1 UNK         0.0600 
    149 H149        2.1955  -22.1664  -41.6825 H         1 UNK         0.3000 
    150 H150        0.2515  -19.3671  -40.9278 H         1 UNK         0.0600 
    151 H151        1.3695  -21.3428  -38.8699 H         1 UNK         0.0600 
    152 H152       -0.2848  -20.7445  -38.9113 H         1 UNK         0.0600 
    153 H153        1.0362  -19.6318  -38.5963 H         1 UNK         0.0600 
    154 H154        2.9075  -19.9071  -40.2249 H         1 UNK         0.3000 
    155 H155        4.5498  -18.7655  -41.3751 H         1 UNK         0.0600 
    156 H156        4.7054  -21.0833  -43.3881 H         1 UNK         0.0600 
    157 H157        4.8028  -21.2451  -41.6389 H         1 UNK         0.0600 
    158 H158        6.0705  -20.3971  -42.5065 H         1 UNK         0.0600 
    159 H159        5.0682  -18.7893  -44.1811 H         1 UNK         0.3000 
    160 H160        5.7462  -16.3902  -44.8323 H         1 UNK         0.0600 
    161 H161        3.0017  -17.1423  -45.9930 H         1 UNK         0.0600 
    162 H162        4.5155  -18.0047  -46.2200 H         1 UNK         0.0600 
    163 H163        4.3008  -16.4284  -46.9544 H         1 UNK         0.0600 
    164 H164        3.3762  -14.8270  -44.1739 H         1 UNK         0.3000 
    165 H165        5.0910  -11.8476  -44.5953 H         1 UNK         0.0600 
    166 H166        4.2283  -11.8729  -46.9412 H         1 UNK         0.0600 
    167 H167        2.7105  -12.5718  -46.3922 H         1 UNK         0.0600 
    168 H168        3.1684  -10.9477  -45.8885 H         1 UNK         0.0600 
    169 H169        2.3793  -12.8831  -43.9857 H         1 UNK         0.3000 
    170 H170        2.4183  -13.8439  -41.3302 H         1 UNK         0.0600 
    171 H171        3.5818  -12.5493  -39.6019 H         1 UNK         0.0600 
    172 H172        2.8391  -11.0512  -40.1411 H         1 UNK         0.0600 
    173 H173        1.8510  -12.3195  -39.4159 H         1 UNK         0.0600 
    174 H174        0.5539  -13.1468  -42.2570 H         1 UNK         0.3000 
    175 H175       -1.1491  -10.1976  -42.6644 H         1 UNK         0.0600 
    176 H176       -1.3436  -10.6813  -45.1184 H         1 UNK         0.0600 
    177 H177        0.1548   -9.8419  -44.7452 H         1 UNK         0.0600 
    178 H178        0.1781  -11.5703  -45.0637 H         1 UNK         0.0600 
    179 H179       -1.5603  -12.8155  -43.7822 H         1 UNK         0.3000 
    180 H180       -2.8900  -14.3199  -40.8365 H         1 UNK         0.0600 
    181 H181       -4.1991  -13.4466  -43.4690 H         1 UNK         0.0600 
    182 H182       -4.7934  -13.0796  -41.8548 H         1 UNK         0.0600 
    183 H183       -4.7602  -14.7443  -42.4153 H         1 UNK         0.0600 
    184 H184       -2.3982  -15.1202  -43.5867 H         1 UNK         0.3000 
    185 H185        0.6738  -16.8109  -42.8764 H         1 UNK         0.0600 
    186 H186       -1.3676  -18.2270  -42.1488 H         1 UNK         0.0600 
    187 H187       -2.0928  -17.8385  -43.6991 H         1 UNK         0.0600 
    188 H188       -0.5800  -18.7398  -43.6231 H         1 UNK         0.0600 
    189 H189       -0.9323  -16.5325  -45.2435 H         1 UNK         0.3000 
    190 H190       -1.5646  -21.1372  -43.7233 H         1 UNK         0.3000 
    191 H191       -4.0787  -20.4360  -45.0130 H         1 UNK         0.0600 
    192 H192       -3.4749  -19.6215  -42.7210 H         1 UNK         0.0600 
    193 H193       -4.9682  -20.5418  -42.7114 H         1 UNK         0.0600 
    194 H194       -3.4860  -21.2819  -42.1279 H         1 UNK         0.0600 
    195 H195       -2.4098  -23.4154  -44.3774 H         1 UNK         0.3000 
    196 H196       -4.8727  -25.0734  -44.4359 H         1 UNK         0.0600 
    197 H197       -3.3798  -26.8685  -43.6805 H         1 UNK         0.0600 
    198 H198       -3.1663  -25.4748  -42.6356 H         1 UNK         0.0600 
    199 H199       -1.9639  -25.8453  -43.8706 H         1 UNK         0.0600 
    200 H200       -3.1846  -23.5872  -46.7563 H         1 UNK         0.3000 
    201 H201       -2.3834  -25.6399  -48.5695 H         1 UNK         0.0600 
    202 H202       -2.4107  -23.7605  -50.2324 H         1 UNK         0.0600 
    203 H203       -3.2390  -22.7344  -49.0695 H         1 UNK         0.0600 
    204 H204       -1.5959  -23.2873  -48.7490 H         1 UNK         0.0600 
    205 H205       -3.4082  -26.4667  -50.4060 H         1 UNK         0.3000 
    206 H206       -6.2247  -27.0086  -50.2621 H         1 UNK         0.0600 
    207 H207       -4.5523  -28.6181  -51.1955 H         1 UNK         0.0600 
    208 H208       -5.7612  -28.2250  -52.4054 H         1 UNK         0.0600 
    209 H209       -4.1649  -27.4905  -52.4950 H         1 UNK         0.0600 
    210 H210       -7.8382  -26.4703  -51.8525 H         1 UNK         0.3000 
    211 H211       -8.0510  -23.7608  -52.5114 H         1 UNK         0.0600 
    212 H212       -9.5798  -26.1629  -53.6437 H         1 UNK         0.0600 
    213 H213      -10.0864  -24.4827  -53.7721 H         1 UNK         0.0600 
    214 H214       -9.9980  -25.2482  -52.1944 H         1 UNK         0.0600 
    215 H215       -6.9561  -26.4703  -54.5388 H         1 UNK         0.3000 
    216 H216       -6.8054  -25.0490  -57.0181 H         1 UNK         0.0600 
    217 H217       -5.4423  -27.0207  -57.7278 H         1 UNK         0.0600 
    218 H218       -6.9009  -27.5252  -56.8898 H         1 UNK         0.0600 
    219 H219       -5.3451  -27.5708  -56.0592 H         1 UNK         0.0600 
    220 H220       -4.5911  -25.3201  -54.2750 H         1 UNK         0.3000 
    221 H221       -2.3063  -24.1171  -55.6673 H         1 UNK         0.0600 
    222 H222       -2.7513  -24.7294  -52.6942 H         1 UNK         0.0600 
    223 H223       -1.9109  -25.7629  -53.8472 H         1 UNK         0.0600 
    224 H224       -1.2493  -24.1901  -53.4273 H         1 UNK         0.0600 
    225 H225       -4.7031  -23.1970  -53.1566 H         1 UNK         0.3000 
    226 H226       -3.9559  -20.5491  -52.7276 H         1 UNK         0.0600 
    227 H227       -6.2392  -20.2899  -51.8007 H         1 UNK         0.0600 
    228 H228       -6.7548  -21.7726  -52.5934 H         1 UNK         0.0600 
    229 H229       -5.5468  -21.8298  -51.3102 H         1 UNK         0.0600 
    230 H230       -6.1195  -21.8369  -55.2621 H         1 UNK         0.3000 
    231 H231       -6.9373  -19.3776  -56.3986 H         1 UNK         0.0600 
    232 H232       -6.5979  -22.1530  -57.6559 H         1 UNK         0.0600 
    233 H233       -7.4896  -20.8197  -58.3822 H         1 UNK         0.0600 
    234 H234       -8.0522  -21.5292  -56.8779 H         1 UNK         0.0600 
    235 H235       -3.8318  -21.0145  -56.6294 H         1 UNK         0.3000 
    236 H236       -3.0037  -19.4899  -59.0283 H         1 UNK         0.0600 
    237 H237       -2.3983  -21.8975  -58.8894 H         1 UNK         0.0600 
    238 H238       -0.9744  -20.8678  -58.9105 H         1 UNK         0.0600 
    239 H239       -1.4986  -21.6037  -57.4046 H         1 UNK         0.0600 
    240 H240       -2.0266  -19.9305  -55.5548 H         1 UNK         0.3000 
    241 H241       -0.1632  -17.7068  -55.7629 H         1 UNK         0.0600 
    242 H242       -3.5837  -17.7562  -54.7898 H         1 UNK         0.3800 
    243 H243       -3.5353  -16.1073  -54.2304 H         1 UNK         0.3800 
    244 H244        0.4499  -18.1632  -53.4327 H         1 UNK         0.0800 
    245 H245        0.5724  -19.5477  -54.4635 H         1 UNK         0.0800 
    246 H246       -2.1231  -19.2348  -50.7656 H         1 UNK         0.0800 
    247 H247       -1.8519  -17.8398  -51.7764 H         1 UNK         0.0800 
@<TRIPOS>BOND
     1    1    2 1    
     2    1  127 1    
     3    1  128 1    
     4    1  129 1    
     5    2    3 2    
     6    2    4 am   BACKBONE|DICT|INTERRES
     7    4    5 1    
     8    4  130 1    
     9    5    6 1    
    10    5   65 1    
    11    5  131 1    
    12    6    7 1    
    13    6  132 1    
    14    6  133 1    
    15    7    8 1    
    16    8    9 1    
    17    8  134 1    
    18    8  135 1    
    19    9   10 ar   
    20    9   14 ar   
    21   10   11 ar   
    22   10  136 1    
    23   11   12 ar   
    24   11  126 1    
    25   12   13 ar   
    26   12  137 1    
    27   13   14 ar   
    28   13   15 1    
    29   14  138 1    
    30   15   16 1    
    31   15  139 1    
    32   15  140 1    
    33   16   17 1    
    34   17   18 1    
    35   17  141 1    
    36   17  142 1    
    37   18   19 1    
    38   18   67 1    
    39   18  143 1    
    40   19   20 am   BACKBONE|DICT|INTERRES
    41   19  144 1    
    42   20   21 2    
    43   20   22 1    
    44   22   23 1    
    45   22   24 1    
    46   22  145 1    
    47   23  146 1    
    48   23  147 1    
    49   23  148 1    
    50   24   25 am   BACKBONE|DICT|INTERRES
    51   24  149 1    
    52   25   26 2    
    53   25   27 1    
    54   27   28 1    
    55   27   29 1    
    56   27  150 1    
    57   28  151 1    
    58   28  152 1    
    59   28  153 1    
    60   29   30 am   BACKBONE|DICT|INTERRES
    61   29  154 1    
    62   30   31 2    
    63   30   32 1    
    64   32   33 1    
    65   32   34 1    
    66   32  155 1    
    67   33  156 1    
    68   33  157 1    
    69   33  158 1    
    70   34   35 am   BACKBONE|DICT|INTERRES
    71   34  159 1    
    72   35   36 2    
    73   35   37 1    
    74   37   38 1    
    75   37   39 1    
    76   37  160 1    
    77   38  161 1    
    78   38  162 1    
    79   38  163 1    
    80   39   40 am   BACKBONE|DICT|INTERRES
    81   39  164 1    
    82   40   41 2    
    83   40   42 1    
    84   42   43 1    
    85   42   44 1    
    86   42  165 1    
    87   43  166 1    
    88   43  167 1    
    89   43  168 1    
    90   44   45 am   BACKBONE|DICT|INTERRES
    91   44  169 1    
    92   45   46 2    
    93   45   47 1    
    94   47   48 1    
    95   47   49 1    
    96   47  170 1    
    97   48  171 1    
    98   48  172 1    
    99   48  173 1    
   100   49   50 am   BACKBONE|DICT|INTERRES
   101   49  174 1    
   102   50   51 2    
   103   50   52 1    
   104   52   53 1    
   105   52   54 1    
   106   52  175 1    
   107   53  176 1    
   108   53  177 1    
   109   53  178 1    
   110   54   55 am   BACKBONE|DICT|INTERRES
   111   54  179 1    
   112   55   56 2    
   113   55   57 1    
   114   57   58 1    
   115   57   59 1    
   116   57  180 1    
   117   58  181 1    
   118   58  182 1    
   119   58  183 1    
   120   59   60 am   BACKBONE|DICT|INTERRES
   121   59  184 1    
   122   60   61 2    
   123   60   62 1    
   124   62   63 1    
   125   62   64 1    
   126   62  185 1    
   127   63  186 1    
   128   63  187 1    
   129   63  188 1    
   130   64   65 am   BACKBONE|DICT|INTERRES
   131   64  189 1    
   132   65   66 2    
   133   67   68 2    
   134   67   69 am   BACKBONE|DICT|INTERRES
   135   69   70 1    
   136   69  190 1    
   137   70   71 1    
   138   70   72 1    
   139   70  191 1    
   140   71  192 1    
   141   71  193 1    
   142   71  194 1    
   143   72   73 2    
   144   72   74 am   BACKBONE|DICT|INTERRES
   145   74   75 1    
   146   74  195 1    
   147   75   76 1    
   148   75   77 1    
   149   75  196 1    
   150   76  197 1    
   151   76  198 1    
   152   76  199 1    
   153   77   78 2    
   154   77   79 am   BACKBONE|DICT|INTERRES
   155   79   80 1    
   156   79  200 1    
   157   80   81 1    
   158   80   82 1    
   159   80  201 1    
   160   81  202 1    
   161   81  203 1    
   162   81  204 1    
   163   82   83 2    
   164   82   84 am   BACKBONE|DICT|INTERRES
   165   84   85 1    
   166   84  205 1    
   167   85   86 1    
   168   85   87 1    
   169   85  206 1    
   170   86  207 1    
   171   86  208 1    
   172   86  209 1    
   173   87   88 2    
   174   87   89 am   BACKBONE|DICT|INTERRES
   175   89   90 1    
   176   89  210 1    
   177   90   91 1    
   178   90   92 1    
   179   90  211 1    
   180   91  212 1    
   181   91  213 1    
   182   91  214 1    
   183   92   93 2    
   184   92   94 am   BACKBONE|DICT|INTERRES
   185   94   95 1    
   186   94  215 1    
   187   95   96 1    
   188   95   97 1    
   189   95  216 1    
   190   96  217 1    
   191   96  218 1    
   192   96  219 1    
   193   97   98 2    
   194   97   99 am   BACKBONE|DICT|INTERRES
   195   99  100 1    
   196   99  220 1    
   197  100  101 1    
   198  100  102 1    
   199  100  221 1    
   200  101  222 1    
   201  101  223 1    
   202  101  224 1    
   203  102  103 2    
   204  102  104 am   BACKBONE|DICT|INTERRES
   205  104  105 1    
   206  104  225 1    
   207  105  106 1    
   208  105  107 1    
   209  105  226 1    
   210  106  227 1    
   211  106  228 1    
   212  106  229 1    
   213  107  108 2    
   214  107  109 am   BACKBONE|DICT|INTERRES
   215  109  110 1    
   216  109  230 1    
   217  110  111 1    
   218  110  112 1    
   219  110  231 1    
   220  111  232 1    
   221  111  233 1    
   222  111  234 1    
   223  112  113 2    
   224  112  114 am   BACKBONE|DICT|INTERRES
   225  114  115 1    
   226  114  235 1    
   227  115  116 1    
   228  115  117 1    
   229  115  236 1    
   230  116  237 1    
   231  116  238 1    
   232  116  239 1    
   233  117  118 2    
   234  117  119 am   BACKBONE|DICT|INTERRES
   235  119  120 1    
   236  119  240 1    
   237  120  121 1    
   238  120  124 1    
   239  120  241 1    
   240  121  122 am   BACKBONE|DICT|INTERRES
   241  121  123 2    
   242  122  242 1    
   243  122  243 1    
   244  124  125 1    
   245  124  244 1    
   246  124  245 1    
   247  125  126 1    
   248  126  246 1    
   249  126  247 1    
@<TRIPOS>SUBSTRUCTURE
     1 UNK         1 GROUP             0       ****    0 ROOT    
