@<TRIPOS>MOLECULE
3R540
247   249    1
SMALL
USER_CHARGES


@<TRIPOS>ATOM
      1 CA         -1.0437  -12.0068  -50.8650 C.3       0 UNK        -0.1800 
      2 C           0.1996  -12.6966  -50.3223 C.2       0 UNK         0.5000 
      3 O           1.2410  -12.0583  -50.1736 O.2       0 UNK        -0.5000 
      4 N           0.0890  -13.9935  -50.0111 N.am      1 UNK        -0.5000 
      5 CA          1.1676  -14.8384  -49.4802 C.3       1 UNK         0.1400 
      6 C6          1.1068  -16.2730  -50.0791 C.3       23 UNK        -0.0398 
      7 S7         -0.3186  -17.2801  -49.5289 S.3       23 UNK        -0.2404 
      8 C8         -1.4816  -17.0830  -50.9148 C.3       23 UNK        -0.0205 
      9 C9         -2.8973  -17.5167  -50.5572 C.ar      23 UNK        -0.0193 
     10 C10        -3.6243  -18.3283  -51.4327 C.ar      23 UNK        -0.1150 
     11 C11        -4.9614  -18.6401  -51.1696 C.ar      23 UNK        -0.0193 
     12 C12        -5.5505  -18.1932  -49.9833 C.ar      23 UNK        -0.1150 
     13 C13        -4.8216  -17.4208  -49.0763 C.ar      23 UNK        -0.0193 
     14 C14        -3.5065  -17.0626  -49.3828 C.ar      23 UNK        -0.1150 
     15 C15        -5.4593  -16.9587  -47.7741 C.3       23 UNK        -0.0205 
     16 S16        -5.5733  -18.3024  -46.5463 S.3       23 UNK        -0.2404 
     17 C17        -3.8199  -18.7272  -46.2695 C.3       23 UNK        -0.0398 
     18 CA         -3.4808  -20.1615  -46.7620 C.3       11 UNK         0.1400 
     19 N          -2.1525  -20.2153  -47.3808 N.am      11 UNK        -0.5000 
     20 C          -1.5514  -21.3034  -47.8845 C.2       10 UNK         0.5000 
     21 O          -2.1052  -22.3961  -48.0078 O.2       10 UNK        -0.5000 
     22 CA         -0.0523  -21.1701  -48.2266 C.3       10 UNK         0.1400 
     23 CB          0.1466  -21.0061  -49.7388 C.3       10 UNK        -0.1800 
     24 N           0.6103  -20.0656  -47.5218 N.am      10 UNK        -0.5000 
     25 C           0.7228  -19.9643  -46.1899 C.2       9 UNK         0.5000 
     26 O           0.3012  -20.8121  -45.4002 O.2       9 UNK        -0.5000 
     27 CA          1.2686  -18.6348  -45.6581 C.3       9 UNK         0.1400 
     28 CB          0.1342  -17.6074  -45.6479 C.3       9 UNK        -0.1800 
     29 N           1.7705  -18.7407  -44.2932 N.am      9 UNK        -0.5000 
     30 C           2.8735  -19.3901  -43.9068 C.2       8 UNK         0.5000 
     31 O           3.6364  -19.9636  -44.6854 O.2       8 UNK        -0.5000 
     32 CA          3.1872  -19.3820  -42.3981 C.3       8 UNK         0.1400 
     33 CB          4.5190  -18.6651  -42.1204 C.3       8 UNK        -0.1800 
     34 N           2.1284  -18.7298  -41.6181 N.am      8 UNK        -0.5000 
     35 C           1.2111  -19.3790  -40.8873 C.2       7 UNK         0.5000 
     36 O           1.1712  -20.6042  -40.7735 O.2       7 UNK        -0.5000 
     37 CA          0.1587  -18.5263  -40.1531 C.3       7 UNK         0.1400 
     38 CB          0.6213  -18.2320  -38.7188 C.3       7 UNK        -0.1800 
     39 N          -0.1495  -17.2696  -40.8424 N.am      7 UNK        -0.5000 
     40 C          -0.9305  -17.1940  -41.9303 C.2       6 UNK         0.5000 
     41 O          -1.4553  -18.1824  -42.4432 O.2       6 UNK        -0.5000 
     42 CA         -1.1340  -15.8191  -42.6019 C.3       6 UNK         0.1400 
     43 CB         -2.5925  -15.5762  -43.0406 C.3       6 UNK        -0.1800 
     44 N          -0.5879  -14.6765  -41.8694 N.am      6 UNK        -0.5000 
     45 C          -1.0245  -14.1213  -40.7321 C.2       5 UNK         0.5000 
     46 O          -2.0273  -14.4892  -40.1189 O.2       5 UNK        -0.5000 
     47 CA         -0.1412  -12.9743  -40.1918 C.3       5 UNK         0.1400 
     48 CB         -0.4792  -12.5795  -38.7387 C.3       5 UNK        -0.1800 
     49 N           1.2937  -13.2642  -40.3392 N.am      5 UNK        -0.5000 
     50 C           1.9515  -14.3091  -39.8121 C.2       4 UNK         0.5000 
     51 O           1.4242  -15.1427  -39.0764 O.2       4 UNK        -0.5000 
     52 CA          3.4270  -14.4734  -40.2328 C.3       4 UNK         0.1400 
     53 CB          4.0352  -15.8133  -39.7685 C.3       4 UNK        -0.1800 
     54 N           3.6278  -14.2923  -41.6763 N.am      4 UNK        -0.5000 
     55 C           3.0441  -14.9800  -42.6684 C.2       3 UNK         0.5000 
     56 O           2.2428  -15.9044  -42.5003 O.2       3 UNK        -0.5000 
     57 CA          3.4394  -14.5629  -44.0970 C.3       3 UNK         0.1400 
     58 CB          4.4328  -15.5734  -44.6890 C.3       3 UNK        -0.1800 
     59 N           2.2904  -14.4579  -44.9942 N.am      3 UNK        -0.5000 
     60 C           1.2173  -13.6787  -44.8354 C.2       2 UNK         0.5000 
     61 O           1.0903  -12.9073  -43.8817 O.2       2 UNK        -0.5000 
     62 CA          0.0792  -13.8066  -45.8826 C.3       2 UNK         0.1400 
     63 CB         -0.9537  -12.6720  -45.7548 C.3       2 UNK        -0.1800 
     64 N           0.4614  -13.9144  -47.2991 N.am      2 UNK        -0.5000 
     65 C           1.2061  -14.8376  -47.9315 C.2       1 UNK         0.5000 
     66 O           1.8747  -15.6954  -47.3561 O.2       1 UNK        -0.5000 
     67 C          -3.6472  -21.1875  -45.6142 C.2       11 UNK         0.5000 
     68 O          -4.7254  -21.7611  -45.4605 O.2       11 UNK        -0.5000 
     69 N          -2.5663  -21.4145  -44.8544 N.am      12 UNK        -0.5000 
     70 CA         -2.4914  -22.3924  -43.7747 C.3       12 UNK         0.1400 
     71 CB         -1.8572  -21.7290  -42.5408 C.3       12 UNK        -0.1800 
     72 C          -1.6780  -23.6202  -44.2128 C.2       12 UNK         0.5000 
     73 O          -2.1665  -24.7440  -44.0984 O.2       12 UNK        -0.5000 
     74 N          -0.4587  -23.3881  -44.7192 N.am      13 UNK        -0.5000 
     75 CA          0.5499  -24.4111  -45.0087 C.3       13 UNK         0.1400 
     76 CB          1.8926  -23.7223  -45.2989 C.3       13 UNK        -0.1800 
     77 C           0.1785  -25.3718  -46.1525 C.2       13 UNK         0.5000 
     78 O           0.6098  -26.5251  -46.1303 O.2       13 UNK        -0.5000 
     79 N          -0.6188  -24.8915  -47.1136 N.am      14 UNK        -0.5000 
     80 CA         -1.1670  -25.6764  -48.2209 C.3       14 UNK         0.1400 
     81 CB         -0.6590  -25.0927  -49.5517 C.3       14 UNK        -0.1800 
     82 C          -2.7057  -25.7010  -48.1662 C.2       14 UNK         0.5000 
     83 O          -3.3371  -26.0527  -49.1622 O.2       14 UNK        -0.5000 
     84 N          -3.2882  -25.2930  -47.0260 N.am      15 UNK        -0.5000 
     85 CA         -4.7253  -25.2037  -46.7392 C.3       15 UNK         0.1400 
     86 CB         -5.3070  -26.6187  -46.5433 C.3       15 UNK        -0.1800 
     87 C          -5.5257  -24.3712  -47.7679 C.2       15 UNK         0.5000 
     88 O          -6.6976  -24.6648  -48.0107 O.2       15 UNK        -0.5000 
     89 N          -4.8676  -23.3684  -48.3717 N.am      16 UNK        -0.5000 
     90 CA         -5.3669  -22.4882  -49.4328 C.3       16 UNK         0.1400 
     91 CB         -6.5873  -21.6758  -48.9474 C.3       16 UNK        -0.1800 
     92 C          -5.6293  -23.2074  -50.7766 C.2       16 UNK         0.5000 
     93 O          -6.3158  -22.6501  -51.6332 O.2       16 UNK        -0.5000 
     94 N          -5.0674  -24.4112  -50.9682 N.am      17 UNK        -0.5000 
     95 CA         -5.1925  -25.1921  -52.2043 C.3       17 UNK         0.1400 
     96 CB         -5.0629  -26.6864  -51.8702 C.3       17 UNK        -0.1800 
     97 C          -4.1625  -24.7895  -53.2794 C.2       17 UNK         0.5000 
     98 O          -4.2751  -25.2383  -54.4217 O.2       17 UNK        -0.5000 
     99 N          -3.1702  -23.9702  -52.9050 N.am      18 UNK        -0.5000 
    100 CA        -2.0959  -23.4706  -53.7616 C.3       18 UNK         0.1400 
    101 CB        -0.9667  -22.9329  -52.8670 C.3       18 UNK        -0.1800 
    102 C         -2.5998  -22.4001  -54.7488 C.2       18 UNK         0.5000 
    103 O         -2.3428  -21.2108  -54.5548 O.2       18 UNK        -0.5000 
    104 N         -3.3088  -22.8383  -55.7968 N.am      19 UNK        -0.5000 
    105 CA        -3.9141  -22.0018  -56.8398 C.3       19 UNK         0.1400 
    106 CB        -4.6174  -22.9050  -57.8631 C.3       19 UNK        -0.1800 
    107 C         -2.9285  -21.0506  -57.5487 C.2       19 UNK         0.5000 
    108 O         -3.3087  -19.9317  -57.8951 O.2       19 UNK        -0.5000 
    109 N         -1.6728  -21.4923  -57.7057 N.am      20 UNK        -0.5000 
    110 CA        -0.5735  -20.7085  -58.2728 C.3       20 UNK         0.1400 
    111 CB         0.6279  -21.6347  -58.5154 C.3       20 UNK        -0.1800 
    112 C         -0.1596  -19.5061  -57.4001 C.2       20 UNK         0.5000 
    113 O          0.2710  -18.4887  -57.9444 O.2       20 UNK        -0.5000 
    114 N         -0.3037  -19.6363  -56.0738 N.am      21 UNK        -0.5000 
    115 CA        -0.0781  -18.5578  -55.1104 C.3       21 UNK         0.1400 
    116 CB         0.3798  -19.1625  -53.7726 C.3       21 UNK        -0.1800 
    117 C         -1.3473  -17.7052  -54.9246 C.2       21 UNK         0.5000 
    118 O         -1.2432  -16.4971  -54.7123 O.2       21 UNK        -0.5000 
    119 N         -2.5151  -18.3551  -55.0082 N.am      22 UNK        -0.5000 
    120 CA        -3.8516  -17.7470  -54.9398 C.3       22 UNK         0.1400 
    121 C         -4.1587  -16.7807  -56.1178 C.2       22 UNK         0.5000 
    122 N         -3.8397  -17.1518  -57.3519 N.am      22 UNK        -0.7600 
    123 O         -4.6818  -15.6891  -55.9124 O.2       22 UNK        -0.5000 
    124 C124       -4.9445  -18.8438  -54.8070 C.3       23 UNK        -0.0398 
    125 S125       -6.2593  -18.4342  -53.6128 S.3       23 UNK        -0.2404 
    126 C126       -5.7777  -19.4428  -52.1707 C.3       23 UNK        -0.0205 
    127 H127       -1.3313  -11.1827  -50.2122 H         1 UNK         0.0600 
    128 H128       -1.8883  -12.6922  -50.9400 H         1 UNK         0.0600 
    129 H129       -0.8450  -11.6033  -51.8579 H         1 UNK         0.0600 
    130 H130       -0.8019  -14.4550  -50.1232 H         1 UNK         0.3000 
    131 H131        2.1241  -14.4157  -49.7944 H         1 UNK         0.0600 
    132 H132        1.1114  -16.2206  -51.1688 H         1 UNK         0.0800 
    133 H133        2.0144  -16.8189  -49.8166 H         1 UNK         0.0800 
    134 H134       -1.1110  -17.6558  -51.7636 H         1 UNK         0.0800 
    135 H135       -1.5121  -16.0413  -51.2339 H         1 UNK         0.0800 
    136 H136       -3.1627  -18.6879  -52.3401 H         1 UNK         0.1150 
    137 H137       -6.5788  -18.4424  -49.7625 H         1 UNK         0.1150 
    138 H138       -2.9526  -16.4314  -48.7025 H         1 UNK         0.1150 
    139 H139       -4.9027  -16.1243  -47.3444 H         1 UNK         0.0800 
    140 H140       -6.4624  -16.5814  -47.9780 H         1 UNK         0.0800 
    141 H141       -3.5889  -18.5919  -45.2105 H         1 UNK         0.0800 
    142 H142       -3.2025  -17.9880  -46.7788 H         1 UNK         0.0800 
    143 H143       -4.1781  -20.4399  -47.5530 H         1 UNK         0.0600 
    144 H144       -1.6141  -19.3633  -47.3563 H         1 UNK         0.3000 
    145 H145        0.4371  -22.0958  -47.9195 H         1 UNK         0.0600 
    146 H146        1.1950  -20.8446  -49.9901 H         1 UNK         0.0600 
    147 H147       -0.1718  -21.9069  -50.2602 H         1 UNK         0.0600 
    148 H148       -0.4305  -20.1729  -50.1407 H         1 UNK         0.0600 
    149 H149        0.9412  -19.3053  -48.0997 H         1 UNK         0.3000 
    150 H150        2.0761  -18.2877  -46.3059 H         1 UNK         0.0600 
    151 H151       -0.7067  -17.9293  -45.0329 H         1 UNK         0.0600 
    152 H152       -0.2466  -17.4130  -46.6489 H         1 UNK         0.0600 
    153 H153        0.5085  -16.6679  -45.2556 H         1 UNK         0.0600 
    154 H154        1.1939  -18.3394  -43.5702 H         1 UNK         0.3000 
    155 H155        3.2999  -20.4240  -42.0923 H         1 UNK         0.0600 
    156 H156        4.4857  -17.6188  -42.4219 H         1 UNK         0.0600 
    157 H157        5.3396  -19.1361  -42.6628 H         1 UNK         0.0600 
    158 H158        4.7705  -18.7006  -41.0605 H         1 UNK         0.0600 
    159 H159        2.0821  -17.7170  -41.6896 H         1 UNK         0.3000 
    160 H160       -0.7587  -19.1159  -40.0900 H         1 UNK         0.0600 
    161 H161        1.5903  -17.7327  -38.7020 H         1 UNK         0.0600 
    162 H162        0.7232  -19.1554  -38.1476 H         1 UNK         0.0600 
    163 H163       -0.0935  -17.5995  -38.1920 H         1 UNK         0.0600 
    164 H164        0.2707  -16.4269  -40.4690 H         1 UNK         0.3000 
    165 H165       -0.5369  -15.8606  -43.5073 H         1 UNK         0.0600 
    166 H166       -2.6991  -14.6156  -43.5443 H         1 UNK         0.0600 
    167 H167       -3.2786  -15.5913  -42.1937 H         1 UNK         0.0600 
    168 H168       -2.9243  -16.3448  -43.7398 H         1 UNK         0.0600 
    169 H169        0.2652  -14.2950  -42.2594 H         1 UNK         0.3000 
    170 H170       -0.3471  -12.1095  -40.8243 H         1 UNK         0.0600 
    171 H171       -1.5127  -12.2410  -38.6575 H         1 UNK         0.0600 
    172 H172       -0.3556  -13.4156  -38.0499 H         1 UNK         0.0600 
    173 H173        0.1565  -11.7640  -38.3941 H         1 UNK         0.0600 
    174 H174        1.8006  -12.6529  -40.9648 H         1 UNK         0.3000 
    175 H175        3.9776  -13.6721  -39.7381 H         1 UNK         0.0600 
    176 H176        3.4842  -16.6658  -40.1637 H         1 UNK         0.0600 
    177 H177        5.0735  -15.9086  -40.0857 H         1 UNK         0.0600 
    178 H178        4.0188  -15.8930  -38.6810 H         1 UNK         0.0600 
    179 H179        4.2667  -13.5506  -41.9273 H         1 UNK         0.3000 
    180 H180        3.9183  -13.5826  -44.0619 H         1 UNK         0.0600 
    181 H181        3.9830  -16.5617  -44.7945 H         1 UNK         0.0600 
    182 H182        5.3141  -15.6776  -44.0548 H         1 UNK         0.0600 
    183 H183        4.7760  -15.2576  -45.6743 H         1 UNK         0.0600 
    184 H184        2.2964  -15.0664  -45.8122 H         1 UNK         0.3000 
    185 H185       -0.4546  -14.7238  -45.6401 H         1 UNK         0.0600 
    186 H186       -1.7985  -12.8272  -46.4263 H         1 UNK         0.0600 
    187 H187       -1.3597  -12.6156  -44.7437 H         1 UNK         0.0600 
    188 H188       -0.5123  -11.7022  -45.9878 H         1 UNK         0.0600 
    189 H189        0.0073  -13.2457  -47.9032 H         1 UNK         0.3000 
    190 H190       -1.6999  -20.9378  -45.0773 H         1 UNK         0.3000 
    191 H191       -3.4899  -22.7347  -43.4946 H         1 UNK         0.0600 
    192 H192       -1.7530  -22.4406  -41.7209 H         1 UNK         0.0600 
    193 H193       -2.4725  -20.9046  -42.1801 H         1 UNK         0.0600 
    194 H194       -0.8657  -21.3281  -42.7569 H         1 UNK         0.0600 
    195 H195       -0.1496  -22.4234  -44.8294 H         1 UNK         0.3000 
    196 H196        0.6697  -25.0146  -44.1066 H         1 UNK         0.0600 
    197 H197        1.8416  -23.0981  -46.1912 H         1 UNK         0.0600 
    198 H198        2.1997  -23.0880  -44.4669 H         1 UNK         0.0600 
    199 H199        2.6834  -24.4567  -45.4572 H         1 UNK         0.0600 
    200 H200       -0.9471  -23.9356  -47.0538 H         1 UNK         0.3000 
    201 H201       -0.8387  -26.7155  -48.1595 H         1 UNK         0.0600 
    202 H202       -1.0555  -24.0942  -49.7311 H         1 UNK         0.0600 
    203 H203       -0.9596  -25.7175  -50.3936 H         1 UNK         0.0600 
    204 H204        0.4291  -25.0305  -49.5672 H         1 UNK         0.0600 
    205 H205       -2.6827  -25.0488  -46.2529 H         1 UNK         0.3000 
    206 H206       -4.8133  -24.6733  -45.7899 H         1 UNK         0.0600 
    207 H207       -4.7409  -27.1771  -45.7978 H         1 UNK         0.0600 
    208 H208       -6.3402  -26.5759  -46.1971 H         1 UNK         0.0600 
    209 H209       -5.2946  -27.1903  -47.4720 H         1 UNK         0.0600 
    210 H210       -3.8961  -23.2176  -48.1144 H         1 UNK         0.3000 
    211 H211       -4.5620  -21.7790  -49.6308 H         1 UNK         0.0600 
    212 H212       -6.8403  -20.8866  -49.6527 H         1 UNK         0.0600 
    213 H213       -6.3943  -21.1991  -47.9867 H         1 UNK         0.0600 
    214 H214       -7.4739  -22.3000  -48.8372 H         1 UNK         0.0600 
    215 H215       -4.5234  -24.8362  -50.2226 H         1 UNK         0.3000 
    216 H216       -6.1861  -25.0317  -52.6278 H         1 UNK         0.0600 
    217 H217       -4.0558  -26.9396  -51.5380 H         1 UNK         0.0600 
    218 H218       -5.2805  -27.3010  -52.7445 H         1 UNK         0.0600 
    219 H219       -5.7600  -26.9793  -51.0847 H         1 UNK         0.0600 
    220 H220       -3.1711  -23.6451  -51.9505 H         1 UNK         0.3000 
    221 H221       -1.6951  -24.3024  -54.3444 H         1 UNK         0.0600 
    222 H222       -0.5711  -23.7121  -52.2160 H         1 UNK         0.0600 
    223 H223       -1.3154  -22.1106  -52.2418 H         1 UNK         0.0600 
    224 H224       -0.1354  -22.5590  -53.4662 H         1 UNK         0.0600 
    225 H225       -3.5326  -23.8266  -55.8236 H         1 UNK         0.3000 
    226 H226       -4.6744  -21.3852  -56.3590 H         1 UNK         0.0600 
    227 H227       -3.9148  -23.5798  -58.3538 H         1 UNK         0.0600 
    228 H228       -5.3895  -23.5114  -57.3888 H         1 UNK         0.0600 
    229 H229       -5.1025  -22.3127  -58.6402 H         1 UNK         0.0600 
    230 H230       -1.4516  -22.4252  -57.3903 H         1 UNK         0.3000 
    231 H231       -0.9032  -20.3167  -59.2374 H         1 UNK         0.0600 
    232 H232        0.9888  -22.0779  -57.5864 H         1 UNK         0.0600 
    233 H233        1.4589  -21.0874  -58.9625 H         1 UNK         0.0600 
    234 H234        0.3703  -22.4452  -59.1975 H         1 UNK         0.0600 
    235 H235       -0.7149  -20.4851  -55.7069 H         1 UNK         0.3000 
    236 H236        0.7191  -17.9061  -55.4743 H         1 UNK         0.0600 
    237 H237        1.2373  -19.8213  -53.9101 H         1 UNK         0.0600 
    238 H238        0.6858  -18.3796  -53.0785 H         1 UNK         0.0600 
    239 H239       -0.4113  -19.7401  -53.2928 H         1 UNK         0.0600 
    240 H240       -2.4865  -19.3632  -55.1146 H         1 UNK         0.3000 
    241 H241       -3.8565  -17.1383  -54.0339 H         1 UNK         0.0600 
    242 H242       -4.0284  -16.5303  -58.1218 H         1 UNK         0.3800 
    243 H243       -3.4802  -18.0851  -57.5368 H         1 UNK         0.3800 
    244 H244       -4.5032  -19.7902  -54.5002 H         1 UNK         0.0800 
    245 H245       -5.4127  -19.0626  -55.7685 H         1 UNK         0.0800 
    246 H246       -5.2226  -20.3306  -52.4745 H         1 UNK         0.0800 
    247 H247       -6.6918  -19.8102  -51.7041 H         1 UNK         0.0800 
@<TRIPOS>BOND
     1    1    2 1    
     2    1  127 1    
     3    1  128 1    
     4    1  129 1    
     5    2    3 2    
     6    2    4 am   BACKBONE|DICT|INTERRES
     7    4    5 1    
     8    4  130 1    
     9    5    6 1    
    10    5   65 1    
    11    5  131 1    
    12    6    7 1    
    13    6  132 1    
    14    6  133 1    
    15    7    8 1    
    16    8    9 1    
    17    8  134 1    
    18    8  135 1    
    19    9   10 ar   
    20    9   14 ar   
    21   10   11 ar   
    22   10  136 1    
    23   11   12 ar   
    24   11  126 1    
    25   12   13 ar   
    26   12  137 1    
    27   13   14 ar   
    28   13   15 1    
    29   14  138 1    
    30   15   16 1    
    31   15  139 1    
    32   15  140 1    
    33   16   17 1    
    34   17   18 1    
    35   17  141 1    
    36   17  142 1    
    37   18   19 1    
    38   18   67 1    
    39   18  143 1    
    40   19   20 am   BACKBONE|DICT|INTERRES
    41   19  144 1    
    42   20   21 2    
    43   20   22 1    
    44   22   23 1    
    45   22   24 1    
    46   22  145 1    
    47   23  146 1    
    48   23  147 1    
    49   23  148 1    
    50   24   25 am   BACKBONE|DICT|INTERRES
    51   24  149 1    
    52   25   26 2    
    53   25   27 1    
    54   27   28 1    
    55   27   29 1    
    56   27  150 1    
    57   28  151 1    
    58   28  152 1    
    59   28  153 1    
    60   29   30 am   BACKBONE|DICT|INTERRES
    61   29  154 1    
    62   30   31 2    
    63   30   32 1    
    64   32   33 1    
    65   32   34 1    
    66   32  155 1    
    67   33  156 1    
    68   33  157 1    
    69   33  158 1    
    70   34   35 am   BACKBONE|DICT|INTERRES
    71   34  159 1    
    72   35   36 2    
    73   35   37 1    
    74   37   38 1    
    75   37   39 1    
    76   37  160 1    
    77   38  161 1    
    78   38  162 1    
    79   38  163 1    
    80   39   40 am   BACKBONE|DICT|INTERRES
    81   39  164 1    
    82   40   41 2    
    83   40   42 1    
    84   42   43 1    
    85   42   44 1    
    86   42  165 1    
    87   43  166 1    
    88   43  167 1    
    89   43  168 1    
    90   44   45 am   BACKBONE|DICT|INTERRES
    91   44  169 1    
    92   45   46 2    
    93   45   47 1    
    94   47   48 1    
    95   47   49 1    
    96   47  170 1    
    97   48  171 1    
    98   48  172 1    
    99   48  173 1    
   100   49   50 am   BACKBONE|DICT|INTERRES
   101   49  174 1    
   102   50   51 2    
   103   50   52 1    
   104   52   53 1    
   105   52   54 1    
   106   52  175 1    
   107   53  176 1    
   108   53  177 1    
   109   53  178 1    
   110   54   55 am   BACKBONE|DICT|INTERRES
   111   54  179 1    
   112   55   56 2    
   113   55   57 1    
   114   57   58 1    
   115   57   59 1    
   116   57  180 1    
   117   58  181 1    
   118   58  182 1    
   119   58  183 1    
   120   59   60 am   BACKBONE|DICT|INTERRES
   121   59  184 1    
   122   60   61 2    
   123   60   62 1    
   124   62   63 1    
   125   62   64 1    
   126   62  185 1    
   127   63  186 1    
   128   63  187 1    
   129   63  188 1    
   130   64   65 am   BACKBONE|DICT|INTERRES
   131   64  189 1    
   132   65   66 2    
   133   67   68 2    
   134   67   69 am   BACKBONE|DICT|INTERRES
   135   69   70 1    
   136   69  190 1    
   137   70   71 1    
   138   70   72 1    
   139   70  191 1    
   140   71  192 1    
   141   71  193 1    
   142   71  194 1    
   143   72   73 2    
   144   72   74 am   BACKBONE|DICT|INTERRES
   145   74   75 1    
   146   74  195 1    
   147   75   76 1    
   148   75   77 1    
   149   75  196 1    
   150   76  197 1    
   151   76  198 1    
   152   76  199 1    
   153   77   78 2    
   154   77   79 am   BACKBONE|DICT|INTERRES
   155   79   80 1    
   156   79  200 1    
   157   80   81 1    
   158   80   82 1    
   159   80  201 1    
   160   81  202 1    
   161   81  203 1    
   162   81  204 1    
   163   82   83 2    
   164   82   84 am   BACKBONE|DICT|INTERRES
   165   84   85 1    
   166   84  205 1    
   167   85   86 1    
   168   85   87 1    
   169   85  206 1    
   170   86  207 1    
   171   86  208 1    
   172   86  209 1    
   173   87   88 2    
   174   87   89 am   BACKBONE|DICT|INTERRES
   175   89   90 1    
   176   89  210 1    
   177   90   91 1    
   178   90   92 1    
   179   90  211 1    
   180   91  212 1    
   181   91  213 1    
   182   91  214 1    
   183   92   93 2    
   184   92   94 am   BACKBONE|DICT|INTERRES
   185   94   95 1    
   186   94  215 1    
   187   95   96 1    
   188   95   97 1    
   189   95  216 1    
   190   96  217 1    
   191   96  218 1    
   192   96  219 1    
   193   97   98 2    
   194   97   99 am   BACKBONE|DICT|INTERRES
   195   99  100 1    
   196   99  220 1    
   197  100  101 1    
   198  100  102 1    
   199  100  221 1    
   200  101  222 1    
   201  101  223 1    
   202  101  224 1    
   203  102  103 2    
   204  102  104 am   BACKBONE|DICT|INTERRES
   205  104  105 1    
   206  104  225 1    
   207  105  106 1    
   208  105  107 1    
   209  105  226 1    
   210  106  227 1    
   211  106  228 1    
   212  106  229 1    
   213  107  108 2    
   214  107  109 am   BACKBONE|DICT|INTERRES
   215  109  110 1    
   216  109  230 1    
   217  110  111 1    
   218  110  112 1    
   219  110  231 1    
   220  111  232 1    
   221  111  233 1    
   222  111  234 1    
   223  112  113 2    
   224  112  114 am   BACKBONE|DICT|INTERRES
   225  114  115 1    
   226  114  235 1    
   227  115  116 1    
   228  115  117 1    
   229  115  236 1    
   230  116  237 1    
   231  116  238 1    
   232  116  239 1    
   233  117  118 2    
   234  117  119 am   BACKBONE|DICT|INTERRES
   235  119  120 1    
   236  119  240 1    
   237  120  121 1    
   238  120  124 1    
   239  120  241 1    
   240  121  122 am   BACKBONE|DICT|INTERRES
   241  121  123 2    
   242  122  242 1    
   243  122  243 1    
   244  124  125 1    
   245  124  244 1    
   246  124  245 1    
   247  125  126 1    
   248  126  246 1    
   249  126  247 1    
@<TRIPOS>SUBSTRUCTURE
     1 UNK         1 GROUP             0       ****    0 ROOT    
