@<TRIPOS>MOLECULE
3R540
247   249    1
SMALL
USER_CHARGES


@<TRIPOS>ATOM
      1 CA          4.8391  -16.1839  -49.1586 C.3       0 UNK        -0.1800 
      2 C           4.4664  -14.8567  -48.5135 C.2       0 UNK         0.5000 
      3 O           4.9606  -13.8117  -48.9347 O.2       0 UNK        -0.5000 
      4 N           3.5978  -14.9002  -47.4931 N.am      1 UNK        -0.5000 
      5 CA          3.0783  -13.7500  -46.7323 C.3       1 UNK         0.1400 
      6 C6          2.1825  -12.7952  -47.5660 C.3       23 UNK        -0.0398 
      7 S7          0.6816  -13.6517  -48.1480 S.3       23 UNK        -0.2404 
      8 C8          1.0817  -13.9444  -49.8945 C.3       23 UNK        -0.0205 
      9 C9          0.3954  -15.2009  -50.3999 C.ar      23 UNK        -0.0193 
     10 C10        -0.9001  -15.1351  -50.9155 C.ar      23 UNK        -0.1150 
     11 C11        -1.5244  -16.2823  -51.4103 C.ar      23 UNK        -0.0193 
     12 C12        -0.8423  -17.5033  -51.3856 C.ar      23 UNK        -0.1150 
     13 C13         0.4524  -17.5859  -50.8592 C.ar      23 UNK        -0.0193 
     14 C14         1.0617  -16.4289  -50.3651 C.ar      23 UNK        -0.1150 
     15 C15         1.2287  -18.8994  -50.8747 C.3       23 UNK        -0.0205 
     16 S16         0.2777  -20.3257  -50.2576 S.3       23 UNK        -0.2404 
     17 C17         0.1376  -19.9608  -48.4728 C.3       23 UNK        -0.0398 
     18 CA         -0.0151  -21.2446  -47.6159 C.3       11 UNK         0.1400 
     19 N           0.1440  -20.9851  -46.1807 N.am      11 UNK        -0.5000 
     20 C           0.1846  -21.9348  -45.2326 C.2       10 UNK         0.5000 
     21 O           0.1744  -23.1406  -45.4736 O.2       10 UNK        -0.5000 
     22 CA          0.1670  -21.4689  -43.7653 C.3       10 UNK         0.1400 
     23 CB          1.5760  -21.0827  -43.2940 C.3       10 UNK        -0.1800 
     24 N          -0.7674  -20.3640  -43.5415 N.am      10 UNK        -0.5000 
     25 C          -2.0951  -20.4590  -43.7106 C.2       9 UNK         0.5000 
     26 O          -2.6695  -21.5069  -44.0023 O.2       9 UNK        -0.5000 
     27 CA         -2.9167  -19.1640  -43.5857 C.3       9 UNK         0.1400 
     28 CB         -3.2544  -18.8702  -42.1169 C.3       9 UNK        -0.1800 
     29 N          -2.2438  -18.0103  -44.1829 N.am      9 UNK        -0.5000 
     30 C          -1.9561  -17.8854  -45.4872 C.2       8 UNK         0.5000 
     31 O          -2.2841  -18.7115  -46.3393 O.2       8 UNK        -0.5000 
     32 CA         -1.1046  -16.6653  -45.8924 C.3       8 UNK         0.1400 
     33 CB         -1.9696  -15.3989  -45.9702 C.3       8 UNK        -0.1800 
     34 N           0.0124  -16.4524  -44.9672 N.am      8 UNK        -0.5000 
     35 C           1.0199  -17.3214  -44.8003 C.2       7 UNK         0.5000 
     36 O           1.1666  -18.3274  -45.4939 O.2       7 UNK        -0.5000 
     37 CA          1.9914  -17.0669  -43.6330 C.3       7 UNK         0.1400 
     38 CB          3.2080  -16.2372  -44.0599 C.3       7 UNK        -0.1800 
     39 N           1.3339  -16.4282  -42.4943 N.am      7 UNK        -0.5000 
     40 C           0.5513  -17.0801  -41.6248 C.2       6 UNK         0.5000 
     41 O           0.3380  -18.2909  -41.6758 O.2       6 UNK        -0.5000 
     42 CA         -0.1440  -16.2274  -40.5489 C.3       6 UNK         0.1400 
     43 CB          0.7818  -16.0088  -39.3436 C.3       6 UNK        -0.1800 
     44 N          -0.5930  -14.9343  -41.0697 N.am      6 UNK        -0.5000 
     45 C          -1.5907  -14.7983  -41.9556 C.2       5 UNK         0.5000 
     46 O          -2.2364  -15.7470  -42.3980 O.2       5 UNK        -0.5000 
     47 CA         -1.9039  -13.3805  -42.4684 C.3       5 UNK         0.1400 
     48 CB         -2.9888  -12.7259  -41.6009 C.3       5 UNK        -0.1800 
     49 N          -0.7430  -12.4928  -42.5347 N.am      5 UNK        -0.5000 
     50 C           0.3693  -12.7089  -43.2491 C.2       4 UNK         0.5000 
     51 O           0.5667  -13.7264  -43.9183 O.2       4 UNK        -0.5000 
     52 CA          1.4655  -11.6252  -43.1889 C.3       4 UNK         0.1400 
     53 CB          1.1124  -10.4022  -42.3122 C.3       4 UNK        -0.1800 
     54 N           2.7535  -12.1881  -42.7796 N.am      4 UNK        -0.5000 
     55 C           3.0228  -12.8681  -41.6534 C.2       3 UNK         0.5000 
     56 O           2.1828  -13.0966  -40.7815 O.2       3 UNK        -0.5000 
     57 CA          4.4589  -13.4102  -41.4934 C.3       3 UNK         0.1400 
     58 CB          4.4915  -14.7277  -40.6972 C.3       3 UNK        -0.1800 
     59 N           5.0827  -13.6283  -42.8005 N.am      3 UNK        -0.5000 
     60 C           6.0294  -12.8615  -43.3557 C.2       2 UNK         0.5000 
     61 O           6.5692  -11.9115  -42.7887 O.2       2 UNK        -0.5000 
     62 CA          6.4011  -13.1932  -44.8147 C.3       2 UNK         0.1400 
     63 CB          7.5492  -14.2126  -44.8603 C.3       2 UNK        -0.1800 
     64 N           5.2723  -13.7081  -45.5988 N.am      2 UNK        -0.5000 
     65 C           4.1711  -13.0105  -45.9212 C.2       1 UNK         0.5000 
     66 O           3.9869  -11.8484  -45.5572 O.2       1 UNK        -0.5000 
     67 C          -1.3398  -21.9824  -47.9084 C.2       11 UNK         0.5000 
     68 O          -1.3200  -23.0170  -48.5747 O.2       11 UNK        -0.5000 
     69 N          -2.4525  -21.4723  -47.3612 N.am      12 UNK        -0.5000 
     70 CA         -3.7850  -22.0651  -47.4940 C.3       12 UNK         0.1400 
     71 CB         -4.8303  -21.1178  -46.8886 C.3       12 UNK        -0.1800 
     72 C          -3.9019  -23.4780  -46.8907 C.2       12 UNK         0.5000 
     73 O          -4.6270  -24.3069  -47.4381 O.2       12 UNK        -0.5000 
     74 N          -3.1823  -23.7370  -45.7921 N.am      13 UNK        -0.5000 
     75 CA         -3.0858  -25.0536  -45.1655 C.3       13 UNK         0.1400 
     76 CB         -2.5386  -24.8997  -43.7379 C.3       13 UNK        -0.1800 
     77 C          -2.2203  -26.0347  -45.9792 C.2       13 UNK         0.5000 
     78 O          -2.5874  -27.2039  -46.1034 O.2       13 UNK        -0.5000 
     79 N          -1.0817  -25.5536  -46.4964 N.am      14 UNK        -0.5000 
     80 CA         -0.1038  -26.3528  -47.2341 C.3       14 UNK         0.1400 
     81 CB          1.2352  -25.6007  -47.2852 C.3       14 UNK        -0.1800 
     82 C          -0.5606  -26.7266  -48.6546 C.2       14 UNK         0.5000 
     83 O          -0.3321  -27.8595  -49.0819 O.2       14 UNK        -0.5000 
     84 N          -1.1642  -25.7703  -49.3717 N.am      15 UNK        -0.5000 
     85 CA         -1.6090  -25.9311  -50.7541 C.3       15 UNK         0.1400 
     86 CB         -1.9673  -24.5531  -51.3323 C.3       15 UNK        -0.1800 
     87 C          -2.8086  -26.8866  -50.8695 C.2       15 UNK         0.5000 
     88 O          -3.8055  -26.7032  -50.1689 O.2       15 UNK        -0.5000 
     89 N          -2.7247  -27.8460  -51.8013 N.am      16 UNK        -0.5000 
     90 CA         -3.7974  -28.7980  -52.1170 C.3       16 UNK         0.1400 
     91 CB         -3.2475  -29.8836  -53.0544 C.3       16 UNK        -0.1800 
     92 C          -5.0412  -28.1276  -52.7361 C.2       16 UNK         0.5000 
     93 O          -6.1539  -28.6258  -52.5662 O.2       16 UNK        -0.5000 
     94 N          -4.8281  -26.9885  -53.4088 N.am      17 UNK        -0.5000 
     95 CA         -5.8663  -26.1149  -53.9580 C.3       17 UNK         0.1400 
     96 CB         -5.2728  -25.3527  -55.1556 C.3       17 UNK        -0.1800 
     97 C          -6.4401  -25.1288  -52.9170 C.2       17 UNK         0.5000 
     98 O          -7.2372  -24.2683  -53.2891 O.2       17 UNK        -0.5000 
     99 N          -5.9940  -25.2180  -51.6527 N.am      18 UNK        -0.5000 
    100 CA        -6.3630  -24.3656  -50.5136 C.3       18 UNK         0.1400 
    101 CB        -7.8482  -24.5590  -50.1440 C.3       18 UNK        -0.1800 
    102 C         -5.9865  -22.8787  -50.7015 C.2       18 UNK         0.5000 
    103 O         -6.5944  -22.0057  -50.0810 O.2       18 UNK        -0.5000 
    104 N         -4.9968  -22.6259  -51.5720 N.am      19 UNK        -0.5000 
    105 CA        -4.5270  -21.3200  -52.0420 C.3       19 UNK         0.1400 
    106 CB        -3.8337  -20.5300  -50.9125 C.3       19 UNK        -0.1800 
    107 C         -5.6127  -20.5073  -52.7812 C.2       19 UNK         0.5000 
    108 O         -5.5773  -19.2752  -52.7552 O.2       19 UNK        -0.5000 
    109 N         -6.5400  -21.2002  -53.4634 N.am      20 UNK        -0.5000 
    110 CA        -7.5337  -20.6072  -54.3612 C.3       20 UNK         0.1400 
    111 CB        -8.4687  -21.7035  -54.8926 C.3       20 UNK        -0.1800 
    112 C         -6.8403  -19.8647  -55.5177 C.2       20 UNK         0.5000 
    113 O         -6.0460  -20.4734  -56.2401 O.2       20 UNK        -0.5000 
    114 N         -7.0816  -18.5480  -55.6042 N.am      21 UNK        -0.5000 
    115 CA        -6.4022  -17.5834  -56.4838 C.3       21 UNK         0.1400 
    116 CB        -6.7944  -17.8262  -57.9561 C.3       21 UNK        -0.1800 
    117 C         -4.8678  -17.5336  -56.2789 C.2       21 UNK         0.5000 
    118 O         -4.1374  -17.1465  -57.1926 O.2       21 UNK        -0.5000 
    119 N         -4.4124  -17.9497  -55.0886 N.am      22 UNK        -0.5000 
    120 CA        -3.0096  -18.1610  -54.7013 C.3       22 UNK         0.1400 
    121 C         -2.2947  -19.3122  -55.4731 C.2       22 UNK         0.5000 
    122 N         -3.0145  -20.2358  -56.1026 N.am      22 UNK        -0.7600 
    123 O         -1.0699  -19.3954  -55.4762 O.2       22 UNK        -0.5000 
    124 C124       -2.1766  -16.8497  -54.6369 C.3       23 UNK        -0.0398 
    125 S125       -2.9682  -15.5200  -53.6611 S.3       23 UNK        -0.2404 
    126 C126       -2.9364  -16.1916  -51.9666 C.3       23 UNK        -0.0205 
    127 H127        4.5992  -16.1645  -50.2218 H         1 UNK         0.0600 
    128 H128        4.3071  -17.0207  -48.7051 H         1 UNK         0.0600 
    129 H129        5.9090  -16.3640  -49.0535 H         1 UNK         0.0600 
    130 H130        3.2172  -15.7956  -47.2231 H         1 UNK         0.3000 
    131 H131        2.4226  -14.1792  -45.9763 H         1 UNK         0.0600 
    132 H132        1.8410  -11.9551  -46.9592 H         1 UNK         0.0800 
    133 H133        2.7310  -12.3603  -48.4023 H         1 UNK         0.0800 
    134 H134        0.7739  -13.0795  -50.4840 H         1 UNK         0.0800 
    135 H135        2.1589  -14.0368  -50.0312 H         1 UNK         0.0800 
    136 H136       -1.4208  -14.1879  -50.9393 H         1 UNK         0.1150 
    137 H137       -1.3146  -18.3902  -51.7825 H         1 UNK         0.1150 
    138 H138        2.0645  -16.4783  -49.9677 H         1 UNK         0.1150 
    139 H139        1.5278  -19.1047  -51.9033 H         1 UNK         0.0800 
    140 H140        2.1521  -18.8154  -50.2995 H         1 UNK         0.0800 
    141 H141       -0.6984  -19.2773  -48.3222 H         1 UNK         0.0800 
    142 H142        1.0313  -19.4188  -48.1602 H         1 UNK         0.0800 
    143 H143        0.7958  -21.9217  -47.8935 H         1 UNK         0.0600 
    144 H144        0.2116  -20.0125  -45.8978 H         1 UNK         0.3000 
    145 H145       -0.1697  -22.3093  -43.1547 H         1 UNK         0.0600 
    146 H146        1.5703  -20.7463  -42.2571 H         1 UNK         0.0600 
    147 H147        2.0048  -20.2902  -43.9051 H         1 UNK         0.0600 
    148 H148        2.2502  -21.9379  -43.3545 H         1 UNK         0.0600 
    149 H149       -0.3746  -19.4849  -43.2254 H         1 UNK         0.3000 
    150 H150       -3.8548  -19.3146  -44.1234 H         1 UNK         0.0600 
    151 H151       -3.7710  -19.7144  -41.6586 H         1 UNK         0.0600 
    152 H152       -3.9086  -18.0026  -42.0297 H         1 UNK         0.0600 
    153 H153       -2.3587  -18.6736  -41.5277 H         1 UNK         0.0600 
    154 H154       -1.9999  -17.2532  -43.5503 H         1 UNK         0.3000 
    155 H155       -0.6864  -16.8530  -46.8840 H         1 UNK         0.0600 
    156 H156       -2.6944  -15.4777  -46.7812 H         1 UNK         0.0600 
    157 H157       -1.3647  -14.5122  -46.1576 H         1 UNK         0.0600 
    158 H158       -2.5288  -15.2326  -45.0504 H         1 UNK         0.0600 
    159 H159       -0.0026  -15.6055  -44.4093 H         1 UNK         0.3000 
    160 H160        2.3658  -18.0420  -43.3161 H         1 UNK         0.0600 
    161 H161        2.9715  -15.1759  -44.0867 H         1 UNK         0.0600 
    162 H162        3.5717  -16.5370  -45.0432 H         1 UNK         0.0600 
    163 H163        4.0316  -16.3792  -43.3609 H         1 UNK         0.0600 
    164 H164        1.3922  -15.4215  -42.4302 H         1 UNK         0.3000 
    165 H165       -1.0215  -16.7788  -40.2042 H         1 UNK         0.0600 
    166 H166        0.2797  -15.4449  -38.5574 H         1 UNK         0.0600 
    167 H167        1.0916  -16.9620  -38.9132 H         1 UNK         0.0600 
    168 H168        1.6856  -15.4664  -39.6201 H         1 UNK         0.0600 
    169 H169       -0.0763  -14.1147  -40.7783 H         1 UNK         0.3000 
    170 H170       -2.2949  -13.4776  -43.4824 H         1 UNK         0.0600 
    171 H171       -2.6440  -12.5655  -40.5786 H         1 UNK         0.0600 
    172 H172       -3.2932  -11.7619  -42.0089 H         1 UNK         0.0600 
    173 H173       -3.8808  -13.3522  -41.5521 H         1 UNK         0.0600 
    174 H174       -0.8007  -11.6422  -41.9942 H         1 UNK         0.3000 
    175 H175        1.5929  -11.2712  -44.2127 H         1 UNK         0.0600 
    176 H176        0.9599  -10.6728  -41.2667 H         1 UNK         0.0600 
    177 H177        1.9112   -9.6612  -42.3443 H         1 UNK         0.0600 
    178 H178        0.2080   -9.9068  -42.6677 H         1 UNK         0.0600 
    179 H179        3.4986  -12.0692  -43.4547 H         1 UNK         0.3000 
    180 H180        5.0174  -12.6625  -40.9271 H         1 UNK         0.0600 
    181 H181        5.5046  -15.1251  -40.6337 H         1 UNK         0.0600 
    182 H182        3.8585  -15.4920  -41.1477 H         1 UNK         0.0600 
    183 H183        4.1418  -14.5752  -39.6755 H         1 UNK         0.0600 
    184 H184        4.7038  -14.3803  -43.3555 H         1 UNK         0.3000 
    185 H185        6.7437  -12.2697  -45.2863 H         1 UNK         0.0600 
    186 H186        7.8744  -14.3947  -45.8848 H         1 UNK         0.0600 
    187 H187        8.4156  -13.8500  -44.3055 H         1 UNK         0.0600 
    188 H188        7.2573  -15.1691  -44.4247 H         1 UNK         0.0600 
    189 H189        5.3589  -14.6501  -45.9507 H         1 UNK         0.3000 
    190 H190       -2.3882  -20.6012  -46.8419 H         1 UNK         0.3000 
    191 H191       -3.9938  -22.1602  -48.5596 H         1 UNK         0.0600 
    192 H192       -4.7912  -20.1353  -47.3595 H         1 UNK         0.0600 
    193 H193       -4.6797  -20.9838  -45.8175 H         1 UNK         0.0600 
    194 H194       -5.8383  -21.5081  -47.0345 H         1 UNK         0.0600 
    195 H195       -2.6800  -22.9757  -45.3467 H         1 UNK         0.3000 
    196 H196       -4.0910  -25.4746  -45.0950 H         1 UNK         0.0600 
    197 H197       -3.1838  -24.2593  -43.1361 H         1 UNK         0.0600 
    198 H198       -1.5391  -24.4642  -43.7332 H         1 UNK         0.0600 
    199 H199       -2.4787  -25.8662  -43.2362 H         1 UNK         0.0600 
    200 H200       -0.8261  -24.5882  -46.3092 H         1 UNK         0.3000 
    201 H201        0.0576  -27.2826  -46.6845 H         1 UNK         0.0600 
    202 H202        1.6241  -25.4212  -46.2827 H         1 UNK         0.0600 
    203 H203        1.1345  -24.6349  -47.7824 H         1 UNK         0.0600 
    204 H204        1.9877  -26.1744  -47.8277 H         1 UNK         0.0600 
    205 H205       -1.3069  -24.8533  -48.9540 H         1 UNK         0.3000 
    206 H206       -0.7756  -26.3356  -51.3324 H         1 UNK         0.0600 
    207 H207       -2.7487  -24.0695  -50.7454 H         1 UNK         0.0600 
    208 H208       -1.1012  -23.8907  -51.3360 H         1 UNK         0.0600 
    209 H209       -2.3209  -24.6329  -52.3608 H         1 UNK         0.0600 
    210 H210       -1.8725  -27.9386  -52.3356 H         1 UNK         0.3000 
    211 H211       -4.1103  -29.2753  -51.1859 H         1 UNK         0.0600 
    212 H212       -2.8990  -29.4627  -53.9984 H         1 UNK         0.0600 
    213 H213       -4.0148  -30.6230  -53.2882 H         1 UNK         0.0600 
    214 H214       -2.4146  -30.4165  -52.5954 H         1 UNK         0.0600 
    215 H215       -3.8754  -26.6704  -53.5072 H         1 UNK         0.3000 
    216 H216       -6.6966  -26.7254  -54.3188 H         1 UNK         0.0600 
    217 H217       -6.0265  -24.7310  -55.6411 H         1 UNK         0.0600 
    218 H218       -4.8911  -26.0407  -55.9103 H         1 UNK         0.0600 
    219 H219       -4.4544  -24.6986  -54.8526 H         1 UNK         0.0600 
    220 H220       -5.3259  -25.9465  -51.4286 H         1 UNK         0.3000 
    221 H221       -5.7682  -24.7257  -49.6758 H         1 UNK         0.0600 
    222 H222       -8.5125  -24.1525  -50.9072 H         1 UNK         0.0600 
    223 H223       -8.0880  -25.6145  -50.0162 H         1 UNK         0.0600 
    224 H224       -8.0851  -24.0585  -49.2044 H         1 UNK         0.0600 
    225 H225       -4.5799  -23.4246  -52.0257 H         1 UNK         0.3000 
    226 H226       -3.7658  -21.5313  -52.7945 H         1 UNK         0.0600 
    227 H227       -3.0200  -21.1070  -50.4736 H         1 UNK         0.0600 
    228 H228       -3.3972  -19.6052  -51.2888 H         1 UNK         0.0600 
    229 H229       -4.5288  -20.2603  -50.1174 H         1 UNK         0.0600 
    230 H230       -6.5308  -22.2121  -53.4196 H         1 UNK         0.3000 
    231 H231       -8.1304  -19.8994  -53.7822 H         1 UNK         0.0600 
    232 H232       -9.2202  -21.2853  -55.5633 H         1 UNK         0.0600 
    233 H233       -8.9982  -22.1981  -54.0780 H         1 UNK         0.0600 
    234 H234       -7.9203  -22.4667  -55.4466 H         1 UNK         0.0600 
    235 H235       -7.7242  -18.1396  -54.9393 H         1 UNK         0.3000 
    236 H236       -6.7738  -16.5975  -56.2011 H         1 UNK         0.0600 
    237 H237       -6.3930  -18.7677  -58.3320 H         1 UNK         0.0600 
    238 H238       -7.8774  -17.8512  -58.0767 H         1 UNK         0.0600 
    239 H239       -6.4169  -17.0305  -58.5992 H         1 UNK         0.0600 
    240 H240       -5.0869  -18.2506  -54.3928 H         1 UNK         0.3000 
    241 H241       -3.0601  -18.5493  -53.6857 H         1 UNK         0.0600 
    242 H242       -4.0279  -20.1941  -56.1254 H         1 UNK         0.3800 
    243 H243       -2.5393  -20.9773  -56.5918 H         1 UNK         0.3800 
    244 H244       -2.0018  -16.4681  -55.6435 H         1 UNK         0.0800 
    245 H245       -1.1883  -17.0410  -54.2166 H         1 UNK         0.0800 
    246 H246       -3.5289  -15.5364  -51.3263 H         1 UNK         0.0800 
    247 H247       -3.4343  -17.1607  -51.9323 H         1 UNK         0.0800 
@<TRIPOS>BOND
     1    1    2 1    
     2    1  127 1    
     3    1  128 1    
     4    1  129 1    
     5    2    3 2    
     6    2    4 am   BACKBONE|DICT|INTERRES
     7    4    5 1    
     8    4  130 1    
     9    5    6 1    
    10    5   65 1    
    11    5  131 1    
    12    6    7 1    
    13    6  132 1    
    14    6  133 1    
    15    7    8 1    
    16    8    9 1    
    17    8  134 1    
    18    8  135 1    
    19    9   10 ar   
    20    9   14 ar   
    21   10   11 ar   
    22   10  136 1    
    23   11   12 ar   
    24   11  126 1    
    25   12   13 ar   
    26   12  137 1    
    27   13   14 ar   
    28   13   15 1    
    29   14  138 1    
    30   15   16 1    
    31   15  139 1    
    32   15  140 1    
    33   16   17 1    
    34   17   18 1    
    35   17  141 1    
    36   17  142 1    
    37   18   19 1    
    38   18   67 1    
    39   18  143 1    
    40   19   20 am   BACKBONE|DICT|INTERRES
    41   19  144 1    
    42   20   21 2    
    43   20   22 1    
    44   22   23 1    
    45   22   24 1    
    46   22  145 1    
    47   23  146 1    
    48   23  147 1    
    49   23  148 1    
    50   24   25 am   BACKBONE|DICT|INTERRES
    51   24  149 1    
    52   25   26 2    
    53   25   27 1    
    54   27   28 1    
    55   27   29 1    
    56   27  150 1    
    57   28  151 1    
    58   28  152 1    
    59   28  153 1    
    60   29   30 am   BACKBONE|DICT|INTERRES
    61   29  154 1    
    62   30   31 2    
    63   30   32 1    
    64   32   33 1    
    65   32   34 1    
    66   32  155 1    
    67   33  156 1    
    68   33  157 1    
    69   33  158 1    
    70   34   35 am   BACKBONE|DICT|INTERRES
    71   34  159 1    
    72   35   36 2    
    73   35   37 1    
    74   37   38 1    
    75   37   39 1    
    76   37  160 1    
    77   38  161 1    
    78   38  162 1    
    79   38  163 1    
    80   39   40 am   BACKBONE|DICT|INTERRES
    81   39  164 1    
    82   40   41 2    
    83   40   42 1    
    84   42   43 1    
    85   42   44 1    
    86   42  165 1    
    87   43  166 1    
    88   43  167 1    
    89   43  168 1    
    90   44   45 am   BACKBONE|DICT|INTERRES
    91   44  169 1    
    92   45   46 2    
    93   45   47 1    
    94   47   48 1    
    95   47   49 1    
    96   47  170 1    
    97   48  171 1    
    98   48  172 1    
    99   48  173 1    
   100   49   50 am   BACKBONE|DICT|INTERRES
   101   49  174 1    
   102   50   51 2    
   103   50   52 1    
   104   52   53 1    
   105   52   54 1    
   106   52  175 1    
   107   53  176 1    
   108   53  177 1    
   109   53  178 1    
   110   54   55 am   BACKBONE|DICT|INTERRES
   111   54  179 1    
   112   55   56 2    
   113   55   57 1    
   114   57   58 1    
   115   57   59 1    
   116   57  180 1    
   117   58  181 1    
   118   58  182 1    
   119   58  183 1    
   120   59   60 am   BACKBONE|DICT|INTERRES
   121   59  184 1    
   122   60   61 2    
   123   60   62 1    
   124   62   63 1    
   125   62   64 1    
   126   62  185 1    
   127   63  186 1    
   128   63  187 1    
   129   63  188 1    
   130   64   65 am   BACKBONE|DICT|INTERRES
   131   64  189 1    
   132   65   66 2    
   133   67   68 2    
   134   67   69 am   BACKBONE|DICT|INTERRES
   135   69   70 1    
   136   69  190 1    
   137   70   71 1    
   138   70   72 1    
   139   70  191 1    
   140   71  192 1    
   141   71  193 1    
   142   71  194 1    
   143   72   73 2    
   144   72   74 am   BACKBONE|DICT|INTERRES
   145   74   75 1    
   146   74  195 1    
   147   75   76 1    
   148   75   77 1    
   149   75  196 1    
   150   76  197 1    
   151   76  198 1    
   152   76  199 1    
   153   77   78 2    
   154   77   79 am   BACKBONE|DICT|INTERRES
   155   79   80 1    
   156   79  200 1    
   157   80   81 1    
   158   80   82 1    
   159   80  201 1    
   160   81  202 1    
   161   81  203 1    
   162   81  204 1    
   163   82   83 2    
   164   82   84 am   BACKBONE|DICT|INTERRES
   165   84   85 1    
   166   84  205 1    
   167   85   86 1    
   168   85   87 1    
   169   85  206 1    
   170   86  207 1    
   171   86  208 1    
   172   86  209 1    
   173   87   88 2    
   174   87   89 am   BACKBONE|DICT|INTERRES
   175   89   90 1    
   176   89  210 1    
   177   90   91 1    
   178   90   92 1    
   179   90  211 1    
   180   91  212 1    
   181   91  213 1    
   182   91  214 1    
   183   92   93 2    
   184   92   94 am   BACKBONE|DICT|INTERRES
   185   94   95 1    
   186   94  215 1    
   187   95   96 1    
   188   95   97 1    
   189   95  216 1    
   190   96  217 1    
   191   96  218 1    
   192   96  219 1    
   193   97   98 2    
   194   97   99 am   BACKBONE|DICT|INTERRES
   195   99  100 1    
   196   99  220 1    
   197  100  101 1    
   198  100  102 1    
   199  100  221 1    
   200  101  222 1    
   201  101  223 1    
   202  101  224 1    
   203  102  103 2    
   204  102  104 am   BACKBONE|DICT|INTERRES
   205  104  105 1    
   206  104  225 1    
   207  105  106 1    
   208  105  107 1    
   209  105  226 1    
   210  106  227 1    
   211  106  228 1    
   212  106  229 1    
   213  107  108 2    
   214  107  109 am   BACKBONE|DICT|INTERRES
   215  109  110 1    
   216  109  230 1    
   217  110  111 1    
   218  110  112 1    
   219  110  231 1    
   220  111  232 1    
   221  111  233 1    
   222  111  234 1    
   223  112  113 2    
   224  112  114 am   BACKBONE|DICT|INTERRES
   225  114  115 1    
   226  114  235 1    
   227  115  116 1    
   228  115  117 1    
   229  115  236 1    
   230  116  237 1    
   231  116  238 1    
   232  116  239 1    
   233  117  118 2    
   234  117  119 am   BACKBONE|DICT|INTERRES
   235  119  120 1    
   236  119  240 1    
   237  120  121 1    
   238  120  124 1    
   239  120  241 1    
   240  121  122 am   BACKBONE|DICT|INTERRES
   241  121  123 2    
   242  122  242 1    
   243  122  243 1    
   244  124  125 1    
   245  124  244 1    
   246  124  245 1    
   247  125  126 1    
   248  126  246 1    
   249  126  247 1    
@<TRIPOS>SUBSTRUCTURE
     1 UNK         1 GROUP             0       ****    0 ROOT    
