@<TRIPOS>MOLECULE
3R540
247   249    1
SMALL
USER_CHARGES


@<TRIPOS>ATOM
      1 CA          4.4227  -17.9885  -49.3036 C.3       0 UNK        -0.1800 
      2 C           4.9596  -16.5908  -49.6047 C.2       0 UNK         0.5000 
      3 O           5.5129  -16.3790  -50.6821 O.2       0 UNK        -0.5000 
      4 N           4.8360  -15.6106  -48.7023 N.am      1 UNK        -0.5000 
      5 CA          4.2618  -15.6855  -47.3571 C.3       1 UNK         0.1400 
      6 C6          2.8756  -14.9986  -47.2790 C.3       23 UNK        -0.0398 
      7 S7          1.5539  -15.9940  -48.0396 S.3       23 UNK        -0.2404 
      8 C8          1.1876  -15.0438  -49.5474 C.3       23 UNK        -0.0205 
      9 C9         -0.1633  -15.4336  -50.1280 C.ar      23 UNK        -0.0193 
     10 C10        -0.2753  -15.9385  -51.4276 C.ar      23 UNK        -0.1150 
     11 C11        -1.5316  -16.2529  -51.9606 C.ar      23 UNK        -0.0193 
     12 C12        -2.6742  -16.0908  -51.1701 C.ar      23 UNK        -0.1150 
     13 C13        -2.5700  -15.6012  -49.8653 C.ar      23 UNK        -0.0193 
     14 C14        -1.3162  -15.2551  -49.3609 C.ar      23 UNK        -0.1150 
     15 C15        -3.8061  -15.4342  -48.9972 C.3       23 UNK        -0.0205 
     16 S16        -4.2967  -16.9987  -48.2081 S.3       23 UNK        -0.2404 
     17 C17        -2.8678  -17.3736  -47.1240 C.3       23 UNK        -0.0398 
     18 CA         -1.9421  -18.5051  -47.6471 C.3       11 UNK         0.1400 
     19 N          -0.7919  -18.7294  -46.7647 N.am      11 UNK        -0.5000 
     20 C           0.2175  -19.5820  -47.0025 C.2       10 UNK         0.5000 
     21 O           0.3407  -20.2228  -48.0442 O.2       10 UNK        -0.5000 
     22 CA          1.2229  -19.8255  -45.8608 C.3       10 UNK         0.1400 
     23 CB          2.3127  -18.7485  -45.8299 C.3       10 UNK        -0.1800 
     24 N           0.5788  -19.9144  -44.5518 N.am      10 UNK        -0.5000 
     25 C          -0.2882  -20.8734  -44.1988 C.2       9 UNK         0.5000 
     26 O          -0.6041  -21.8124  -44.9284 O.2       9 UNK        -0.5000 
     27 CA         -0.9494  -20.7312  -42.8181 C.3       9 UNK         0.1400 
     28 CB         -0.0301  -21.2607  -41.7071 C.3       9 UNK        -0.1800 
     29 N          -1.3184  -19.3447  -42.5353 N.am      9 UNK        -0.5000 
     30 C          -2.2997  -18.6823  -43.1631 C.2       8 UNK         0.5000 
     31 O          -3.0284  -19.1877  -44.0184 O.2       8 UNK        -0.5000 
     32 CA         -2.4564  -17.1926  -42.8045 C.3       8 UNK         0.1400 
     33 CB         -3.2268  -17.0263  -41.4865 C.3       8 UNK        -0.1800 
     34 N          -1.1665  -16.5056  -42.7059 N.am      8 UNK        -0.5000 
     35 C          -0.3529  -16.2896  -43.7511 C.2       7 UNK         0.5000 
     36 O          -0.6346  -16.6077  -44.9035 O.2       7 UNK        -0.5000 
     37 CA          1.0199  -15.6496  -43.4699 C.3       7 UNK         0.1400 
     38 CB          0.9102  -14.1236  -43.5828 C.3       7 UNK        -0.1800 
     39 N           1.5816  -16.0088  -42.1665 N.am      7 UNK        -0.5000 
     40 C           1.7988  -17.2623  -41.7359 C.2       6 UNK         0.5000 
     41 O           1.6577  -18.2522  -42.4535 O.2       6 UNK        -0.5000 
     42 CA          2.1818  -17.4660  -40.2537 C.3       6 UNK         0.1400 
     43 CB          3.6589  -17.8680  -40.1275 C.3       6 UNK        -0.1800 
     44 N           1.9344  -16.3030  -39.3987 N.am      6 UNK        -0.5000 
     45 C           0.7520  -15.7038  -39.1919 C.2       5 UNK         0.5000 
     46 O          -0.3168  -16.1357  -39.6272 O.2       5 UNK        -0.5000 
     47 CA          0.7828  -14.3560  -38.4379 C.3       5 UNK         0.1400 
     48 CB          0.3752  -14.5550  -36.9704 C.3       5 UNK        -0.1800 
     49 N           2.0788  -13.6606  -38.4856 N.am      5 UNK        -0.5000 
     50 C           2.7215  -13.2825  -39.6006 C.2       4 UNK         0.5000 
     51 O           2.2837  -13.4802  -40.7370 O.2       4 UNK        -0.5000 
     52 CA          4.1040  -12.6368  -39.4169 C.3       4 UNK         0.1400 
     53 CB          5.0843  -13.6131  -38.7335 C.3       4 UNK        -0.1800 
     54 N           4.6221  -12.2612  -40.7288 N.am      4 UNK        -0.5000 
     55 C           5.6286  -11.4170  -40.9758 C.2       3 UNK         0.5000 
     56 O           6.2237  -10.7941  -40.0942 O.2       3 UNK        -0.5000 
     57 CA          6.0650  -11.2937  -42.4511 C.3       3 UNK         0.1400 
     58 CB          7.3151  -10.4131  -42.6326 C.3       3 UNK        -0.1800 
     59 N           6.3402  -12.6227  -43.0027 N.am      3 UNK        -0.5000 
     60 C           5.4568  -13.3749  -43.6675 C.2       2 UNK         0.5000 
     61 O           4.3216  -12.9953  -43.9591 O.2       2 UNK        -0.5000 
     62 CA          5.8955  -14.8173  -43.9859 C.3       2 UNK         0.1400 
     63 CB          5.6833  -15.7075  -42.7502 C.3       2 UNK        -0.1800 
     64 N           5.1450  -15.3968  -45.0999 N.am      2 UNK        -0.5000 
     65 C           5.2404  -15.0113  -46.3784 C.2       1 UNK         0.5000 
     66 O           6.0385  -14.1613  -46.7847 O.2       1 UNK        -0.5000 
     67 C          -2.7157  -19.8175  -47.8819 C.2       11 UNK         0.5000 
     68 O          -2.9312  -20.1899  -49.0336 O.2       11 UNK        -0.5000 
     69 N          -3.0774  -20.5157  -46.7942 N.am      12 UNK        -0.5000 
     70 CA         -3.7863  -21.7964  -46.8385 C.3       12 UNK         0.1400 
     71 CB         -4.1441  -22.2391  -45.4125 C.3       12 UNK        -0.1800 
     72 C          -3.0062  -22.8995  -47.5783 C.2       12 UNK         0.5000 
     73 O          -3.6120  -23.6617  -48.3330 O.2       12 UNK        -0.5000 
     74 N          -1.6820  -22.9404  -47.3771 N.am      13 UNK        -0.5000 
     75 CA         -0.7593  -23.8398  -48.0662 C.3       13 UNK         0.1400 
     76 CB          0.6111  -23.8071  -47.3727 C.3       13 UNK        -0.1800 
     77 C          -0.6268  -23.5180  -49.5657 C.2       13 UNK         0.5000 
     78 O          -0.7285  -24.4313  -50.3844 O.2       13 UNK        -0.5000 
     79 N          -0.4343  -22.2344  -49.9045 N.am      14 UNK        -0.5000 
     80 CA         -0.3255  -21.7380  -51.2805 C.3       14 UNK         0.1400 
     81 CB          0.1095  -20.2640  -51.2664 C.3       14 UNK        -0.1800 
     82 C          -1.6285  -21.9122  -52.0806 C.2       14 UNK         0.5000 
     83 O          -1.5845  -22.2843  -53.2541 O.2       14 UNK        -0.5000 
     84 N          -2.7678  -21.6821  -51.4165 N.am      15 UNK        -0.5000 
     85 CA         -4.1037  -21.9115  -51.9556 C.3       15 UNK         0.1400 
     86 CB         -5.1290  -21.1446  -51.1084 C.3       15 UNK        -0.1800 
     87 C          -4.4810  -23.4014  -52.0330 C.2       15 UNK         0.5000 
     88 O          -5.4487  -23.7287  -52.7216 O.2       15 UNK        -0.5000 
     89 N          -3.7475  -24.2621  -51.3131 N.am      16 UNK        -0.5000 
     90 CA         -3.9708  -25.6988  -51.1272 C.3       16 UNK         0.1400 
     91 CB         -3.6965  -26.4654  -52.4362 C.3       16 UNK        -0.1800 
     92 C          -5.3688  -25.9816  -50.5444 C.2       16 UNK         0.5000 
     93 O          -6.1256  -26.7750  -51.1029 O.2       16 UNK        -0.5000 
     94 N          -5.7153  -25.2530  -49.4725 N.am      17 UNK        -0.5000 
     95 CA         -7.0382  -25.2133  -48.8327 C.3       17 UNK         0.1400 
     96 CB         -7.3423  -26.5490  -48.1234 C.3       17 UNK        -0.1800 
     97 C          -8.1589  -24.7744  -49.8058 C.2       17 UNK         0.5000 
     98 O          -9.2782  -25.2842  -49.7407 O.2       17 UNK        -0.5000 
     99 N          -7.8068  -23.8417  -50.7030 N.am      18 UNK        -0.5000 
    100 CA        -8.6030  -23.2689  -51.7941 C.3       18 UNK         0.1400 
    101 CB        -9.9004  -22.6173  -51.2719 C.3       18 UNK        -0.1800 
    102 C         -8.8499  -24.2228  -52.9827 C.2       18 UNK         0.5000 
    103 O         -9.6417  -23.8810  -53.8625 O.2       18 UNK        -0.5000 
    104 N         -8.1610  -25.3736  -53.0308 N.am      19 UNK        -0.5000 
    105 CA        -8.2271  -26.3092  -54.1563 C.3       19 UNK         0.1400 
    106 CB        -7.7565  -27.7006  -53.7077 C.3       19 UNK        -0.1800 
    107 C         -7.4060  -25.8328  -55.3694 C.2       19 UNK         0.5000 
    108 O         -7.8066  -26.0942  -56.5045 O.2       19 UNK        -0.5000 
    109 N         -6.2815  -25.1500  -55.1138 N.am      20 UNK        -0.5000 
    110 CA        -5.3941  -24.5970  -56.1392 C.3       20 UNK         0.1400 
    111 CB        -3.9326  -24.8839  -55.7593 C.3       20 UNK        -0.1800 
    112 C         -5.6041  -23.0851  -56.3119 C.2       20 UNK         0.5000 
    113 O         -5.4316  -22.5760  -57.4201 O.2       20 UNK        -0.5000 
    114 N         -5.9450  -22.3925  -55.2130 N.am      21 UNK        -0.5000 
    115 CA        -6.2144  -20.9508  -55.1168 C.3       21 UNK         0.1400 
    116 CB        -7.5608  -20.6209  -55.7920 C.3       21 UNK        -0.1800 
    117 C         -5.0520  -20.0642  -55.6245 C.2       21 UNK         0.5000 
    118 O         -5.2922  -18.9936  -56.1844 O.2       21 UNK        -0.5000 
    119 N         -3.8157  -20.5482  -55.4353 N.am      22 UNK        -0.5000 
    120 CA        -2.5532  -19.9725  -55.9307 C.3       22 UNK         0.1400 
    121 C         -2.3639  -20.0733  -57.4775 C.2       22 UNK         0.5000 
    122 N         -3.1722  -20.8325  -58.2092 N.am      22 UNK        -0.7600 
    123 O         -1.4422  -19.4782  -58.0296 O.2       22 UNK        -0.5000 
    124 C124       -2.2585  -18.5424  -55.3929 C.3       23 UNK        -0.0398 
    125 S125       -2.2185  -18.4279  -53.5712 S.3       23 UNK        -0.2404 
    126 C126       -1.6635  -16.7024  -53.4090 C.3       23 UNK        -0.0205 
    127 H127        4.9249  -18.4201  -48.4381 H         1 UNK         0.0600 
    128 H128        4.5950  -18.6533  -50.1502 H         1 UNK         0.0600 
    129 H129        3.3501  -17.9669  -49.1184 H         1 UNK         0.0600 
    130 H130        5.2709  -14.7186  -48.8977 H         1 UNK         0.3000 
    131 H131        4.1679  -16.7228  -47.0365 H         1 UNK         0.0600 
    132 H132        2.5771  -14.8392  -46.2414 H         1 UNK         0.0800 
    133 H133        2.9108  -14.0053  -47.7292 H         1 UNK         0.0800 
    134 H134        1.9890  -15.1983  -50.2714 H         1 UNK         0.0800 
    135 H135        1.1687  -13.9775  -49.3190 H         1 UNK         0.0800 
    136 H136        0.6117  -16.0607  -52.0331 H         1 UNK         0.1150 
    137 H137       -3.6453  -16.3415  -51.5739 H         1 UNK         0.1150 
    138 H138       -1.2297  -14.8589  -48.3588 H         1 UNK         0.1150 
    139 H139       -3.6402  -14.6764  -48.2297 H         1 UNK         0.0800 
    140 H140       -4.6343  -15.0720  -49.6080 H         1 UNK         0.0800 
    141 H141       -3.2613  -17.6323  -46.1410 H         1 UNK         0.0800 
    142 H142       -2.2891  -16.4634  -46.9710 H         1 UNK         0.0800 
    143 H143       -1.5401  -18.1877  -48.6117 H         1 UNK         0.0600 
    144 H144       -0.7699  -18.1732  -45.9143 H         1 UNK         0.3000 
    145 H145        1.7100  -20.7841  -46.0507 H         1 UNK         0.0600 
    146 H146        3.0423  -18.9429  -45.0436 H         1 UNK         0.0600 
    147 H147        2.8498  -18.7218  -46.7775 H         1 UNK         0.0600 
    148 H148        1.8891  -17.7607  -45.6604 H         1 UNK         0.0600 
    149 H149        0.8293  -19.2077  -43.8654 H         1 UNK         0.3000 
    150 H150       -1.8603  -21.3337  -42.8200 H         1 UNK         0.0600 
    151 H151        0.2277  -22.3058  -41.8826 H         1 UNK         0.0600 
    152 H152       -0.5167  -21.2055  -40.7333 H         1 UNK         0.0600 
    153 H153        0.9030  -20.6998  -41.6481 H         1 UNK         0.0600 
    154 H154       -0.7312  -18.8410  -41.8872 H         1 UNK         0.3000 
    155 H155       -3.0356  -16.7175  -43.5992 H         1 UNK         0.0600 
    156 H156       -3.4018  -15.9738  -41.2632 H         1 UNK         0.0600 
    157 H157       -4.2008  -17.5143  -41.5392 H         1 UNK         0.0600 
    158 H158       -2.6858  -17.4605  -40.6447 H         1 UNK         0.0600 
    159 H159       -0.8607  -16.2344  -41.7787 H         1 UNK         0.3000 
    160 H160        1.7168  -15.9975  -44.2320 H         1 UNK         0.0600 
    161 H161        0.2391  -13.7119  -42.8279 H         1 UNK         0.0600 
    162 H162        0.5291  -13.8289  -44.5616 H         1 UNK         0.0600 
    163 H163        1.8808  -13.6479  -43.4575 H         1 UNK         0.0600 
    164 H164        1.7490  -15.2357  -41.5300 H         1 UNK         0.3000 
    165 H165        1.5693  -18.2883  -39.8787 H         1 UNK         0.0600 
    166 H166        3.9040  -18.1469  -39.1025 H         1 UNK         0.0600 
    167 H167        3.8887  -18.7273  -40.7592 H         1 UNK         0.0600 
    168 H168        4.3244  -17.0562  -40.4209 H         1 UNK         0.0600 
    169 H169        2.7503  -15.8671  -38.9963 H         1 UNK         0.3000 
    170 H170        0.0450  -13.7068  -38.9136 H         1 UNK         0.0600 
    171 H171       -0.5968  -15.0449  -36.8971 H         1 UNK         0.0600 
    172 H172        1.0958  -15.1731  -36.4334 H         1 UNK         0.0600 
    173 H173        0.2954  -13.6007  -36.4495 H         1 UNK         0.0600 
    174 H174        2.5080  -13.4674  -37.5920 H         1 UNK         0.3000 
    175 H175        3.9829  -11.7400  -38.8063 H         1 UNK         0.0600 
    176 H176        5.2130  -14.5250  -39.3181 H         1 UNK         0.0600 
    177 H177        6.0682  -13.1630  -38.6018 H         1 UNK         0.0600 
    178 H178        4.7361  -13.9029  -37.7417 H         1 UNK         0.0600 
    179 H179        4.1284  -12.6900  -41.5042 H         1 UNK         0.3000 
    180 H180        5.2445  -10.8199  -42.9942 H         1 UNK         0.0600 
    181 H181        7.1392   -9.4022  -42.2627 H         1 UNK         0.0600 
    182 H182        7.5865  -10.3290  -43.6851 H         1 UNK         0.0600 
    183 H183        8.1751  -10.8162  -42.0963 H         1 UNK         0.0600 
    184 H184        7.2360  -13.0219  -42.7605 H         1 UNK         0.3000 
    185 H185        6.9560  -14.8135  -44.2468 H         1 UNK         0.0600 
    186 H186        6.2539  -15.3416  -41.8955 H         1 UNK         0.0600 
    187 H187        4.6335  -15.7334  -42.4549 H         1 UNK         0.0600 
    188 H188        6.0050  -16.7321  -42.9383 H         1 UNK         0.0600 
    189 H189        4.4539  -16.0865  -44.8469 H         1 UNK         0.3000 
    190 H190       -2.8716  -20.1398  -45.8748 H         1 UNK         0.3000 
    191 H191       -4.7174  -21.6338  -47.3850 H         1 UNK         0.0600 
    192 H192       -3.2541  -22.4010  -44.8044 H         1 UNK         0.0600 
    193 H193       -4.7086  -23.1724  -45.4239 H         1 UNK         0.0600 
    194 H194       -4.7594  -21.4920  -44.9107 H         1 UNK         0.0600 
    195 H195       -1.2775  -22.3149  -46.6861 H         1 UNK         0.3000 
    196 H196       -1.1552  -24.8538  -47.9781 H         1 UNK         0.0600 
    197 H197        1.3087  -24.4937  -47.8537 H         1 UNK         0.0600 
    198 H198        0.5300  -24.1041  -46.3270 H         1 UNK         0.0600 
    199 H199        1.0557  -22.8123  -47.4029 H         1 UNK         0.0600 
    200 H200       -0.3314  -21.5383  -49.1686 H         1 UNK         0.3000 
    201 H201        0.4519  -22.3167  -51.7831 H         1 UNK         0.0600 
    202 H202        1.0661  -20.1383  -50.7591 H         1 UNK         0.0600 
    203 H203       -0.6225  -19.6325  -50.7604 H         1 UNK         0.0600 
    204 H204        0.2273  -19.8812  -52.2807 H         1 UNK         0.0600 
    205 H205       -2.7200  -21.2974  -50.4740 H         1 UNK         0.3000 
    206 H206       -4.1343  -21.5101  -52.9661 H         1 UNK         0.0600 
    207 H207       -4.8844  -20.0828  -51.0643 H         1 UNK         0.0600 
    208 H208       -6.1307  -21.2242  -51.5286 H         1 UNK         0.0600 
    209 H209       -5.1670  -21.5207  -50.0851 H         1 UNK         0.0600 
    210 H210       -2.9812  -23.8795  -50.7750 H         1 UNK         0.3000 
    211 H211       -3.2458  -26.0330  -50.3836 H         1 UNK         0.0600 
    212 H212       -4.4385  -26.2403  -53.2009 H         1 UNK         0.0600 
    213 H213       -3.7220  -27.5425  -52.2678 H         1 UNK         0.0600 
    214 H214       -2.7133  -26.2208  -52.8382 H         1 UNK         0.0600 
    215 H215       -5.0103  -24.6308  -49.0795 H         1 UNK         0.3000 
    216 H216       -6.9824  -24.4392  -48.0661 H         1 UNK         0.0600 
    217 H217       -8.2577  -26.4796  -47.5348 H         1 UNK         0.0600 
    218 H218       -6.5387  -26.8235  -47.4401 H         1 UNK         0.0600 
    219 H219       -7.4724  -27.3658  -48.8339 H         1 UNK         0.0600 
    220 H220       -6.8411  -23.5487  -50.6907 H         1 UNK         0.3000 
    221 H221       -7.9929  -22.4653  -52.2063 H         1 UNK         0.0600 
    222 H222      -10.6225  -23.3608  -50.9343 H         1 UNK         0.0600 
    223 H223       -9.6969  -21.9423  -50.4407 H         1 UNK         0.0600 
    224 H224      -10.3840  -22.0296  -52.0530 H         1 UNK         0.0600 
    225 H225       -7.5210  -25.6060  -52.2802 H         1 UNK         0.3000 
    226 H226       -9.2692  -26.3987  -54.4709 H         1 UNK         0.0600 
    227 H227       -8.2949  -28.0359  -52.8211 H         1 UNK         0.0600 
    228 H228       -7.9275  -28.4384  -54.4924 H         1 UNK         0.0600 
    229 H229       -6.6904  -27.7125  -53.4796 H         1 UNK         0.0600 
    230 H230       -6.0469  -24.9390  -54.1492 H         1 UNK         0.3000 
    231 H231       -5.5866  -25.0703  -57.1042 H         1 UNK         0.0600 
    232 H232       -3.7538  -25.9551  -55.6661 H         1 UNK         0.0600 
    233 H233       -3.6555  -24.4142  -54.8152 H         1 UNK         0.0600 
    234 H234       -3.2506  -24.5072  -56.5227 H         1 UNK         0.0600 
    235 H235       -6.0042  -22.9087  -54.3410 H         1 UNK         0.3000 
    236 H236       -6.3200  -20.7281  -54.0545 H         1 UNK         0.0600 
    237 H237       -7.5182  -20.7734  -56.8709 H         1 UNK         0.0600 
    238 H238       -8.3621  -21.2456  -55.3966 H         1 UNK         0.0600 
    239 H239       -7.8447  -19.5824  -55.6178 H         1 UNK         0.0600 
    240 H240       -3.7202  -21.4471  -54.9881 H         1 UNK         0.3000 
    241 H241       -1.7756  -20.6225  -55.5284 H         1 UNK         0.0600 
    242 H242       -3.0213  -20.8896  -59.2037 H         1 UNK         0.3800 
    243 H243       -3.9462  -21.3428  -57.7960 H         1 UNK         0.3800 
    244 H244       -2.9882  -17.8278  -55.7751 H         1 UNK         0.0800 
    245 H245       -1.2875  -18.2019  -55.7562 H         1 UNK         0.0800 
    246 H246       -2.3745  -16.0491  -53.9169 H         1 UNK         0.0800 
    247 H247       -0.7123  -16.5850  -53.9304 H         1 UNK         0.0800 
@<TRIPOS>BOND
     1    1    2 1    
     2    1  127 1    
     3    1  128 1    
     4    1  129 1    
     5    2    3 2    
     6    2    4 am   BACKBONE|DICT|INTERRES
     7    4    5 1    
     8    4  130 1    
     9    5    6 1    
    10    5   65 1    
    11    5  131 1    
    12    6    7 1    
    13    6  132 1    
    14    6  133 1    
    15    7    8 1    
    16    8    9 1    
    17    8  134 1    
    18    8  135 1    
    19    9   10 ar   
    20    9   14 ar   
    21   10   11 ar   
    22   10  136 1    
    23   11   12 ar   
    24   11  126 1    
    25   12   13 ar   
    26   12  137 1    
    27   13   14 ar   
    28   13   15 1    
    29   14  138 1    
    30   15   16 1    
    31   15  139 1    
    32   15  140 1    
    33   16   17 1    
    34   17   18 1    
    35   17  141 1    
    36   17  142 1    
    37   18   19 1    
    38   18   67 1    
    39   18  143 1    
    40   19   20 am   BACKBONE|DICT|INTERRES
    41   19  144 1    
    42   20   21 2    
    43   20   22 1    
    44   22   23 1    
    45   22   24 1    
    46   22  145 1    
    47   23  146 1    
    48   23  147 1    
    49   23  148 1    
    50   24   25 am   BACKBONE|DICT|INTERRES
    51   24  149 1    
    52   25   26 2    
    53   25   27 1    
    54   27   28 1    
    55   27   29 1    
    56   27  150 1    
    57   28  151 1    
    58   28  152 1    
    59   28  153 1    
    60   29   30 am   BACKBONE|DICT|INTERRES
    61   29  154 1    
    62   30   31 2    
    63   30   32 1    
    64   32   33 1    
    65   32   34 1    
    66   32  155 1    
    67   33  156 1    
    68   33  157 1    
    69   33  158 1    
    70   34   35 am   BACKBONE|DICT|INTERRES
    71   34  159 1    
    72   35   36 2    
    73   35   37 1    
    74   37   38 1    
    75   37   39 1    
    76   37  160 1    
    77   38  161 1    
    78   38  162 1    
    79   38  163 1    
    80   39   40 am   BACKBONE|DICT|INTERRES
    81   39  164 1    
    82   40   41 2    
    83   40   42 1    
    84   42   43 1    
    85   42   44 1    
    86   42  165 1    
    87   43  166 1    
    88   43  167 1    
    89   43  168 1    
    90   44   45 am   BACKBONE|DICT|INTERRES
    91   44  169 1    
    92   45   46 2    
    93   45   47 1    
    94   47   48 1    
    95   47   49 1    
    96   47  170 1    
    97   48  171 1    
    98   48  172 1    
    99   48  173 1    
   100   49   50 am   BACKBONE|DICT|INTERRES
   101   49  174 1    
   102   50   51 2    
   103   50   52 1    
   104   52   53 1    
   105   52   54 1    
   106   52  175 1    
   107   53  176 1    
   108   53  177 1    
   109   53  178 1    
   110   54   55 am   BACKBONE|DICT|INTERRES
   111   54  179 1    
   112   55   56 2    
   113   55   57 1    
   114   57   58 1    
   115   57   59 1    
   116   57  180 1    
   117   58  181 1    
   118   58  182 1    
   119   58  183 1    
   120   59   60 am   BACKBONE|DICT|INTERRES
   121   59  184 1    
   122   60   61 2    
   123   60   62 1    
   124   62   63 1    
   125   62   64 1    
   126   62  185 1    
   127   63  186 1    
   128   63  187 1    
   129   63  188 1    
   130   64   65 am   BACKBONE|DICT|INTERRES
   131   64  189 1    
   132   65   66 2    
   133   67   68 2    
   134   67   69 am   BACKBONE|DICT|INTERRES
   135   69   70 1    
   136   69  190 1    
   137   70   71 1    
   138   70   72 1    
   139   70  191 1    
   140   71  192 1    
   141   71  193 1    
   142   71  194 1    
   143   72   73 2    
   144   72   74 am   BACKBONE|DICT|INTERRES
   145   74   75 1    
   146   74  195 1    
   147   75   76 1    
   148   75   77 1    
   149   75  196 1    
   150   76  197 1    
   151   76  198 1    
   152   76  199 1    
   153   77   78 2    
   154   77   79 am   BACKBONE|DICT|INTERRES
   155   79   80 1    
   156   79  200 1    
   157   80   81 1    
   158   80   82 1    
   159   80  201 1    
   160   81  202 1    
   161   81  203 1    
   162   81  204 1    
   163   82   83 2    
   164   82   84 am   BACKBONE|DICT|INTERRES
   165   84   85 1    
   166   84  205 1    
   167   85   86 1    
   168   85   87 1    
   169   85  206 1    
   170   86  207 1    
   171   86  208 1    
   172   86  209 1    
   173   87   88 2    
   174   87   89 am   BACKBONE|DICT|INTERRES
   175   89   90 1    
   176   89  210 1    
   177   90   91 1    
   178   90   92 1    
   179   90  211 1    
   180   91  212 1    
   181   91  213 1    
   182   91  214 1    
   183   92   93 2    
   184   92   94 am   BACKBONE|DICT|INTERRES
   185   94   95 1    
   186   94  215 1    
   187   95   96 1    
   188   95   97 1    
   189   95  216 1    
   190   96  217 1    
   191   96  218 1    
   192   96  219 1    
   193   97   98 2    
   194   97   99 am   BACKBONE|DICT|INTERRES
   195   99  100 1    
   196   99  220 1    
   197  100  101 1    
   198  100  102 1    
   199  100  221 1    
   200  101  222 1    
   201  101  223 1    
   202  101  224 1    
   203  102  103 2    
   204  102  104 am   BACKBONE|DICT|INTERRES
   205  104  105 1    
   206  104  225 1    
   207  105  106 1    
   208  105  107 1    
   209  105  226 1    
   210  106  227 1    
   211  106  228 1    
   212  106  229 1    
   213  107  108 2    
   214  107  109 am   BACKBONE|DICT|INTERRES
   215  109  110 1    
   216  109  230 1    
   217  110  111 1    
   218  110  112 1    
   219  110  231 1    
   220  111  232 1    
   221  111  233 1    
   222  111  234 1    
   223  112  113 2    
   224  112  114 am   BACKBONE|DICT|INTERRES
   225  114  115 1    
   226  114  235 1    
   227  115  116 1    
   228  115  117 1    
   229  115  236 1    
   230  116  237 1    
   231  116  238 1    
   232  116  239 1    
   233  117  118 2    
   234  117  119 am   BACKBONE|DICT|INTERRES
   235  119  120 1    
   236  119  240 1    
   237  120  121 1    
   238  120  124 1    
   239  120  241 1    
   240  121  122 am   BACKBONE|DICT|INTERRES
   241  121  123 2    
   242  122  242 1    
   243  122  243 1    
   244  124  125 1    
   245  124  244 1    
   246  124  245 1    
   247  125  126 1    
   248  126  246 1    
   249  126  247 1    
@<TRIPOS>SUBSTRUCTURE
     1 UNK         1 GROUP             0       ****    0 ROOT    
