@<TRIPOS>MOLECULE
3R540
247   249    1
SMALL
USER_CHARGES


@<TRIPOS>ATOM
      1 CA          4.7153  -13.8558  -48.9378 C.3       0 UNK        -0.1800 
      2 C           3.2766  -14.3128  -48.7538 C.2       0 UNK         0.5000 
      3 O           2.9535  -14.9467  -47.7499 O.2       0 UNK        -0.5000 
      4 N           2.4064  -13.9824  -49.7169 N.am      1 UNK        -0.5000 
      5 CA          0.9999  -14.4119  -49.8092 C.3       1 UNK         0.1400 
      6 C6          0.3949  -14.0407  -51.1926 C.3       23 UNK        -0.0398 
      7 S7         -0.5867  -15.3915  -51.9384 S.3       23 UNK        -0.2404 
      8 C8          0.4300  -15.9077  -53.3620 C.3       23 UNK        -0.0205 
      9 C9          1.3751  -17.0577  -53.0334 C.ar      23 UNK        -0.0193 
     10 C10         1.1427  -18.3329  -53.5624 C.ar      23 UNK        -0.1150 
     11 C11         2.0404  -19.3790  -53.3232 C.ar      23 UNK        -0.0193 
     12 C12         3.1682  -19.1448  -52.5329 C.ar      23 UNK        -0.1150 
     13 C13         3.3941  -17.8876  -51.9690 C.ar      23 UNK        -0.0193 
     14 C14         2.5047  -16.8428  -52.2384 C.ar      23 UNK        -0.1150 
     15 C15         4.5897  -17.6702  -51.0529 C.3       23 UNK        -0.0205 
     16 S16         4.4293  -18.6048  -49.4940 S.3       23 UNK        -0.2404 
     17 C17         2.8461  -17.9661  -48.8530 C.3       23 UNK        -0.0398 
     18 CA          1.6959  -18.9949  -48.9477 C.3       11 UNK         0.1400 
     19 N           1.9538  -20.1605  -48.0998 N.am      11 UNK        -0.5000 
     20 C           1.1916  -21.2599  -48.0311 C.2       10 UNK         0.5000 
     21 O           0.2090  -21.4560  -48.7427 O.2       10 UNK        -0.5000 
     22 CA          1.5582  -22.2805  -46.9358 C.3       10 UNK         0.1400 
     23 CB          2.4946  -23.3589  -47.5000 C.3       10 UNK        -0.1800 
     24 N           2.1799  -21.6555  -45.7624 N.am      10 UNK        -0.5000 
     25 C           1.5658  -20.7866  -44.9465 C.2       9 UNK         0.5000 
     26 O           0.3857  -20.4507  -45.0663 O.2       9 UNK        -0.5000 
     27 CA          2.4469  -20.1114  -43.8886 C.3       9 UNK         0.1400 
     28 CB          2.6431  -18.6245  -44.2316 C.3       9 UNK        -0.1800 
     29 N           1.8386  -20.2177  -42.5651 N.am      9 UNK        -0.5000 
     30 C           2.3957  -20.8502  -41.5238 C.2       8 UNK         0.5000 
     31 O           3.4566  -21.4731  -41.5888 O.2       8 UNK        -0.5000 
     32 CA          1.6625  -20.7722  -40.1756 C.3       8 UNK         0.1400 
     33 CB          1.8923  -19.4033  -39.5150 C.3       8 UNK        -0.1800 
     34 N           0.2264  -20.9936  -40.3220 N.am      8 UNK        -0.5000 
     35 C          -0.4107  -22.1278  -39.9989 C.2       7 UNK         0.5000 
     36 O           0.1594  -23.1342  -39.5752 O.2       7 UNK        -0.5000 
     37 CA         -1.9471  -22.1461  -40.1434 C.3       7 UNK         0.1400 
     38 CB         -2.6143  -21.9639  -38.7711 C.3       7 UNK        -0.1800 
     39 N          -2.4524  -21.1143  -41.0481 N.am      7 UNK        -0.5000 
     40 C          -2.3499  -21.1600  -42.3825 C.2       6 UNK         0.5000 
     41 O          -1.9079  -22.1309  -42.9949 O.2       6 UNK        -0.5000 
     42 CA         -2.7944  -19.9022  -43.1571 C.3       6 UNK         0.1400 
     43 CB         -4.2224  -20.0785  -43.6953 C.3       6 UNK        -0.1800 
     44 N          -2.7303  -18.6578  -42.3780 N.am      6 UNK        -0.5000 
     45 C          -1.6139  -18.1363  -41.8528 C.2       5 UNK         0.5000 
     46 O          -0.5042  -18.6651  -41.9554 O.2       5 UNK        -0.5000 
     47 CA         -1.7808  -16.8591  -41.0090 C.3       5 UNK         0.1400 
     48 CB         -2.2286  -17.2267  -39.5854 C.3       5 UNK        -0.1800 
     49 N          -0.5263  -16.1128  -40.9232 N.am      5 UNK        -0.5000 
     50 C          -0.0096  -15.3849  -41.9194 C.2       4 UNK         0.5000 
     51 O          -0.6109  -15.1378  -42.9679 O.2       4 UNK        -0.5000 
     52 CA          1.4159  -14.8478  -41.7097 C.3       4 UNK         0.1400 
     53 CB          2.3854  -15.9424  -41.2152 C.3       4 UNK        -0.1800 
     54 N           1.8926  -14.2877  -42.9700 N.am      4 UNK        -0.5000 
     55 C           2.8789  -13.3971  -43.1111 C.2       3 UNK         0.5000 
     56 O           3.5270  -12.9415  -42.1675 O.2       3 UNK        -0.5000 
     57 CA          3.2110  -12.9385  -44.5449 C.3       3 UNK         0.1400 
     58 CB          4.4260  -13.7150  -45.0752 C.3       3 UNK        -0.1800 
     59 N           2.0979  -13.0719  -45.4933 N.am      3 UNK        -0.5000 
     60 C           0.9993  -12.2992  -45.4807 C.2       2 UNK         0.5000 
     61 O           0.8156  -11.4069  -44.6513 O.2       2 UNK        -0.5000 
     62 CA         -0.0507  -12.5454  -46.5828 C.3       2 UNK         0.1400 
     63 CB         -0.9157  -11.3062  -46.8818 C.3       2 UNK        -0.1800 
     64 N           0.5877  -13.0034  -47.8159 N.am      2 UNK        -0.5000 
     65 C           0.1030  -13.9478  -48.6317 C.2       1 UNK         0.5000 
     66 O          -1.0017  -14.4633  -48.4735 O.2       1 UNK        -0.5000 
     67 C           0.3498  -18.3233  -48.6002 C.2       11 UNK         0.5000 
     68 O          -0.4082  -17.9691  -49.5004 O.2       11 UNK        -0.5000 
     69 N           0.0568  -18.1970  -47.2987 N.am      12 UNK        -0.5000 
     70 CA         -1.2044  -17.6534  -46.7985 C.3       12 UNK         0.1400 
     71 CB         -1.0205  -17.2073  -45.3462 C.3       12 UNK        -0.1800 
     72 C          -2.3656  -18.6507  -46.9405 C.2       12 UNK         0.5000 
     73 O          -3.4932  -18.2337  -47.2036 O.2       12 UNK        -0.5000 
     74 N          -2.0722  -19.9536  -46.8240 N.am      13 UNK        -0.5000 
     75 CA         -3.0236  -21.0301  -47.1076 C.3       13 UNK         0.1400 
     76 CB         -2.4425  -22.3768  -46.6563 C.3       13 UNK        -0.1800 
     77 C          -3.4389  -21.0811  -48.5895 C.2       13 UNK         0.5000 
     78 O          -4.5759  -21.4441  -48.8797 O.2       13 UNK        -0.5000 
     79 N          -2.5279  -20.6963  -49.4940 N.am      14 UNK        -0.5000 
     80 CA         -2.7961  -20.5657  -50.9244 C.3       14 UNK         0.1400 
     81 CB         -1.4718  -20.5419  -51.6988 C.3       14 UNK        -0.1800 
     82 C          -3.6567  -19.3340  -51.2581 C.2       14 UNK         0.5000 
     83 O          -4.4209  -19.3744  -52.2214 O.2       14 UNK        -0.5000 
     84 N          -3.5404  -18.2658  -50.4565 N.am      15 UNK        -0.5000 
     85 CA         -4.3975  -17.0846  -50.5496 C.3       15 UNK         0.1400 
     86 CB         -3.7786  -15.9197  -49.7646 C.3       15 UNK        -0.1800 
     87 C          -5.8217  -17.3801  -50.0499 C.2       15 UNK         0.5000 
     88 O          -6.7878  -16.9952  -50.7110 O.2       15 UNK        -0.5000 
     89 N          -5.9202  -18.0715  -48.9042 N.am      16 UNK        -0.5000 
     90 CA         -7.1616  -18.4850  -48.2489 C.3       16 UNK         0.1400 
     91 CB         -6.8231  -19.2478  -46.9578 C.3       16 UNK        -0.1800 
     92 C          -8.0607  -19.3232  -49.1783 C.2       16 UNK         0.5000 
     93 O          -7.7139  -20.4560  -49.5162 O.2       16 UNK        -0.5000 
     94 N          -9.1731  -18.7154  -49.6166 N.am      17 UNK        -0.5000 
     95 CA        -10.1707  -19.2474  -50.5557 C.3       17 UNK         0.1400 
     96 CB        -10.9295  -20.4307  -49.9187 C.3       17 UNK        -0.1800 
     97 C          -9.6111  -19.5984  -51.9549 C.2       17 UNK         0.5000 
     98 O         -10.2603  -20.3404  -52.6940 O.2       17 UNK        -0.5000 
     99 N          -8.4244  -19.0667  -52.2931 N.am      18 UNK        -0.5000 
    100 CA        -7.6414  -19.3378  -53.5047 C.3       18 UNK         0.1400 
    101 CB        -8.3274  -18.7160  -54.7391 C.3       18 UNK        -0.1800 
    102 C         -7.2999  -20.8362  -53.6936 C.2       18 UNK         0.5000 
    103 O         -7.2855  -21.3257  -54.8256 O.2       18 UNK        -0.5000 
    104 N         -7.0686  -21.5489  -52.5811 N.am      19 UNK        -0.5000 
    105 CA        -6.7768  -22.9824  -52.5480 C.3       19 UNK         0.1400 
    106 CB        -6.8190  -23.4586  -51.0884 C.3       19 UNK        -0.1800 
    107 C         -5.4218  -23.3416  -53.1883 C.2       19 UNK         0.5000 
    108 O         -4.4933  -22.5329  -53.1879 O.2       19 UNK        -0.5000 
    109 N         -5.3033  -24.5829  -53.6726 N.am      20 UNK        -0.5000 
    110 CA        -4.0960  -25.1334  -54.2971 C.3       20 UNK         0.1400 
    111 CB        -4.5167  -26.2139  -55.3099 C.3       20 UNK        -0.1800 
    112 C         -3.0765  -25.6603  -53.2608 C.2       20 UNK         0.5000 
    113 O         -2.4810  -26.7200  -53.4658 O.2       20 UNK        -0.5000 
    114 N         -2.8849  -24.9188  -52.1598 N.am      21 UNK        -0.5000 
    115 CA        -2.0317  -25.2893  -51.0233 C.3       21 UNK         0.1400 
    116 CB        -2.2214  -24.2689  -49.8932 C.3       21 UNK        -0.1800 
    117 C         -0.5369  -25.4256  -51.3749 C.2       21 UNK         0.5000 
    118 O          0.1728  -26.1871  -50.7166 O.2       21 UNK        -0.5000 
    119 N         -0.0982  -24.7110  -52.4179 N.am      22 UNK        -0.5000 
    120 CA         1.2439  -24.8236  -53.0094 C.3       22 UNK         0.1400 
    121 C          1.4423  -26.0845  -53.9058 C.2       22 UNK         0.5000 
    122 N          0.4211  -26.8866  -54.1878 N.am      22 UNK        -0.7600 
    123 O          2.5560  -26.3484  -54.3509 O.2       22 UNK        -0.5000 
    124 C124        1.6421  -23.5342  -53.7721 C.3       23 UNK        -0.0398 
    125 S125        1.6918  -22.0654  -52.6930 S.3       23 UNK        -0.2404 
    126 C126        1.8196  -20.7509  -53.9459 C.3       23 UNK        -0.0205 
    127 H127        4.9493  -13.6899  -49.9896 H         1 UNK         0.0600 
    128 H128        5.4023  -14.6110  -48.5552 H         1 UNK         0.0600 
    129 H129        4.8887  -12.9260  -48.3967 H         1 UNK         0.0600 
    130 H130        2.7368  -13.4186  -50.4873 H         1 UNK         0.3000 
    131 H131        1.0211  -15.4990  -49.7351 H         1 UNK         0.0600 
    132 H132       -0.2368  -13.1527  -51.1278 H         1 UNK         0.0800 
    133 H133        1.1810  -13.7671  -51.8964 H         1 UNK         0.0800 
    134 H134       -0.2481  -16.2048  -54.1633 H         1 UNK         0.0800 
    135 H135        0.9972  -15.0647  -53.7579 H         1 UNK         0.0800 
    136 H136        0.2730  -18.5057  -54.1806 H         1 UNK         0.1150 
    137 H137        3.8613  -19.9509  -52.3364 H         1 UNK         0.1150 
    138 H138        2.6873  -15.8622  -51.8251 H         1 UNK         0.1150 
    139 H139        5.4990  -17.9863  -51.5658 H         1 UNK         0.0800 
    140 H140        4.7177  -16.6111  -50.8237 H         1 UNK         0.0800 
    141 H141        2.5927  -17.0646  -49.4057 H         1 UNK         0.0800 
    142 H142        2.9986  -17.6510  -47.8194 H         1 UNK         0.0800 
    143 H143        1.6235  -19.3454  -49.9798 H         1 UNK         0.0600 
    144 H144        2.7655  -20.1059  -47.5037 H         1 UNK         0.3000 
    145 H145        0.6376  -22.7655  -46.6076 H         1 UNK         0.0600 
    146 H146        2.7051  -24.1277  -46.7563 H         1 UNK         0.0600 
    147 H147        2.0423  -23.8554  -48.3601 H         1 UNK         0.0600 
    148 H148        3.4454  -22.9368  -47.8277 H         1 UNK         0.0600 
    149 H149        3.1509  -21.8799  -45.5983 H         1 UNK         0.3000 
    150 H150        3.4298  -20.5866  -43.9049 H         1 UNK         0.0600 
    151 H151        3.0198  -18.4972  -45.2471 H         1 UNK         0.0600 
    152 H152        3.3683  -18.1640  -43.5611 H         1 UNK         0.0600 
    153 H153        1.7115  -18.0632  -44.1504 H         1 UNK         0.0600 
    154 H154        0.9485  -19.7397  -42.4447 H         1 UNK         0.3000 
    155 H155        2.0973  -21.5294  -39.5196 H         1 UNK         0.0600 
    156 H156        1.4553  -18.5952  -40.1007 H         1 UNK         0.0600 
    157 H157        1.4505  -19.3692  -38.5191 H         1 UNK         0.0600 
    158 H158        2.9571  -19.1932  -39.4068 H         1 UNK         0.0600 
    159 H159       -0.2999  -20.2315  -40.7329 H         1 UNK         0.3000 
    160 H160       -2.2312  -23.1253  -40.5348 H         1 UNK         0.0600 
    161 H161       -2.3711  -20.9961  -38.3305 H         1 UNK         0.0600 
    162 H162       -2.2870  -22.7344  -38.0717 H         1 UNK         0.0600 
    163 H163       -3.6994  -22.0363  -38.8469 H         1 UNK         0.0600 
    164 H164       -2.8470  -20.2887  -40.6235 H         1 UNK         0.3000 
    165 H165       -2.1168  -19.8031  -44.0056 H         1 UNK         0.0600 
    166 H166       -4.4793  -19.2839  -44.3964 H         1 UNK         0.0600 
    167 H167       -4.3295  -21.0263  -44.2236 H         1 UNK         0.0600 
    168 H168       -4.9590  -20.0717  -42.8913 H         1 UNK         0.0600 
    169 H169       -3.6070  -18.1770  -42.2357 H         1 UNK         0.3000 
    170 H170       -2.5418  -16.2262  -41.4707 H         1 UNK         0.0600 
    171 H171       -1.5050  -17.8756  -39.0894 H         1 UNK         0.0600 
    172 H172       -2.3554  -16.3356  -38.9703 H         1 UNK         0.0600 
    173 H173       -3.1858  -17.7494  -39.5951 H         1 UNK         0.0600 
    174 H174        0.0398  -16.2882  -40.1069 H         1 UNK         0.3000 
    175 H175        1.3609  -14.0488  -40.9677 H         1 UNK         0.0600 
    176 H176        3.4172  -15.5918  -41.2001 H         1 UNK         0.0600 
    177 H177        2.3440  -16.8287  -41.8482 H         1 UNK         0.0600 
    178 H178        2.1452  -16.2512  -40.1980 H         1 UNK         0.0600 
    179 H179        1.3497  -14.5602  -43.7791 H         1 UNK         0.3000 
    180 H180        3.4853  -11.8829  -44.4902 H         1 UNK         0.0600 
    181 H181        4.1981  -14.7724  -45.2158 H         1 UNK         0.0600 
    182 H182        5.2675  -13.6495  -44.3841 H         1 UNK         0.0600 
    183 H183        4.7637  -13.3123  -46.0286 H         1 UNK         0.0600 
    184 H184        2.1922  -13.7955  -46.1989 H         1 UNK         0.3000 
    185 H185       -0.7029  -13.3310  -46.1950 H         1 UNK         0.0600 
    186 H186       -1.4485  -10.9718  -45.9909 H         1 UNK         0.0600 
    187 H187       -0.3097  -10.4726  -47.2384 H         1 UNK         0.0600 
    188 H188       -1.6662  -11.5244  -47.6418 H         1 UNK         0.0600 
    189 H189        1.5055  -12.6276  -48.0086 H         1 UNK         0.3000 
    190 H190        0.6924  -18.5690  -46.6088 H         1 UNK         0.3000 
    191 H191       -1.4639  -16.7726  -47.3874 H         1 UNK         0.0600 
    192 H192       -0.2723  -16.4178  -45.2786 H         1 UNK         0.0600 
    193 H193       -1.9500  -16.8130  -44.9336 H         1 UNK         0.0600 
    194 H194       -0.6964  -18.0278  -44.7082 H         1 UNK         0.0600 
    195 H195       -1.1350  -20.2226  -46.5485 H         1 UNK         0.3000 
    196 H196       -3.9250  -20.8372  -46.5250 H         1 UNK         0.0600 
    197 H197       -3.1983  -23.1608  -46.7118 H         1 UNK         0.0600 
    198 H198       -2.0894  -22.3343  -45.6269 H         1 UNK         0.0600 
    199 H199       -1.6097  -22.6875  -47.2847 H         1 UNK         0.0600 
    200 H200       -1.5807  -20.5082  -49.1854 H         1 UNK         0.3000 
    201 H201       -3.3503  -21.4509  -51.2342 H         1 UNK         0.0600 
    202 H202       -0.8763  -21.4256  -51.4745 H         1 UNK         0.0600 
    203 H203       -1.6491  -20.5320  -52.7748 H         1 UNK         0.0600 
    204 H204       -0.8717  -19.6647  -51.4575 H         1 UNK         0.0600 
    205 H205       -2.8621  -18.2888  -49.7074 H         1 UNK         0.3000 
    206 H206       -4.4585  -16.7869  -51.5986 H         1 UNK         0.0600 
    207 H207       -2.7599  -15.7232  -50.0918 H         1 UNK         0.0600 
    208 H208       -4.3506  -15.0034  -49.9134 H         1 UNK         0.0600 
    209 H209       -3.7472  -16.1127  -48.6929 H         1 UNK         0.0600 
    210 H210       -5.0610  -18.3186  -48.4233 H         1 UNK         0.3000 
    211 H211       -7.6970  -17.5765  -47.9666 H         1 UNK         0.0600 
    212 H212       -6.2626  -20.1595  -47.1644 H         1 UNK         0.0600 
    213 H213       -7.7304  -19.5351  -46.4255 H         1 UNK         0.0600 
    214 H214       -6.2272  -18.6353  -46.2808 H         1 UNK         0.0600 
    215 H215       -9.3356  -17.7627  -49.3201 H         1 UNK         0.3000 
    216 H216      -10.8907  -18.4440  -50.7173 H         1 UNK         0.0600 
    217 H217      -11.7762  -20.7333  -50.5358 H         1 UNK         0.0600 
    218 H218      -11.3251  -20.1643  -48.9386 H         1 UNK         0.0600 
    219 H219      -10.2873  -21.3034  -49.7958 H         1 UNK         0.0600 
    220 H220       -7.9764  -18.4519  -51.6213 H         1 UNK         0.3000 
    221 H221       -6.6907  -18.8222  -53.3709 H         1 UNK         0.0600 
    222 H222       -9.2676  -19.2153  -54.9750 H         1 UNK         0.0600 
    223 H223       -8.5391  -17.6585  -54.5812 H         1 UNK         0.0600 
    224 H224       -7.6883  -18.7888  -55.6198 H         1 UNK         0.0600 
    225 H225       -7.0908  -21.0743  -51.6870 H         1 UNK         0.3000 
    226 H226       -7.5655  -23.4943  -53.1031 H         1 UNK         0.0600 
    227 H227       -7.7873  -23.2502  -50.6326 H         1 UNK         0.0600 
    228 H228       -6.6499  -24.5337  -51.0169 H         1 UNK         0.0600 
    229 H229       -6.0555  -22.9655  -50.4864 H         1 UNK         0.0600 
    230 H230       -6.0885  -25.2137  -53.5964 H         1 UNK         0.3000 
    231 H231       -3.5936  -24.3411  -54.8560 H         1 UNK         0.0600 
    232 H232       -4.9990  -27.0598  -54.8186 H         1 UNK         0.0600 
    233 H233       -3.6548  -26.5981  -55.8571 H         1 UNK         0.0600 
    234 H234       -5.2117  -25.8132  -56.0481 H         1 UNK         0.0600 
    235 H235       -3.3818  -24.0392  -52.0958 H         1 UNK         0.3000 
    236 H236       -2.3728  -26.2622  -50.6637 H         1 UNK         0.0600 
    237 H237       -3.2727  -24.1511  -49.6294 H         1 UNK         0.0600 
    238 H238       -1.6920  -24.5835  -48.9931 H         1 UNK         0.0600 
    239 H239       -1.8290  -23.2922  -50.1731 H         1 UNK         0.0600 
    240 H240       -0.7487  -24.1044  -52.8932 H         1 UNK         0.3000 
    241 H241        1.9544  -24.9410  -52.1888 H         1 UNK         0.0600 
    242 H242        0.5808  -27.6969  -54.7652 H         1 UNK         0.3800 
    243 H243       -0.5106  -26.7131  -53.8264 H         1 UNK         0.3800 
    244 H244        2.6313  -23.6413  -54.2210 H         1 UNK         0.0800 
    245 H245        0.9483  -23.3521  -54.5946 H         1 UNK         0.0800 
    246 H246        2.6524  -20.9694  -54.6157 H         1 UNK         0.0800 
    247 H247        0.9161  -20.7563  -54.5575 H         1 UNK         0.0800 
@<TRIPOS>BOND
     1    1    2 1    
     2    1  127 1    
     3    1  128 1    
     4    1  129 1    
     5    2    3 2    
     6    2    4 am   BACKBONE|DICT|INTERRES
     7    4    5 1    
     8    4  130 1    
     9    5    6 1    
    10    5   65 1    
    11    5  131 1    
    12    6    7 1    
    13    6  132 1    
    14    6  133 1    
    15    7    8 1    
    16    8    9 1    
    17    8  134 1    
    18    8  135 1    
    19    9   10 ar   
    20    9   14 ar   
    21   10   11 ar   
    22   10  136 1    
    23   11   12 ar   
    24   11  126 1    
    25   12   13 ar   
    26   12  137 1    
    27   13   14 ar   
    28   13   15 1    
    29   14  138 1    
    30   15   16 1    
    31   15  139 1    
    32   15  140 1    
    33   16   17 1    
    34   17   18 1    
    35   17  141 1    
    36   17  142 1    
    37   18   19 1    
    38   18   67 1    
    39   18  143 1    
    40   19   20 am   BACKBONE|DICT|INTERRES
    41   19  144 1    
    42   20   21 2    
    43   20   22 1    
    44   22   23 1    
    45   22   24 1    
    46   22  145 1    
    47   23  146 1    
    48   23  147 1    
    49   23  148 1    
    50   24   25 am   BACKBONE|DICT|INTERRES
    51   24  149 1    
    52   25   26 2    
    53   25   27 1    
    54   27   28 1    
    55   27   29 1    
    56   27  150 1    
    57   28  151 1    
    58   28  152 1    
    59   28  153 1    
    60   29   30 am   BACKBONE|DICT|INTERRES
    61   29  154 1    
    62   30   31 2    
    63   30   32 1    
    64   32   33 1    
    65   32   34 1    
    66   32  155 1    
    67   33  156 1    
    68   33  157 1    
    69   33  158 1    
    70   34   35 am   BACKBONE|DICT|INTERRES
    71   34  159 1    
    72   35   36 2    
    73   35   37 1    
    74   37   38 1    
    75   37   39 1    
    76   37  160 1    
    77   38  161 1    
    78   38  162 1    
    79   38  163 1    
    80   39   40 am   BACKBONE|DICT|INTERRES
    81   39  164 1    
    82   40   41 2    
    83   40   42 1    
    84   42   43 1    
    85   42   44 1    
    86   42  165 1    
    87   43  166 1    
    88   43  167 1    
    89   43  168 1    
    90   44   45 am   BACKBONE|DICT|INTERRES
    91   44  169 1    
    92   45   46 2    
    93   45   47 1    
    94   47   48 1    
    95   47   49 1    
    96   47  170 1    
    97   48  171 1    
    98   48  172 1    
    99   48  173 1    
   100   49   50 am   BACKBONE|DICT|INTERRES
   101   49  174 1    
   102   50   51 2    
   103   50   52 1    
   104   52   53 1    
   105   52   54 1    
   106   52  175 1    
   107   53  176 1    
   108   53  177 1    
   109   53  178 1    
   110   54   55 am   BACKBONE|DICT|INTERRES
   111   54  179 1    
   112   55   56 2    
   113   55   57 1    
   114   57   58 1    
   115   57   59 1    
   116   57  180 1    
   117   58  181 1    
   118   58  182 1    
   119   58  183 1    
   120   59   60 am   BACKBONE|DICT|INTERRES
   121   59  184 1    
   122   60   61 2    
   123   60   62 1    
   124   62   63 1    
   125   62   64 1    
   126   62  185 1    
   127   63  186 1    
   128   63  187 1    
   129   63  188 1    
   130   64   65 am   BACKBONE|DICT|INTERRES
   131   64  189 1    
   132   65   66 2    
   133   67   68 2    
   134   67   69 am   BACKBONE|DICT|INTERRES
   135   69   70 1    
   136   69  190 1    
   137   70   71 1    
   138   70   72 1    
   139   70  191 1    
   140   71  192 1    
   141   71  193 1    
   142   71  194 1    
   143   72   73 2    
   144   72   74 am   BACKBONE|DICT|INTERRES
   145   74   75 1    
   146   74  195 1    
   147   75   76 1    
   148   75   77 1    
   149   75  196 1    
   150   76  197 1    
   151   76  198 1    
   152   76  199 1    
   153   77   78 2    
   154   77   79 am   BACKBONE|DICT|INTERRES
   155   79   80 1    
   156   79  200 1    
   157   80   81 1    
   158   80   82 1    
   159   80  201 1    
   160   81  202 1    
   161   81  203 1    
   162   81  204 1    
   163   82   83 2    
   164   82   84 am   BACKBONE|DICT|INTERRES
   165   84   85 1    
   166   84  205 1    
   167   85   86 1    
   168   85   87 1    
   169   85  206 1    
   170   86  207 1    
   171   86  208 1    
   172   86  209 1    
   173   87   88 2    
   174   87   89 am   BACKBONE|DICT|INTERRES
   175   89   90 1    
   176   89  210 1    
   177   90   91 1    
   178   90   92 1    
   179   90  211 1    
   180   91  212 1    
   181   91  213 1    
   182   91  214 1    
   183   92   93 2    
   184   92   94 am   BACKBONE|DICT|INTERRES
   185   94   95 1    
   186   94  215 1    
   187   95   96 1    
   188   95   97 1    
   189   95  216 1    
   190   96  217 1    
   191   96  218 1    
   192   96  219 1    
   193   97   98 2    
   194   97   99 am   BACKBONE|DICT|INTERRES
   195   99  100 1    
   196   99  220 1    
   197  100  101 1    
   198  100  102 1    
   199  100  221 1    
   200  101  222 1    
   201  101  223 1    
   202  101  224 1    
   203  102  103 2    
   204  102  104 am   BACKBONE|DICT|INTERRES
   205  104  105 1    
   206  104  225 1    
   207  105  106 1    
   208  105  107 1    
   209  105  226 1    
   210  106  227 1    
   211  106  228 1    
   212  106  229 1    
   213  107  108 2    
   214  107  109 am   BACKBONE|DICT|INTERRES
   215  109  110 1    
   216  109  230 1    
   217  110  111 1    
   218  110  112 1    
   219  110  231 1    
   220  111  232 1    
   221  111  233 1    
   222  111  234 1    
   223  112  113 2    
   224  112  114 am   BACKBONE|DICT|INTERRES
   225  114  115 1    
   226  114  235 1    
   227  115  116 1    
   228  115  117 1    
   229  115  236 1    
   230  116  237 1    
   231  116  238 1    
   232  116  239 1    
   233  117  118 2    
   234  117  119 am   BACKBONE|DICT|INTERRES
   235  119  120 1    
   236  119  240 1    
   237  120  121 1    
   238  120  124 1    
   239  120  241 1    
   240  121  122 am   BACKBONE|DICT|INTERRES
   241  121  123 2    
   242  122  242 1    
   243  122  243 1    
   244  124  125 1    
   245  124  244 1    
   246  124  245 1    
   247  125  126 1    
   248  126  246 1    
   249  126  247 1    
@<TRIPOS>SUBSTRUCTURE
     1 UNK         1 GROUP             0       ****    0 ROOT    
