@<TRIPOS>MOLECULE
3R540
247   249    1
SMALL
USER_CHARGES


@<TRIPOS>ATOM
      1 CA         -4.4739  -13.6178  -49.0839 C.3       0 UNK        -0.1800 
      2 C          -3.0467  -14.0446  -48.7723 C.2       0 UNK         0.5000 
      3 O          -2.7923  -14.5418  -47.6770 O.2       0 UNK        -0.5000 
      4 N          -2.1279  -13.8252  -49.7262 N.am      1 UNK        -0.5000 
      5 CA         -0.7075  -14.2239  -49.7511 C.3       1 UNK         0.1400 
      6 C6         -0.4643  -15.6237  -50.3829 C.3       23 UNK        -0.0398 
      7 S7         -1.2591  -17.0295  -49.5339 S.3       23 UNK        -0.2404 
      8 C8         -1.2350  -18.2854  -50.8560 C.3       23 UNK        -0.0205 
      9 C9          0.1760  -18.6982  -51.2565 C.ar      23 UNK        -0.0193 
     10 C10         0.5529  -18.6905  -52.6033 C.ar      23 UNK        -0.1150 
     11 C11         1.8469  -19.0623  -52.9808 C.ar      23 UNK        -0.0193 
     12 C12         2.7648  -19.4474  -52.0003 C.ar      23 UNK        -0.1150 
     13 C13         2.3995  -19.4691  -50.6516 C.ar      23 UNK        -0.0193 
     14 C14         1.1027  -19.0967  -50.2872 C.ar      23 UNK        -0.1150 
     15 C15         3.4171  -19.8730  -49.5956 C.3       23 UNK        -0.0205 
     16 S16         3.0335  -21.4948  -48.8631 S.3       23 UNK        -0.2404 
     17 C17         2.2439  -21.0008  -47.2958 C.3       23 UNK        -0.0398 
     18 CA          1.1099  -21.9598  -46.8613 C.3       11 UNK         0.1400 
     19 N           0.9753  -21.9988  -45.4029 N.am      11 UNK        -0.5000 
     20 C           0.2219  -22.8737  -44.7234 C.2       10 UNK         0.5000 
     21 O          -0.4042  -23.7925  -45.2526 O.2       10 UNK        -0.5000 
     22 CA          0.1088  -22.6477  -43.2033 C.3       10 UNK         0.1400 
     23 CB          1.3219  -23.2340  -42.4664 C.3       10 UNK        -0.1800 
     24 N          -0.0391  -21.2308  -42.8625 N.am      10 UNK        -0.5000 
     25 C          -1.0958  -20.4830  -43.2112 C.2       9 UNK         0.5000 
     26 O          -2.0865  -20.9340  -43.7841 O.2       9 UNK        -0.5000 
     27 CA         -1.0160  -18.9733  -42.9263 C.3       9 UNK         0.1400 
     28 CB         -1.4151  -18.6650  -41.4765 C.3       9 UNK        -0.1800 
     29 N           0.3046  -18.4115  -43.2090 N.am      9 UNK        -0.5000 
     30 C           0.8754  -18.3696  -44.4208 C.2       8 UNK         0.5000 
     31 O           0.3220  -18.7551  -45.4465 O.2       8 UNK        -0.5000 
     32 CA          2.3271  -17.8697  -44.4979 C.3       8 UNK         0.1400 
     33 CB          2.3879  -16.3392  -44.5722 C.3       8 UNK        -0.1800 
     34 N           3.1282  -18.3437  -43.3715 N.am      8 UNK        -0.5000 
     35 C           3.4854  -19.6223  -43.1899 C.2       7 UNK         0.5000 
     36 O           3.2052  -20.5282  -43.9749 O.2       7 UNK        -0.5000 
     37 CA          4.2415  -19.9435  -41.8887 C.3       7 UNK         0.1400 
     38 CB          5.7358  -19.6196  -42.0333 C.3       7 UNK        -0.1800 
     39 N           3.6945  -19.2218  -40.7380 N.am      7 UNK        -0.5000 
     40 C           2.4806  -19.4490  -40.2172 C.2       6 UNK         0.5000 
     41 O           1.7102  -20.3143  -40.6339 O.2       6 UNK        -0.5000 
     42 CA          2.0377  -18.5241  -39.0675 C.3       6 UNK         0.1400 
     43 CB          2.5739  -19.0387  -37.7233 C.3       6 UNK        -0.1800 
     44 N           2.4377  -17.1237  -39.2484 N.am      6 UNK        -0.5000 
     45 C           2.0319  -16.3446  -40.2594 C.2       5 UNK         0.5000 
     46 O           1.3354  -16.7470  -41.1923 O.2       5 UNK        -0.5000 
     47 CA          2.5211  -14.8879  -40.2595 C.3       5 UNK         0.1400 
     48 CB          3.8296  -14.7647  -41.0555 C.3       5 UNK        -0.1800 
     49 N           1.5137  -14.0187  -40.8651 N.am      5 UNK        -0.5000 
     50 C           0.4373  -13.5416  -40.2240 C.2       4 UNK         0.5000 
     51 O           0.2362  -13.6925  -39.0182 O.2       4 UNK        -0.5000 
     52 CA         -0.5921  -12.7743  -41.0748 C.3       4 UNK         0.1400 
     53 CB         -0.2161  -11.2878  -41.1700 C.3       4 UNK        -0.1800 
     54 N          -0.6949  -13.3274  -42.4240 N.am      4 UNK        -0.5000 
     55 C          -1.3848  -14.4232  -42.7580 C.2       3 UNK         0.5000 
     56 O          -2.1206  -15.0094  -41.9628 O.2       3 UNK        -0.5000 
     57 CA         -1.2325  -14.9625  -44.2051 C.3       3 UNK         0.1400 
     58 CB         -2.4908  -15.7177  -44.6681 C.3       3 UNK        -0.1800 
     59 N          -0.8783  -13.9815  -45.2436 N.am      3 UNK        -0.5000 
     60 C           0.2531  -13.2671  -45.3430 C.2       2 UNK         0.5000 
     61 O           1.1536  -13.3085  -44.5026 O.2       2 UNK        -0.5000 
     62 CA          0.3789  -12.3174  -46.5545 C.3       2 UNK         0.1400 
     63 CB          1.8328  -11.8699  -46.8157 C.3       2 UNK        -0.1800 
     64 N          -0.2335  -12.8349  -47.7831 N.am      2 UNK        -0.5000 
     65 C           0.0973  -13.9499  -48.4542 C.2       1 UNK         0.5000 
     66 O           1.0022  -14.7115  -48.1094 O.2       1 UNK        -0.5000 
     67 C          -0.2333  -21.6328  -47.5520 C.2       11 UNK         0.5000 
     68 O          -0.6021  -22.3017  -48.5163 O.2       11 UNK        -0.5000 
     69 N          -0.9710  -20.6534  -47.0095 N.am      12 UNK        -0.5000 
     70 CA         -2.3166  -20.2800  -47.4404 C.3       12 UNK         0.1400 
     71 CB         -2.7765  -19.0120  -46.7097 C.3       12 UNK        -0.1800 
     72 C          -3.3342  -21.4148  -47.2563 C.2       12 UNK         0.5000 
     73 O          -4.1260  -21.6577  -48.1652 O.2       12 UNK        -0.5000 
     74 N          -3.2780  -22.1146  -46.1149 N.am      13 UNK        -0.5000 
     75 CA         -4.0978  -23.2914  -45.8211 C.3       13 UNK         0.1400 
     76 CB         -3.8832  -23.7302  -44.3654 C.3       13 UNK        -0.1800 
     77 C          -3.8335  -24.4535  -46.7959 C.2       13 UNK         0.5000 
     78 O          -4.7881  -25.0574  -47.2864 O.2       13 UNK        -0.5000 
     79 N          -2.5539  -24.7013  -47.1138 N.am      14 UNK        -0.5000 
     80 CA         -2.1206  -25.6644  -48.1318 C.3       14 UNK         0.1400 
     81 CB         -0.5942  -25.8244  -48.0713 C.3       14 UNK        -0.1800 
     82 C          -2.5818  -25.2869  -49.5556 C.2       14 UNK         0.5000 
     83 O          -2.8790  -26.1749  -50.3544 O.2       14 UNK        -0.5000 
     84 N          -2.6918  -23.9795  -49.8246 N.am      15 UNK        -0.5000 
     85 CA         -3.2548  -23.3886  -51.0403 C.3       15 UNK         0.1400 
     86 CB         -2.5877  -22.0221  -51.2775 C.3       15 UNK        -0.1800 
     87 C          -4.7975  -23.2718  -51.0080 C.2       15 UNK         0.5000 
     88 O          -5.3585  -22.5158  -51.8033 O.2       15 UNK        -0.5000 
     89 N          -5.4593  -24.0044  -50.0985 N.am      16 UNK        -0.5000 
     90 CA         -6.9107  -24.1006  -49.9117 C.3       16 UNK         0.1400 
     91 CB         -7.5774  -24.7567  -51.1393 C.3       16 UNK        -0.1800 
     92 C          -7.5486  -22.7553  -49.5122 C.2       16 UNK         0.5000 
     93 O          -8.5329  -22.3290  -50.1159 O.2       16 UNK        -0.5000 
     94 N          -6.9472  -22.1096  -48.5037 N.am      17 UNK        -0.5000 
     95 CA         -7.2601  -20.7731  -47.9842 C.3       17 UNK         0.1400 
     96 CB         -8.6931  -20.7023  -47.4158 C.3       17 UNK        -0.1800 
     97 C          -6.9471  -19.6744  -49.0200 C.2       17 UNK         0.5000 
     98 O          -7.7458  -18.7580  -49.2212 O.2       17 UNK        -0.5000 
     99 N          -5.7767  -19.8131  -49.6613 N.am      18 UNK        -0.5000 
    100 CA        -5.2216  -18.9544  -50.7135 C.3       18 UNK         0.1400 
    101 CB        -4.8780  -17.5592  -50.1500 C.3       18 UNK        -0.1800 
    102 C         -6.0930  -18.8886  -51.9879 C.2       18 UNK         0.5000 
    103 O         -6.0728  -17.8790  -52.6944 O.2       18 UNK        -0.5000 
    104 N         -6.8428  -19.9641  -52.2643 N.am      19 UNK        -0.5000 
    105 CA        -7.6518  -20.1183  -53.4717 C.3       19 UNK         0.1400 
    106 CB        -8.7607  -21.1492  -53.2183 C.3       19 UNK        -0.1800 
    107 C         -6.7914  -20.5307  -54.6773 C.2       19 UNK         0.5000 
    108 O         -7.0414  -20.0640  -55.7898 O.2       19 UNK        -0.5000 
    109 N         -5.7884  -21.3849  -54.4350 N.am      20 UNK        -0.5000 
    110 CA        -4.7769  -21.7667  -55.4158 C.3       20 UNK         0.1400 
    111 CB        -4.1319  -23.0918  -54.9812 C.3       20 UNK        -0.1800 
    112 C         -3.7116  -20.6651  -55.5599 C.2       20 UNK         0.5000 
    113 O         -3.4544  -19.9228  -54.6083 O.2       20 UNK        -0.5000 
    114 N         -3.0919  -20.6078  -56.7413 N.am      21 UNK        -0.5000 
    115 CA        -1.9833  -19.7180  -57.0719 C.3       21 UNK         0.1400 
    116 CB        -2.4528  -18.6993  -58.1230 C.3       21 UNK        -0.1800 
    117 C         -0.8174  -20.5592  -57.6097 C.2       21 UNK         0.5000 
    118 O         -1.0405  -21.6434  -58.1560 O.2       21 UNK        -0.5000 
    119 N          0.4022  -20.0380  -57.4503 N.am      22 UNK        -0.5000 
    120 CA         1.6569  -20.7125  -57.8286 C.3       22 UNK         0.1400 
    121 C          2.0672  -20.5199  -59.3188 C.2       22 UNK         0.5000 
    122 N          1.3523  -19.7326  -60.1135 N.am      22 UNK        -0.7600 
    123 O          3.0488  -21.1055  -59.7678 O.2       22 UNK        -0.5000 
    124 C124        2.8183  -20.3331  -56.8733 C.3       23 UNK        -0.0398 
    125 S125        2.4386  -20.7076  -55.1256 S.3       23 UNK        -0.2404 
    126 C126        2.2659  -19.0300  -54.4423 C.3       23 UNK        -0.0205 
    127 H127       -5.1406  -14.4783  -49.0263 H         1 UNK         0.0600 
    128 H128       -4.5618  -13.1864  -50.0812 H         1 UNK         0.0600 
    129 H129       -4.8103  -12.8756  -48.3600 H         1 UNK         0.0600 
    130 H130       -2.4408  -13.3762  -50.5753 H         1 UNK         0.3000 
    131 H131       -0.2625  -13.5206  -50.4567 H         1 UNK         0.0600 
    132 H132       -0.8300  -15.6076  -51.4102 H         1 UNK         0.0800 
    133 H133        0.6044  -15.8300  -50.4629 H         1 UNK         0.0800 
    134 H134       -1.7701  -19.1702  -50.5185 H         1 UNK         0.0800 
    135 H135       -1.7903  -17.9050  -51.7148 H         1 UNK         0.0800 
    136 H136       -0.1606  -18.3913  -53.3585 H         1 UNK         0.1150 
    137 H137        3.7659  -19.7320  -52.2930 H         1 UNK         0.1150 
    138 H138        0.8124  -19.1071  -49.2466 H         1 UNK         0.1150 
    139 H139        4.4140  -19.9281  -50.0355 H         1 UNK         0.0800 
    140 H140        3.4764  -19.1028  -48.8254 H         1 UNK         0.0800 
    141 H141        1.8926  -19.9692  -47.3410 H         1 UNK         0.0800 
    142 H142        3.0416  -21.0045  -46.5526 H         1 UNK         0.0800 
    143 H143        1.3869  -22.9725  -47.1630 H         1 UNK         0.0600 
    144 H144        1.4921  -21.3000  -44.8807 H         1 UNK         0.3000 
    145 H145       -0.7838  -23.1714  -42.8552 H         1 UNK         0.0600 
    146 H146        1.2129  -23.1317  -41.3865 H         1 UNK         0.0600 
    147 H147        1.4338  -24.2969  -42.6838 H         1 UNK         0.0600 
    148 H148        2.2496  -22.7400  -42.7555 H         1 UNK         0.0600 
    149 H149        0.7128  -20.8027  -42.3321 H         1 UNK         0.3000 
    150 H150       -1.7304  -18.4803  -43.5856 H         1 UNK         0.0600 
    151 H151       -2.4236  -19.0226  -41.2659 H         1 UNK         0.0600 
    152 H152       -1.4031  -17.5924  -41.2835 H         1 UNK         0.0600 
    153 H153       -0.7426  -19.1400  -40.7630 H         1 UNK         0.0600 
    154 H154        0.8016  -18.0022  -42.4209 H         1 UNK         0.3000 
    155 H155        2.7654  -18.2662  -45.4163 H         1 UNK         0.0600 
    156 H156        1.8285  -15.9719  -45.4339 H         1 UNK         0.0600 
    157 H157        1.9656  -15.8724  -43.6826 H         1 UNK         0.0600 
    158 H158        3.4138  -15.9875  -44.6804 H         1 UNK         0.0600 
    159 H159        3.3515  -17.6705  -42.6546 H         1 UNK         0.3000 
    160 H160        4.1406  -21.0147  -41.7005 H         1 UNK         0.0600 
    161 H161        5.9055  -18.5549  -42.1984 H         1 UNK         0.0600 
    162 H162        6.1708  -20.1564  -42.8774 H         1 UNK         0.0600 
    163 H163        6.2905  -19.9138  -41.1421 H         1 UNK         0.0600 
    164 H164        4.2655  -18.4932  -40.3361 H         1 UNK         0.3000 
    165 H165        0.9470  -18.5518  -39.0284 H         1 UNK         0.0600 
    166 H166        2.1846  -18.4506  -36.8920 H         1 UNK         0.0600 
    167 H167        2.2748  -20.0742  -37.5545 H         1 UNK         0.0600 
    168 H168        3.6631  -19.0006  -37.6815 H         1 UNK         0.0600 
    169 H169        3.0228  -16.7269  -38.5272 H         1 UNK         0.3000 
    170 H170        2.7049  -14.5706  -39.2308 H         1 UNK         0.0600 
    171 H171        3.7020  -15.0646  -42.0960 H         1 UNK         0.0600 
    172 H172        4.1980  -13.7387  -41.0478 H         1 UNK         0.0600 
    173 H173        4.6112  -15.3923  -40.6256 H         1 UNK         0.0600 
    174 H174        1.5732  -13.8914  -41.8651 H         1 UNK         0.3000 
    175 H175       -1.5635  -12.8501  -40.5815 H         1 UNK         0.0600 
    176 H176       -0.9680  -10.7267  -41.7251 H         1 UNK         0.0600 
    177 H177        0.7440  -11.1453  -41.6678 H         1 UNK         0.0600 
    178 H178       -0.1426  -10.8397  -40.1782 H         1 UNK         0.0600 
    179 H179       -0.0581  -12.9580  -43.1228 H         1 UNK         0.3000 
    180 H180       -0.4203  -15.6871  -44.1608 H         1 UNK         0.0600 
    181 H181       -3.3339  -15.0399  -44.8051 H         1 UNK         0.0600 
    182 H182       -2.7981  -16.4801  -43.9529 H         1 UNK         0.0600 
    183 H183       -2.3121  -16.2239  -45.6157 H         1 UNK         0.0600 
    184 H184       -1.5436  -13.9086  -46.0057 H         1 UNK         0.3000 
    185 H185       -0.1906  -11.4258  -46.2890 H         1 UNK         0.0600 
    186 H186        2.2422  -11.3445  -45.9521 H         1 UNK         0.0600 
    187 H187        2.4870  -12.7178  -47.0207 H         1 UNK         0.0600 
    188 H188        1.8901  -11.1883  -47.6643 H         1 UNK         0.0600 
    189 H189       -1.0059  -12.2933  -48.1452 H         1 UNK         0.3000 
    190 H190       -0.5665  -20.0938  -46.2611 H         1 UNK         0.3000 
    191 H191       -2.2671  -20.0521  -48.5040 H         1 UNK         0.0600 
    192 H192       -2.0779  -18.1928  -46.8760 H         1 UNK         0.0600 
    193 H193       -3.7530  -18.6858  -47.0692 H         1 UNK         0.0600 
    194 H194       -2.8588  -19.1678  -45.6350 H         1 UNK         0.0600 
    195 H195       -2.6426  -21.8068  -45.3832 H         1 UNK         0.3000 
    196 H196       -5.1439  -22.9989  -45.9317 H         1 UNK         0.0600 
    197 H197       -4.5124  -24.5863  -44.1193 H         1 UNK         0.0600 
    198 H198       -4.1379  -22.9290  -43.6714 H         1 UNK         0.0600 
    199 H199       -2.8493  -24.0183  -44.1770 H         1 UNK         0.0600 
    200 H200       -1.8229  -24.1848  -46.6337 H         1 UNK         0.3000 
    201 H201       -2.5708  -26.6285  -47.8867 H         1 UNK         0.0600 
    202 H202       -0.2706  -26.1472  -47.0816 H         1 UNK         0.0600 
    203 H203       -0.0797  -24.8920  -48.3025 H         1 UNK         0.0600 
    204 H204       -0.2521  -26.5733  -48.7866 H         1 UNK         0.0600 
    205 H205       -2.3706  -23.3226  -49.1223 H         1 UNK         0.3000 
    206 H206       -3.0068  -24.0314  -51.8867 H         1 UNK         0.0600 
    207 H207       -1.5035  -22.1174  -51.3430 H         1 UNK         0.0600 
    208 H208       -2.9274  -21.5616  -52.2058 H         1 UNK         0.0600 
    209 H209       -2.8104  -21.3289  -50.4689 H         1 UNK         0.0600 
    210 H210       -4.9097  -24.5466  -49.4442 H         1 UNK         0.3000 
    211 H211       -7.0647  -24.7695  -49.0638 H         1 UNK         0.0600 
    212 H212       -7.4729  -24.1470  -52.0364 H         1 UNK         0.0600 
    213 H213       -8.6439  -24.9093  -50.9702 H         1 UNK         0.0600 
    214 H214       -7.1399  -25.7329  -51.3476 H         1 UNK         0.0600 
    215 H215       -6.0797  -22.5025  -48.1589 H         1 UNK         0.3000 
    216 H216       -6.5755  -20.6051  -47.1515 H         1 UNK         0.0600 
    217 H217       -8.8589  -19.7554  -46.9009 H         1 UNK         0.0600 
    218 H218       -8.8707  -21.4994  -46.6940 H         1 UNK         0.0600 
    219 H219       -9.4488  -20.7816  -48.1975 H         1 UNK         0.0600 
    220 H220       -5.1987  -20.6023  -49.3868 H         1 UNK         0.3000 
    221 H221       -4.2863  -19.4226  -51.0210 H         1 UNK         0.0600 
    222 H222       -5.7743  -16.9930  -49.8959 H         1 UNK         0.0600 
    223 H223       -4.2650  -17.6347  -49.2525 H         1 UNK         0.0600 
    224 H224       -4.3143  -16.9705  -50.8746 H         1 UNK         0.0600 
    225 H225       -6.7669  -20.7738  -51.6614 H         1 UNK         0.3000 
    226 H226       -8.1269  -19.1631  -53.7052 H         1 UNK         0.0600 
    227 H227       -9.4028  -20.8415  -52.3928 H         1 UNK         0.0600 
    228 H228       -9.3939  -21.2670  -54.0984 H         1 UNK         0.0600 
    229 H229       -8.3499  -22.1291  -52.9747 H         1 UNK         0.0600 
    230 H230       -5.6362  -21.7032  -53.4811 H         1 UNK         0.3000 
    231 H231       -5.2628  -21.9197  -56.3819 H         1 UNK         0.0600 
    232 H232       -3.5792  -22.9823  -54.0491 H         1 UNK         0.0600 
    233 H233       -3.4307  -23.4507  -55.7356 H         1 UNK         0.0600 
    234 H234       -4.8823  -23.8693  -54.8368 H         1 UNK         0.0600 
    235 H235       -3.2943  -21.3079  -57.4425 H         1 UNK         0.3000 
    236 H236       -1.6387  -19.1823  -56.1846 H         1 UNK         0.0600 
    237 H237       -3.2853  -18.1042  -57.7470 H         1 UNK         0.0600 
    238 H238       -1.6518  -18.0071  -58.3849 H         1 UNK         0.0600 
    239 H239       -2.7798  -19.1888  -59.0413 H         1 UNK         0.0600 
    240 H240        0.5002  -19.1314  -57.0189 H         1 UNK         0.3000 
    241 H241        1.5025  -21.7876  -57.7167 H         1 UNK         0.0600 
    242 H242        0.5386  -19.2532  -59.7637 H         1 UNK         0.3800 
    243 H243        1.6250  -19.6206  -61.0777 H         1 UNK         0.3800 
    244 H244        3.0745  -19.2779  -56.9819 H         1 UNK         0.0800 
    245 H245        3.7207  -20.8893  -57.1332 H         1 UNK         0.0800 
    246 H246        1.5406  -18.4690  -55.0330 H         1 UNK         0.0800 
    247 H247        3.2161  -18.5016  -54.5344 H         1 UNK         0.0800 
@<TRIPOS>BOND
     1    1    2 1    
     2    1  127 1    
     3    1  128 1    
     4    1  129 1    
     5    2    3 2    
     6    2    4 am   BACKBONE|DICT|INTERRES
     7    4    5 1    
     8    4  130 1    
     9    5    6 1    
    10    5   65 1    
    11    5  131 1    
    12    6    7 1    
    13    6  132 1    
    14    6  133 1    
    15    7    8 1    
    16    8    9 1    
    17    8  134 1    
    18    8  135 1    
    19    9   10 ar   
    20    9   14 ar   
    21   10   11 ar   
    22   10  136 1    
    23   11   12 ar   
    24   11  126 1    
    25   12   13 ar   
    26   12  137 1    
    27   13   14 ar   
    28   13   15 1    
    29   14  138 1    
    30   15   16 1    
    31   15  139 1    
    32   15  140 1    
    33   16   17 1    
    34   17   18 1    
    35   17  141 1    
    36   17  142 1    
    37   18   19 1    
    38   18   67 1    
    39   18  143 1    
    40   19   20 am   BACKBONE|DICT|INTERRES
    41   19  144 1    
    42   20   21 2    
    43   20   22 1    
    44   22   23 1    
    45   22   24 1    
    46   22  145 1    
    47   23  146 1    
    48   23  147 1    
    49   23  148 1    
    50   24   25 am   BACKBONE|DICT|INTERRES
    51   24  149 1    
    52   25   26 2    
    53   25   27 1    
    54   27   28 1    
    55   27   29 1    
    56   27  150 1    
    57   28  151 1    
    58   28  152 1    
    59   28  153 1    
    60   29   30 am   BACKBONE|DICT|INTERRES
    61   29  154 1    
    62   30   31 2    
    63   30   32 1    
    64   32   33 1    
    65   32   34 1    
    66   32  155 1    
    67   33  156 1    
    68   33  157 1    
    69   33  158 1    
    70   34   35 am   BACKBONE|DICT|INTERRES
    71   34  159 1    
    72   35   36 2    
    73   35   37 1    
    74   37   38 1    
    75   37   39 1    
    76   37  160 1    
    77   38  161 1    
    78   38  162 1    
    79   38  163 1    
    80   39   40 am   BACKBONE|DICT|INTERRES
    81   39  164 1    
    82   40   41 2    
    83   40   42 1    
    84   42   43 1    
    85   42   44 1    
    86   42  165 1    
    87   43  166 1    
    88   43  167 1    
    89   43  168 1    
    90   44   45 am   BACKBONE|DICT|INTERRES
    91   44  169 1    
    92   45   46 2    
    93   45   47 1    
    94   47   48 1    
    95   47   49 1    
    96   47  170 1    
    97   48  171 1    
    98   48  172 1    
    99   48  173 1    
   100   49   50 am   BACKBONE|DICT|INTERRES
   101   49  174 1    
   102   50   51 2    
   103   50   52 1    
   104   52   53 1    
   105   52   54 1    
   106   52  175 1    
   107   53  176 1    
   108   53  177 1    
   109   53  178 1    
   110   54   55 am   BACKBONE|DICT|INTERRES
   111   54  179 1    
   112   55   56 2    
   113   55   57 1    
   114   57   58 1    
   115   57   59 1    
   116   57  180 1    
   117   58  181 1    
   118   58  182 1    
   119   58  183 1    
   120   59   60 am   BACKBONE|DICT|INTERRES
   121   59  184 1    
   122   60   61 2    
   123   60   62 1    
   124   62   63 1    
   125   62   64 1    
   126   62  185 1    
   127   63  186 1    
   128   63  187 1    
   129   63  188 1    
   130   64   65 am   BACKBONE|DICT|INTERRES
   131   64  189 1    
   132   65   66 2    
   133   67   68 2    
   134   67   69 am   BACKBONE|DICT|INTERRES
   135   69   70 1    
   136   69  190 1    
   137   70   71 1    
   138   70   72 1    
   139   70  191 1    
   140   71  192 1    
   141   71  193 1    
   142   71  194 1    
   143   72   73 2    
   144   72   74 am   BACKBONE|DICT|INTERRES
   145   74   75 1    
   146   74  195 1    
   147   75   76 1    
   148   75   77 1    
   149   75  196 1    
   150   76  197 1    
   151   76  198 1    
   152   76  199 1    
   153   77   78 2    
   154   77   79 am   BACKBONE|DICT|INTERRES
   155   79   80 1    
   156   79  200 1    
   157   80   81 1    
   158   80   82 1    
   159   80  201 1    
   160   81  202 1    
   161   81  203 1    
   162   81  204 1    
   163   82   83 2    
   164   82   84 am   BACKBONE|DICT|INTERRES
   165   84   85 1    
   166   84  205 1    
   167   85   86 1    
   168   85   87 1    
   169   85  206 1    
   170   86  207 1    
   171   86  208 1    
   172   86  209 1    
   173   87   88 2    
   174   87   89 am   BACKBONE|DICT|INTERRES
   175   89   90 1    
   176   89  210 1    
   177   90   91 1    
   178   90   92 1    
   179   90  211 1    
   180   91  212 1    
   181   91  213 1    
   182   91  214 1    
   183   92   93 2    
   184   92   94 am   BACKBONE|DICT|INTERRES
   185   94   95 1    
   186   94  215 1    
   187   95   96 1    
   188   95   97 1    
   189   95  216 1    
   190   96  217 1    
   191   96  218 1    
   192   96  219 1    
   193   97   98 2    
   194   97   99 am   BACKBONE|DICT|INTERRES
   195   99  100 1    
   196   99  220 1    
   197  100  101 1    
   198  100  102 1    
   199  100  221 1    
   200  101  222 1    
   201  101  223 1    
   202  101  224 1    
   203  102  103 2    
   204  102  104 am   BACKBONE|DICT|INTERRES
   205  104  105 1    
   206  104  225 1    
   207  105  106 1    
   208  105  107 1    
   209  105  226 1    
   210  106  227 1    
   211  106  228 1    
   212  106  229 1    
   213  107  108 2    
   214  107  109 am   BACKBONE|DICT|INTERRES
   215  109  110 1    
   216  109  230 1    
   217  110  111 1    
   218  110  112 1    
   219  110  231 1    
   220  111  232 1    
   221  111  233 1    
   222  111  234 1    
   223  112  113 2    
   224  112  114 am   BACKBONE|DICT|INTERRES
   225  114  115 1    
   226  114  235 1    
   227  115  116 1    
   228  115  117 1    
   229  115  236 1    
   230  116  237 1    
   231  116  238 1    
   232  116  239 1    
   233  117  118 2    
   234  117  119 am   BACKBONE|DICT|INTERRES
   235  119  120 1    
   236  119  240 1    
   237  120  121 1    
   238  120  124 1    
   239  120  241 1    
   240  121  122 am   BACKBONE|DICT|INTERRES
   241  121  123 2    
   242  122  242 1    
   243  122  243 1    
   244  124  125 1    
   245  124  244 1    
   246  124  245 1    
   247  125  126 1    
   248  126  246 1    
   249  126  247 1    
@<TRIPOS>SUBSTRUCTURE
     1 UNK         1 GROUP             0       ****    0 ROOT    
