@<TRIPOS>MOLECULE
3R540
247   249    1
SMALL
USER_CHARGES


@<TRIPOS>ATOM
      1 CA          2.0379  -13.9134  -45.8831 C.3       0 UNK        -0.1800 
      2 C           1.8297  -14.7202  -47.1566 C.2       0 UNK         0.5000 
      3 O           1.0101  -15.6359  -47.1916 O.2       0 UNK        -0.5000 
      4 N           2.5805  -14.3831  -48.2105 N.am      1 UNK        -0.5000 
      5 CA          2.4881  -15.0178  -49.5328 C.3       1 UNK         0.1400 
      6 C6          3.8204  -14.8925  -50.3134 C.3       23 UNK        -0.0398 
      7 S7          5.1703  -15.8345  -49.5165 S.3       23 UNK        -0.2404 
      8 C8          5.3356  -17.2836  -50.6124 C.3       23 UNK        -0.0205 
      9 C9          4.2246  -18.3043  -50.4032 C.ar      23 UNK        -0.0193 
     10 C10         2.9874  -18.1315  -51.0291 C.ar      23 UNK        -0.1150 
     11 C11         1.9561  -19.0501  -50.8331 C.ar      23 UNK        -0.0193 
     12 C12         2.1837  -20.1822  -50.0479 C.ar      23 UNK        -0.1150 
     13 C13         3.4244  -20.3887  -49.4408 C.ar      23 UNK        -0.0193 
     14 C14         4.4368  -19.4365  -49.6076 C.ar      23 UNK        -0.1150 
     15 C15         3.6845  -21.6637  -48.6504 C.3       23 UNK        -0.0205 
     16 S16         3.5042  -21.4331  -46.8556 S.3       23 UNK        -0.2404 
     17 C17         1.6931  -21.4783  -46.6211 C.3       23 UNK        -0.0398 
     18 CA          1.1179  -22.9012  -46.3887 C.3       11 UNK         0.1400 
     19 N           1.8839  -23.6733  -45.4054 N.am      11 UNK        -0.5000 
     20 C           1.7704  -24.9935  -45.2062 C.2       10 UNK         0.5000 
     21 O           1.0022  -25.7181  -45.8381 O.2       10 UNK        -0.5000 
     22 CA          2.6305  -25.5910  -44.0774 C.3       10 UNK         0.1400 
     23 CB          4.0644  -25.8436  -44.5665 C.3       10 UNK        -0.1800 
     24 N           2.6665  -24.7334  -42.8909 N.am      10 UNK        -0.5000 
     25 C           1.6027  -24.4653  -42.1201 C.2       9 UNK         0.5000 
     26 O           0.4938  -24.9650  -42.2952 O.2       9 UNK        -0.5000 
     27 CA          1.7906  -23.4267  -40.9988 C.3       9 UNK         0.1400 
     28 CB          2.2289  -24.1134  -39.6971 C.3       9 UNK        -0.1800 
     29 N           2.7471  -22.3698  -41.3364 N.am      9 UNK        -0.5000 
     30 C           2.6174  -21.5150  -42.3589 C.2       8 UNK         0.5000 
     31 O           1.6676  -21.5215  -43.1494 O.2       8 UNK        -0.5000 
     32 CA          3.7723  -20.5270  -42.5550 C.3       8 UNK         0.1400 
     33 CB          5.0151  -21.2455  -43.1155 C.3       8 UNK        -0.1800 
     34 N           3.3445  -19.4824  -43.4749 N.am      8 UNK        -0.5000 
     35 C           3.9123  -18.2804  -43.6094 C.2       7 UNK         0.5000 
     36 O           4.8763  -17.9002  -42.9433 O.2       7 UNK        -0.5000 
     37 CA          3.3153  -17.3442  -44.6753 C.3       7 UNK         0.1400 
     38 CB          4.0895  -17.5004  -45.9957 C.3       7 UNK        -0.1800 
     39 N           1.8886  -17.5622  -44.9308 N.am      7 UNK        -0.5000 
     40 C           0.8927  -17.2873  -44.0766 C.2       6 UNK         0.5000 
     41 O           1.0619  -16.8650  -42.9303 O.2       6 UNK        -0.5000 
     42 CA         -0.5293  -17.5838  -44.5935 C.3       6 UNK         0.1400 
     43 CB         -0.8973  -19.0492  -44.3204 C.3       6 UNK        -0.1800 
     44 N          -1.5691  -16.7406  -44.0023 N.am      6 UNK        -0.5000 
     45 C          -1.6999  -15.4230  -44.1935 C.2       5 UNK         0.5000 
     46 O          -0.9019  -14.7279  -44.8227 O.2       5 UNK        -0.5000 
     47 CA         -2.9491  -14.7635  -43.5788 C.3       5 UNK         0.1400 
     48 CB         -2.6108  -14.1095  -42.2303 C.3       5 UNK        -0.1800 
     49 N          -3.5021  -13.7493  -44.4786 N.am      5 UNK        -0.5000 
     50 C          -4.0784  -14.0122  -45.6602 C.2       4 UNK         0.5000 
     51 O          -4.3273  -15.1573  -46.0425 O.2       4 UNK        -0.5000 
     52 CA         -4.4481  -12.8039  -46.5523 C.3       4 UNK         0.1400 
     53 CB         -3.7498  -11.4913  -46.1405 C.3       4 UNK        -0.1800 
     54 N          -4.1246  -13.0726  -47.9529 N.am      4 UNK        -0.5000 
     55 C          -4.9159  -13.6892  -48.8406 C.2       3 UNK         0.5000 
     56 O          -6.0711  -14.0345  -48.5872 O.2       3 UNK        -0.5000 
     57 CA         -4.3485  -13.9225  -50.2633 C.3       3 UNK         0.1400 
     58 CB         -5.3253  -13.4137  -51.3379 C.3       3 UNK        -0.1800 
     59 N          -3.0401  -13.3028  -50.5062 N.am      3 UNK        -0.5000 
     60 C          -1.8640  -13.7637  -50.0622 C.2       2 UNK         0.5000 
     61 O          -1.7536  -14.7879  -49.3874 O.2       2 UNK        -0.5000 
     62 CA         -0.6307  -12.8938  -50.3932 C.3       2 UNK         0.1400 
     63 CB         -0.7879  -11.4706  -49.8255 C.3       2 UNK        -0.1800 
     64 N           0.6042  -13.4562  -49.8510 N.am      2 UNK        -0.5000 
     65 C           1.2900  -14.4889  -50.3591 C.2       1 UNK         0.5000 
     66 O           1.0150  -15.0193  -51.4354 O.2       1 UNK        -0.5000 
     67 C          -0.3721  -22.8323  -45.9899 C.2       11 UNK         0.5000 
     68 O          -1.2443  -22.9300  -46.8560 O.2       11 UNK        -0.5000 
     69 N          -0.6265  -22.7005  -44.6782 N.am      12 UNK        -0.5000 
     70 CA         -1.9548  -22.7380  -44.0679 C.3       12 UNK         0.1400 
     71 CB         -1.8636  -22.3095  -42.5949 C.3       12 UNK        -0.1800 
     72 C          -2.6130  -24.1238  -44.1851 C.2       12 UNK         0.5000 
     73 O          -3.7777  -24.2040  -44.5718 O.2       12 UNK        -0.5000 
     74 N          -1.8535  -25.1887  -43.8868 N.am      13 UNK        -0.5000 
     75 CA         -2.2872  -26.5862  -43.9853 C.3       13 UNK         0.1400 
     76 CB         -1.2180  -27.5036  -43.3733 C.3       13 UNK        -0.1800 
     77 C          -2.6076  -27.0179  -45.4275 C.2       13 UNK         0.5000 
     78 O          -3.5566  -27.7730  -45.6406 O.2       13 UNK        -0.5000 
     79 N          -1.8394  -26.4954  -46.3929 N.am      14 UNK        -0.5000 
     80 CA         -2.0879  -26.6404  -47.8282 C.3       14 UNK         0.1400 
     81 CB         -0.8174  -26.2319  -48.5912 C.3       14 UNK        -0.1800 
     82 C          -3.2949  -25.8181  -48.3275 C.2       14 UNK         0.5000 
     83 O          -3.7594  -26.0590  -49.4422 O.2       14 UNK        -0.5000 
     84 N          -3.7570  -24.8535  -47.5144 N.am      15 UNK        -0.5000 
     85 CA         -4.8049  -23.8640  -47.7891 C.3       15 UNK         0.1400 
     86 CB         -6.1797  -24.5464  -47.9421 C.3       15 UNK        -0.1800 
     87 C          -4.4543  -22.9426  -48.9748 C.2       15 UNK         0.5000 
     88 O          -5.3484  -22.4714  -49.6775 O.2       15 UNK        -0.5000 
     89 N          -3.1518  -22.7065  -49.1809 N.am      16 UNK        -0.5000 
     90 CA         -2.6053  -22.0182  -50.3467 C.3       16 UNK         0.1400 
     91 CB         -1.0830  -22.2071  -50.3634 C.3       16 UNK        -0.1800 
     92 C          -2.9914  -20.5322  -50.3849 C.2       16 UNK         0.5000 
     93 O          -3.4917  -20.0558  -51.4032 O.2       16 UNK        -0.5000 
     94 N          -2.7953  -19.8385  -49.2557 N.am      17 UNK        -0.5000 
     95 CA         -3.1832  -18.4372  -49.0842 C.3       17 UNK         0.1400 
     96 CB         -2.5496  -17.8870  -47.7989 C.3       17 UNK        -0.1800 
     97 C          -4.7130  -18.2581  -49.0726 C.2       17 UNK         0.5000 
     98 O          -5.2185  -17.3049  -49.6625 O.2       17 UNK        -0.5000 
     99 N          -5.4234  -19.2132  -48.4535 N.am      18 UNK        -0.5000 
    100 CA        -6.8857  -19.2509  -48.3661 C.3       18 UNK         0.1400 
    101 CB        -7.3056  -20.3632  -47.3933 C.3       18 UNK        -0.1800 
    102 C         -7.5795  -19.4284  -49.7313 C.2       18 UNK         0.5000 
    103 O         -8.6752  -18.9014  -49.9259 O.2       18 UNK        -0.5000 
    104 N         -6.9207  -20.1360  -50.6600 N.am      19 UNK        -0.5000 
    105 CA        -7.3549  -20.3120  -52.0474 C.3       19 UNK         0.1400 
    106 CB        -6.5693  -21.4745  -52.6747 C.3       19 UNK        -0.1800 
    107 C         -7.2112  -19.0390  -52.9073 C.2       19 UNK         0.5000 
    108 O         -7.7714  -18.9949  -54.0031 O.2       19 UNK        -0.5000 
    109 N         -6.4581  -18.0417  -52.4175 N.am      20 UNK        -0.5000 
    110 CA        -6.1990  -16.7050  -52.9705 C.3       20 UNK         0.1400 
    111 CB        -7.5036  -15.9025  -53.1271 C.3       20 UNK        -0.1800 
    112 C         -5.3691  -16.6701  -54.2688 C.2       20 UNK         0.5000 
    113 O         -4.5450  -15.7683  -54.4254 O.2       20 UNK        -0.5000 
    114 N         -5.5596  -17.6547  -55.1568 N.am      21 UNK        -0.5000 
    115 CA        -4.8831  -17.8136  -56.4504 C.3       21 UNK         0.1400 
    116 CB        -5.4818  -19.0314  -57.1707 C.3       21 UNK        -0.1800 
    117 C         -3.3479  -17.9423  -56.3586 C.2       21 UNK         0.5000 
    118 O         -2.6527  -17.6576  -57.3346 O.2       21 UNK        -0.5000 
    119 N         -2.8537  -18.3454  -55.1828 N.am      22 UNK        -0.5000 
    120 CA        -1.4382  -18.3273  -54.7922 C.3       22 UNK         0.1400 
    121 C         -0.8276  -16.8942  -54.6751 C.2       22 UNK         0.5000 
    122 N         -1.6189  -15.8402  -54.5033 N.am      22 UNK        -0.7600 
    123 O          0.3843  -16.7293  -54.7776 O.2       22 UNK        -0.5000 
    124 C124       -1.2661  -19.1457  -53.4895 C.3       23 UNK        -0.0398 
    125 S125        0.4466  -19.6153  -53.0793 S.3       23 UNK        -0.2404 
    126 C126        0.5951  -18.8070  -51.4584 C.3       23 UNK        -0.0205 
    127 H127        1.9577  -14.5546  -45.0064 H         1 UNK         0.0600 
    128 H128        1.2741  -13.1400  -45.8037 H         1 UNK         0.0600 
    129 H129        3.0175  -13.4354  -45.8647 H         1 UNK         0.0600 
    130 H130        3.2598  -13.6403  -48.1246 H         1 UNK         0.3000 
    131 H131        2.2917  -16.0802  -49.3792 H         1 UNK         0.0600 
    132 H132        3.7136  -15.2271  -51.3457 H         1 UNK         0.0800 
    133 H133        4.1235  -13.8464  -50.3780 H         1 UNK         0.0800 
    134 H134        6.3037  -17.7495  -50.4223 H         1 UNK         0.0800 
    135 H135        5.3596  -16.9618  -51.6546 H         1 UNK         0.0800 
    136 H136        2.8133  -17.2728  -51.6607 H         1 UNK         0.1150 
    137 H137        1.3996  -20.9115  -49.9219 H         1 UNK         0.1150 
    138 H138        5.3960  -19.5884  -49.1327 H         1 UNK         0.1150 
    139 H139        4.6999  -22.0071  -48.8530 H         1 UNK         0.0800 
    140 H140        3.0257  -22.4668  -48.9843 H         1 UNK         0.0800 
    141 H141        1.2018  -20.9988  -47.4682 H         1 UNK         0.0800 
    142 H142        1.4894  -20.8445  -45.7599 H         1 UNK         0.0800 
    143 H143        1.1730  -23.4384  -47.3379 H         1 UNK         0.0600 
    144 H144        2.5126  -23.1436  -44.8202 H         1 UNK         0.3000 
    145 H145        2.1909  -26.5493  -43.7928 H         1 UNK         0.0600 
    146 H146        4.0682  -26.4933  -45.4429 H         1 UNK         0.0600 
    147 H147        4.6625  -26.3333  -43.7979 H         1 UNK         0.0600 
    148 H148        4.5670  -24.9159  -44.8435 H         1 UNK         0.0600 
    149 H149        3.5441  -24.2856  -42.6741 H         1 UNK         0.3000 
    150 H150        0.8230  -22.9524  -40.8248 H         1 UNK         0.0600 
    151 H151        2.2790  -23.4018  -38.8728 H         1 UNK         0.0600 
    152 H152        1.5211  -24.8921  -39.4093 H         1 UNK         0.0600 
    153 H153        3.2089  -24.5815  -39.7981 H         1 UNK         0.0600 
    154 H154        3.5605  -22.2990  -40.7420 H         1 UNK         0.3000 
    155 H155        4.0070  -20.0788  -41.5873 H         1 UNK         0.0600 
    156 H156        4.8077  -21.7151  -44.0776 H         1 UNK         0.0600 
    157 H157        5.3628  -22.0253  -42.4373 H         1 UNK         0.0600 
    158 H158        5.8452  -20.5534  -43.2569 H         1 UNK         0.0600 
    159 H159        2.5196  -19.7116  -44.0125 H         1 UNK         0.3000 
    160 H160        3.4445  -16.3204  -44.3199 H         1 UNK         0.0600 
    161 H161        3.9814  -18.5026  -46.4106 H         1 UNK         0.0600 
    162 H162        5.1554  -17.3219  -45.8488 H         1 UNK         0.0600 
    163 H163        3.7493  -16.7941  -46.7508 H         1 UNK         0.0600 
    164 H164        1.6506  -17.8571  -45.8668 H         1 UNK         0.3000 
    165 H165       -0.5415  -17.4129  -45.6713 H         1 UNK         0.0600 
    166 H166       -0.1794  -19.7298  -44.7723 H         1 UNK         0.0600 
    167 H167       -0.9105  -19.2541  -43.2500 H         1 UNK         0.0600 
    168 H168       -1.8779  -19.2997  -44.7253 H         1 UNK         0.0600 
    169 H169       -2.2524  -17.2173  -43.4333 H         1 UNK         0.3000 
    170 H170       -3.7121  -15.5273  -43.4136 H         1 UNK         0.0600 
    171 H171       -1.8602  -13.3257  -42.3405 H         1 UNK         0.0600 
    172 H172       -2.2153  -14.8453  -41.5289 H         1 UNK         0.0600 
    173 H173       -3.4955  -13.6668  -41.7724 H         1 UNK         0.0600 
    174 H174       -3.3015  -12.7885  -44.2445 H         1 UNK         0.3000 
    175 H175       -5.5250  -12.6531  -46.4544 H         1 UNK         0.0600 
    176 H176       -4.0133  -10.6802  -46.8199 H         1 UNK         0.0600 
    177 H177       -4.0519  -11.1736  -45.1419 H         1 UNK         0.0600 
    178 H178       -2.6632  -11.5895  -46.1503 H         1 UNK         0.0600 
    179 H179       -3.1792  -12.8696  -48.2379 H         1 UNK         0.3000 
    180 H180       -4.2403  -15.0005  -50.3897 H         1 UNK         0.0600 
    181 H181       -5.4718  -12.3353  -51.2685 H         1 UNK         0.0600 
    182 H182       -6.3040  -13.8835  -51.2356 H         1 UNK         0.0600 
    183 H183       -4.9629  -13.6407  -52.3409 H         1 UNK         0.0600 
    184 H184       -3.0549  -12.4445  -51.0381 H         1 UNK         0.3000 
    185 H185       -0.5424  -12.8325  -51.4799 H         1 UNK         0.0600 
    186 H186       -1.6408  -10.9530  -50.2654 H         1 UNK         0.0600 
    187 H187       -0.9316  -11.4817  -48.7441 H         1 UNK         0.0600 
    188 H188        0.0927  -10.8638  -50.0377 H         1 UNK         0.0600 
    189 H189        0.8833  -13.1230  -48.9409 H         1 UNK         0.3000 
    190 H190        0.1590  -22.5769  -44.0483 H         1 UNK         0.3000 
    191 H191       -2.5828  -22.0168  -44.5953 H         1 UNK         0.0600 
    192 H192       -1.3426  -21.3606  -42.4829 H         1 UNK         0.0600 
    193 H193       -2.8587  -22.1889  -42.1656 H         1 UNK         0.0600 
    194 H194       -1.3369  -23.0459  -41.9891 H         1 UNK         0.0600 
    195 H195       -0.9212  -25.0355  -43.5101 H         1 UNK         0.3000 
    196 H196       -3.2020  -26.6921  -43.3987 H         1 UNK         0.0600 
    197 H197       -0.2624  -27.4066  -43.8896 H         1 UNK         0.0600 
    198 H198       -1.5193  -28.5502  -43.4315 H         1 UNK         0.0600 
    199 H199       -1.0553  -27.2712  -42.3209 H         1 UNK         0.0600 
    200 H200       -1.0278  -25.9477  -46.1264 H         1 UNK         0.3000 
    201 H201       -2.2939  -27.6915  -48.0402 H         1 UNK         0.0600 
    202 H202       -0.9487  -26.3519  -49.6673 H         1 UNK         0.0600 
    203 H203        0.0336  -26.8469  -48.2977 H         1 UNK         0.0600 
    204 H204       -0.5557  -25.1895  -48.4066 H         1 UNK         0.0600 
    205 H205       -3.3134  -24.7537  -46.6100 H         1 UNK         0.3000 
    206 H206       -4.8535  -23.2180  -46.9119 H         1 UNK         0.0600 
    207 H207       -6.2314  -25.1575  -48.8435 H         1 UNK         0.0600 
    208 H208       -6.3966  -25.1879  -47.0880 H         1 UNK         0.0600 
    209 H209       -6.9803  -23.8088  -48.0038 H         1 UNK         0.0600 
    210 H210       -2.4852  -23.0675  -48.5065 H         1 UNK         0.3000 
    211 H211       -3.0164  -22.4902  -51.2416 H         1 UNK         0.0600 
    212 H212       -0.6343  -21.7056  -51.2205 H         1 UNK         0.0600 
    213 H213       -0.8195  -23.2627  -50.4325 H         1 UNK         0.0600 
    214 H214       -0.6233  -21.8094  -49.4588 H         1 UNK         0.0600 
    215 H215       -2.3961  -20.3108  -48.4579 H         1 UNK         0.3000 
    216 H216       -2.7871  -17.8653  -49.9267 H         1 UNK         0.0600 
    217 H217       -2.8885  -18.4255  -46.9136 H         1 UNK         0.0600 
    218 H218       -1.4623  -17.9501  -47.8422 H         1 UNK         0.0600 
    219 H219       -2.8034  -16.8349  -47.6606 H         1 UNK         0.0600 
    220 H220       -4.9253  -19.9791  -48.0274 H         1 UNK         0.3000 
    221 H221       -7.2164  -18.2953  -47.9536 H         1 UNK         0.0600 
    222 H222       -6.9914  -21.3455  -47.7451 H         1 UNK         0.0600 
    223 H223       -6.8767  -20.2065  -46.4034 H         1 UNK         0.0600 
    224 H224       -8.3898  -20.3895  -47.2763 H         1 UNK         0.0600 
    225 H225       -6.0627  -20.6066  -50.3948 H         1 UNK         0.3000 
    226 H226       -8.4129  -20.5815  -52.0423 H         1 UNK         0.0600 
    227 H227       -6.7209  -22.3987  -52.1169 H         1 UNK         0.0600 
    228 H228       -6.8920  -21.6592  -53.7001 H         1 UNK         0.0600 
    229 H229       -5.4987  -21.2707  -52.6996 H         1 UNK         0.0600 
    230 H230       -6.0299  -18.2001  -51.5131 H         1 UNK         0.3000 
    231 H231       -5.5963  -16.2008  -52.2147 H         1 UNK         0.0600 
    232 H232       -8.1678  -16.3425  -53.8713 H         1 UNK         0.0600 
    233 H233       -7.2957  -14.8796  -53.4432 H         1 UNK         0.0600 
    234 H234       -8.0458  -15.8471  -52.1830 H         1 UNK         0.0600 
    235 H235       -6.2938  -18.3238  -54.9409 H         1 UNK         0.3000 
    236 H236       -5.0971  -16.9225  -57.0435 H         1 UNK         0.0600 
    237 H237       -5.3253  -19.9495  -56.6027 H         1 UNK         0.0600 
    238 H238       -6.5544  -18.9110  -57.3242 H         1 UNK         0.0600 
    239 H239       -5.0272  -19.1697  -58.1526 H         1 UNK         0.0600 
    240 H240       -3.5138  -18.5593  -54.4501 H         1 UNK         0.3000 
    241 H241       -0.8858  -18.8374  -55.5835 H         1 UNK         0.0600 
    242 H242       -1.2007  -14.9263  -54.4431 H         1 UNK         0.3800 
    243 H243       -2.6300  -15.9285  -54.4660 H         1 UNK         0.3800 
    244 H244       -1.7155  -18.6038  -52.6560 H         1 UNK         0.0800 
    245 H245       -1.8231  -20.0804  -53.5693 H         1 UNK         0.0800 
    246 H246       -0.1857  -19.1733  -50.7907 H         1 UNK         0.0800 
    247 H247        0.4222  -17.7353  -51.5735 H         1 UNK         0.0800 
@<TRIPOS>BOND
     1    1    2 1    
     2    1  127 1    
     3    1  128 1    
     4    1  129 1    
     5    2    3 2    
     6    2    4 am   BACKBONE|DICT|INTERRES
     7    4    5 1    
     8    4  130 1    
     9    5    6 1    
    10    5   65 1    
    11    5  131 1    
    12    6    7 1    
    13    6  132 1    
    14    6  133 1    
    15    7    8 1    
    16    8    9 1    
    17    8  134 1    
    18    8  135 1    
    19    9   10 ar   
    20    9   14 ar   
    21   10   11 ar   
    22   10  136 1    
    23   11   12 ar   
    24   11  126 1    
    25   12   13 ar   
    26   12  137 1    
    27   13   14 ar   
    28   13   15 1    
    29   14  138 1    
    30   15   16 1    
    31   15  139 1    
    32   15  140 1    
    33   16   17 1    
    34   17   18 1    
    35   17  141 1    
    36   17  142 1    
    37   18   19 1    
    38   18   67 1    
    39   18  143 1    
    40   19   20 am   BACKBONE|DICT|INTERRES
    41   19  144 1    
    42   20   21 2    
    43   20   22 1    
    44   22   23 1    
    45   22   24 1    
    46   22  145 1    
    47   23  146 1    
    48   23  147 1    
    49   23  148 1    
    50   24   25 am   BACKBONE|DICT|INTERRES
    51   24  149 1    
    52   25   26 2    
    53   25   27 1    
    54   27   28 1    
    55   27   29 1    
    56   27  150 1    
    57   28  151 1    
    58   28  152 1    
    59   28  153 1    
    60   29   30 am   BACKBONE|DICT|INTERRES
    61   29  154 1    
    62   30   31 2    
    63   30   32 1    
    64   32   33 1    
    65   32   34 1    
    66   32  155 1    
    67   33  156 1    
    68   33  157 1    
    69   33  158 1    
    70   34   35 am   BACKBONE|DICT|INTERRES
    71   34  159 1    
    72   35   36 2    
    73   35   37 1    
    74   37   38 1    
    75   37   39 1    
    76   37  160 1    
    77   38  161 1    
    78   38  162 1    
    79   38  163 1    
    80   39   40 am   BACKBONE|DICT|INTERRES
    81   39  164 1    
    82   40   41 2    
    83   40   42 1    
    84   42   43 1    
    85   42   44 1    
    86   42  165 1    
    87   43  166 1    
    88   43  167 1    
    89   43  168 1    
    90   44   45 am   BACKBONE|DICT|INTERRES
    91   44  169 1    
    92   45   46 2    
    93   45   47 1    
    94   47   48 1    
    95   47   49 1    
    96   47  170 1    
    97   48  171 1    
    98   48  172 1    
    99   48  173 1    
   100   49   50 am   BACKBONE|DICT|INTERRES
   101   49  174 1    
   102   50   51 2    
   103   50   52 1    
   104   52   53 1    
   105   52   54 1    
   106   52  175 1    
   107   53  176 1    
   108   53  177 1    
   109   53  178 1    
   110   54   55 am   BACKBONE|DICT|INTERRES
   111   54  179 1    
   112   55   56 2    
   113   55   57 1    
   114   57   58 1    
   115   57   59 1    
   116   57  180 1    
   117   58  181 1    
   118   58  182 1    
   119   58  183 1    
   120   59   60 am   BACKBONE|DICT|INTERRES
   121   59  184 1    
   122   60   61 2    
   123   60   62 1    
   124   62   63 1    
   125   62   64 1    
   126   62  185 1    
   127   63  186 1    
   128   63  187 1    
   129   63  188 1    
   130   64   65 am   BACKBONE|DICT|INTERRES
   131   64  189 1    
   132   65   66 2    
   133   67   68 2    
   134   67   69 am   BACKBONE|DICT|INTERRES
   135   69   70 1    
   136   69  190 1    
   137   70   71 1    
   138   70   72 1    
   139   70  191 1    
   140   71  192 1    
   141   71  193 1    
   142   71  194 1    
   143   72   73 2    
   144   72   74 am   BACKBONE|DICT|INTERRES
   145   74   75 1    
   146   74  195 1    
   147   75   76 1    
   148   75   77 1    
   149   75  196 1    
   150   76  197 1    
   151   76  198 1    
   152   76  199 1    
   153   77   78 2    
   154   77   79 am   BACKBONE|DICT|INTERRES
   155   79   80 1    
   156   79  200 1    
   157   80   81 1    
   158   80   82 1    
   159   80  201 1    
   160   81  202 1    
   161   81  203 1    
   162   81  204 1    
   163   82   83 2    
   164   82   84 am   BACKBONE|DICT|INTERRES
   165   84   85 1    
   166   84  205 1    
   167   85   86 1    
   168   85   87 1    
   169   85  206 1    
   170   86  207 1    
   171   86  208 1    
   172   86  209 1    
   173   87   88 2    
   174   87   89 am   BACKBONE|DICT|INTERRES
   175   89   90 1    
   176   89  210 1    
   177   90   91 1    
   178   90   92 1    
   179   90  211 1    
   180   91  212 1    
   181   91  213 1    
   182   91  214 1    
   183   92   93 2    
   184   92   94 am   BACKBONE|DICT|INTERRES
   185   94   95 1    
   186   94  215 1    
   187   95   96 1    
   188   95   97 1    
   189   95  216 1    
   190   96  217 1    
   191   96  218 1    
   192   96  219 1    
   193   97   98 2    
   194   97   99 am   BACKBONE|DICT|INTERRES
   195   99  100 1    
   196   99  220 1    
   197  100  101 1    
   198  100  102 1    
   199  100  221 1    
   200  101  222 1    
   201  101  223 1    
   202  101  224 1    
   203  102  103 2    
   204  102  104 am   BACKBONE|DICT|INTERRES
   205  104  105 1    
   206  104  225 1    
   207  105  106 1    
   208  105  107 1    
   209  105  226 1    
   210  106  227 1    
   211  106  228 1    
   212  106  229 1    
   213  107  108 2    
   214  107  109 am   BACKBONE|DICT|INTERRES
   215  109  110 1    
   216  109  230 1    
   217  110  111 1    
   218  110  112 1    
   219  110  231 1    
   220  111  232 1    
   221  111  233 1    
   222  111  234 1    
   223  112  113 2    
   224  112  114 am   BACKBONE|DICT|INTERRES
   225  114  115 1    
   226  114  235 1    
   227  115  116 1    
   228  115  117 1    
   229  115  236 1    
   230  116  237 1    
   231  116  238 1    
   232  116  239 1    
   233  117  118 2    
   234  117  119 am   BACKBONE|DICT|INTERRES
   235  119  120 1    
   236  119  240 1    
   237  120  121 1    
   238  120  124 1    
   239  120  241 1    
   240  121  122 am   BACKBONE|DICT|INTERRES
   241  121  123 2    
   242  122  242 1    
   243  122  243 1    
   244  124  125 1    
   245  124  244 1    
   246  124  245 1    
   247  125  126 1    
   248  126  246 1    
   249  126  247 1    
@<TRIPOS>SUBSTRUCTURE
     1 UNK         1 GROUP             0       ****    0 ROOT    
