@<TRIPOS>MOLECULE
3R540
247   249    1
SMALL
USER_CHARGES


@<TRIPOS>ATOM
      1 CA          6.6991  -13.2577  -46.6954 C.3       0 UNK        -0.1800 
      2 C           5.5406  -14.2422  -46.7465 C.2       0 UNK         0.5000 
      3 O           4.7513  -14.3111  -45.8029 O.2       0 UNK        -0.5000 
      4 N           5.4194  -14.9943  -47.8499 N.am      1 UNK        -0.5000 
      5 CA          4.3688  -15.9980  -48.0611 C.3       1 UNK         0.1400 
      6 C6          4.6110  -16.9119  -49.2882 C.3       23 UNK        -0.0398 
      7 S7          5.1382  -16.0804  -50.8324 S.3       23 UNK        -0.2404 
      8 C8          3.5981  -15.4481  -51.5946 C.3       23 UNK        -0.0205 
      9 C9          2.4257  -16.4250  -51.6539 C.ar      23 UNK        -0.0193 
     10 C10         1.1262  -15.9430  -51.4587 C.ar      23 UNK        -0.1150 
     11 C11         0.0243  -16.7984  -51.5484 C.ar      23 UNK        -0.0193 
     12 C12         0.2318  -18.1533  -51.8118 C.ar      23 UNK        -0.1150 
     13 C13         1.5208  -18.6524  -52.0035 C.ar      23 UNK        -0.0193 
     14 C14         2.6124  -17.7818  -51.9433 C.ar      23 UNK        -0.1150 
     15 C15         1.7306  -20.1326  -52.2761 C.3       23 UNK        -0.0205 
     16 S16         2.1048  -21.0431  -50.7464 S.3       23 UNK        -0.2404 
     17 C17         0.4879  -21.0269  -49.8976 C.3       23 UNK        -0.0398 
     18 CA          0.4954  -21.9384  -48.6487 C.3       11 UNK         0.1400 
     19 N           1.4789  -21.4948  -47.6594 N.am      11 UNK        -0.5000 
     20 C           1.8843  -22.2003  -46.5984 C.2       10 UNK         0.5000 
     21 O           1.4349  -23.3103  -46.3116 O.2       10 UNK        -0.5000 
     22 CA          2.9215  -21.5417  -45.6655 C.3       10 UNK         0.1400 
     23 CB          3.4902  -20.2081  -46.2036 C.3       10 UNK        -0.1800 
     24 N           2.3868  -21.3554  -44.3117 N.am      10 UNK        -0.5000 
     25 C           1.2578  -20.7137  -43.9785 C.2       9 UNK         0.5000 
     26 O           0.4938  -20.2039  -44.8023 O.2       9 UNK        -0.5000 
     27 CA          0.9356  -20.6496  -42.4761 C.3       9 UNK         0.1400 
     28 CB          1.9548  -19.7922  -41.7059 C.3       9 UNK        -0.1800 
     29 N          -0.3916  -20.0791  -42.2644 N.am      9 UNK        -0.5000 
     30 C          -1.3895  -20.6694  -41.5964 C.2       8 UNK         0.5000 
     31 O          -1.2987  -21.7870  -41.0865 O.2       8 UNK        -0.5000 
     32 CA         -2.6893  -19.8588  -41.4421 C.3       8 UNK         0.1400 
     33 CB         -3.5891  -20.3759  -40.3004 C.3       8 UNK        -0.1800 
     34 N          -2.3786  -18.4439  -41.2414 N.am      8 UNK        -0.5000 
     35 C          -3.2002  -17.4251  -41.5144 C.2       7 UNK         0.5000 
     36 O          -4.3467  -17.5763  -41.9398 O.2       7 UNK        -0.5000 
     37 CA         -2.6646  -15.9983  -41.2770 C.3       7 UNK         0.1400 
     38 CB         -1.3304  -15.9376  -40.5048 C.3       7 UNK        -0.1800 
     39 N          -2.4936  -15.3441  -42.5684 N.am      7 UNK        -0.5000 
     40 C          -3.4315  -14.6318  -43.2065 C.2       6 UNK         0.5000 
     41 O          -4.5088  -14.3091  -42.7033 O.2       6 UNK        -0.5000 
     42 CA         -3.1247  -14.2088  -44.6577 C.3       6 UNK         0.1400 
     43 CB         -2.6707  -12.7419  -44.7085 C.3       6 UNK        -0.1800 
     44 N          -2.1197  -15.0535  -45.3087 N.am      6 UNK        -0.5000 
     45 C          -2.3147  -16.3325  -45.6622 C.2       5 UNK         0.5000 
     46 O          -3.3948  -16.9118  -45.5529 O.2       5 UNK        -0.5000 
     47 CA         -1.0983  -17.1015  -46.2106 C.3       5 UNK         0.1400 
     48 CB         -1.0083  -16.9473  -47.7360 C.3       5 UNK        -0.1800 
     49 N           0.1684  -16.6935  -45.6046 N.am      5 UNK        -0.5000 
     50 C           0.4962  -16.8650  -44.3163 C.2       4 UNK         0.5000 
     51 O          -0.2412  -17.3970  -43.4852 O.2       4 UNK        -0.5000 
     52 CA          1.8568  -16.2966  -43.8699 C.3       4 UNK         0.1400 
     53 CB          3.0168  -17.1881  -44.3336 C.3       4 UNK        -0.1800 
     54 N           2.0752  -14.9369  -44.3599 N.am      4 UNK        -0.5000 
     55 C           1.3468  -13.8718  -43.9979 C.2       3 UNK         0.5000 
     56 O           0.4495  -13.9077  -43.1564 O.2       3 UNK        -0.5000 
     57 CA          1.6470  -12.5552  -44.7345 C.3       3 UNK         0.1400 
     58 CB          2.8256  -11.8165  -44.0828 C.3       3 UNK        -0.1800 
     59 N           1.9304  -12.7777  -46.1528 N.am      3 UNK        -0.5000 
     60 C           1.0095  -13.1445  -47.0554 C.2       2 UNK         0.5000 
     61 O          -0.1823  -13.2965  -46.7924 O.2       2 UNK        -0.5000 
     62 CA          1.5132  -13.4362  -48.4795 C.3       2 UNK         0.1400 
     63 CB          1.6460  -12.1414  -49.2937 C.3       2 UNK        -0.1800 
     64 N           2.7910  -14.1477  -48.4820 N.am      2 UNK        -0.5000 
     65 C           2.9442  -15.4120  -48.0643 C.2       1 UNK         0.5000 
     66 O           2.0193  -16.1047  -47.6478 O.2       1 UNK        -0.5000 
     67 C          -0.9258  -22.1106  -48.0686 C.2       11 UNK         0.5000 
     68 O          -1.7208  -22.8326  -48.6677 O.2       11 UNK        -0.5000 
     69 N          -1.2440  -21.4767  -46.9286 N.am      12 UNK        -0.5000 
     70 CA         -2.5109  -21.7075  -46.2279 C.3       12 UNK         0.1400 
     71 CB         -2.8697  -20.4975  -45.3558 C.3       12 UNK        -0.1800 
     72 C          -2.4893  -23.0062  -45.4018 C.2       12 UNK         0.5000 
     73 O          -3.5313  -23.6463  -45.2628 O.2       12 UNK        -0.5000 
     74 N          -1.3093  -23.3904  -44.8954 N.am      13 UNK        -0.5000 
     75 CA         -1.0984  -24.6480  -44.1771 C.3       13 UNK         0.1400 
     76 CB          0.1423  -24.5316  -43.2794 C.3       13 UNK        -0.1800 
     77 C          -0.9656  -25.8392  -45.1412 C.2       13 UNK         0.5000 
     78 O          -1.4796  -26.9201  -44.8490 O.2       13 UNK        -0.5000 
     79 N          -0.2957  -25.6191  -46.2804 N.am      14 UNK        -0.5000 
     80 CA         -0.0771  -26.5938  -47.3482 C.3       14 UNK         0.1400 
     81 CB          1.0983  -26.1208  -48.2204 C.3       14 UNK        -0.1800 
     82 C          -1.3573  -26.8422  -48.1716 C.2       14 UNK         0.5000 
     83 O          -1.4633  -26.3872  -49.3115 O.2       14 UNK        -0.5000 
     84 N          -2.3177  -27.5471  -47.5575 N.am      15 UNK        -0.5000 
     85 CA         -3.5869  -28.0208  -48.1264 C.3       15 UNK         0.1400 
     86 CB         -3.3201  -29.0983  -49.1984 C.3       15 UNK        -0.1800 
     87 C          -4.5148  -26.8968  -48.6386 C.2       15 UNK         0.5000 
     88 O          -5.3319  -27.1370  -49.5292 O.2       15 UNK        -0.5000 
     89 N          -4.3721  -25.6937  -48.0626 N.am      16 UNK        -0.5000 
     90 CA         -5.0885  -24.4603  -48.4003 C.3       16 UNK         0.1400 
     91 CB         -6.5802  -24.5676  -48.0212 C.3       16 UNK        -0.1800 
     92 C          -4.8691  -23.9926  -49.8555 C.2       16 UNK         0.5000 
     93 O          -5.7629  -23.3815  -50.4435 O.2       16 UNK        -0.5000 
     94 N          -3.6667  -24.2381  -50.4000 N.am      17 UNK        -0.5000 
     95 CA         -3.2192  -23.7930  -51.7253 C.3       17 UNK         0.1400 
     96 CB         -1.7837  -24.2820  -51.9661 C.3       17 UNK        -0.1800 
     97 C          -3.3048  -22.2679  -51.9338 C.2       17 UNK         0.5000 
     98 O          -3.5221  -21.8199  -53.0598 O.2       17 UNK        -0.5000 
     99 N          -3.1996  -21.5015  -50.8387 N.am      18 UNK        -0.5000 
    100 CA        -3.4248  -20.0565  -50.7813 C.3       18 UNK         0.1400 
    101 CB        -3.2333  -19.5591  -49.3424 C.3       18 UNK        -0.1800 
    102 C         -4.7963  -19.6019  -51.3126 C.2       18 UNK         0.5000 
    103 O         -4.8772  -18.5164  -51.8850 O.2       18 UNK        -0.5000 
    104 N         -5.8355  -20.4347  -51.1514 N.am      19 UNK        -0.5000 
    105 CA        -7.1830  -20.1585  -51.6538 C.3       19 UNK         0.1400 
    106 CB        -8.1806  -21.1331  -51.0101 C.3       19 UNK        -0.1800 
    107 C         -7.2720  -20.2264  -53.1901 C.2       19 UNK         0.5000 
    108 O         -8.0866  -19.5160  -53.7795 O.2       19 UNK        -0.5000 
    109 N         -6.4257  -21.0584  -53.8114 N.am      20 UNK        -0.5000 
    110 CA        -6.2938  -21.1617  -55.2624 C.3       20 UNK         0.1400 
    111 CB        -5.8234  -22.5770  -55.6341 C.3       20 UNK        -0.1800 
    112 C         -5.3245  -20.0996  -55.8074 C.2       20 UNK         0.5000 
    113 O         -5.6186  -19.4760  -56.8275 O.2       20 UNK        -0.5000 
    114 N         -4.1897  -19.9149  -55.1187 N.am      21 UNK        -0.5000 
    115 CA        -3.1152  -19.0040  -55.5117 C.3       21 UNK         0.1400 
    116 CB        -1.8610  -19.3190  -54.6831 C.3       21 UNK        -0.1800 
    117 C         -3.4875  -17.5159  -55.3826 C.2       21 UNK         0.5000 
    118 O         -3.1715  -16.7388  -56.2850 O.2       21 UNK        -0.5000 
    119 N         -4.1382  -17.1499  -54.2715 N.am      22 UNK        -0.5000 
    120 CA        -4.4935  -15.7657  -53.9120 C.3       22 UNK         0.1400 
    121 C         -6.0271  -15.5429  -53.7697 C.2       22 UNK         0.5000 
    122 N         -6.8766  -16.5157  -54.0747 N.am      22 UNK        -0.7600 
    123 O         -6.4623  -14.4561  -53.3983 O.2       22 UNK        -0.5000 
    124 C124       -3.7276  -15.2823  -52.6486 C.3       23 UNK        -0.0398 
    125 S125       -1.9131  -15.3405  -52.8584 S.3       23 UNK        -0.2404 
    126 C126       -1.3892  -16.2624  -51.3799 C.3       23 UNK        -0.0205 
    127 H127        7.3465  -13.4861  -45.8488 H         1 UNK         0.0600 
    128 H128        6.3224  -12.2422  -46.5736 H         1 UNK         0.0600 
    129 H129        7.3006  -13.2920  -47.6040 H         1 UNK         0.0600 
    130 H130        6.0843  -14.8936  -48.6045 H         1 UNK         0.3000 
    131 H131        4.4086  -16.6525  -47.1887 H         1 UNK         0.0600 
    132 H132        5.4136  -17.6062  -49.0365 H         1 UNK         0.0800 
    133 H133        3.7487  -17.5533  -49.4756 H         1 UNK         0.0800 
    134 H134        3.8302  -15.1427  -52.6154 H         1 UNK         0.0800 
    135 H135        3.3058  -14.5357  -51.0766 H         1 UNK         0.0800 
    136 H136        0.9651  -14.8928  -51.2612 H         1 UNK         0.1150 
    137 H137       -0.6090  -18.8253  -51.8707 H         1 UNK         0.1150 
    138 H138        3.6089  -18.1666  -52.1076 H         1 UNK         0.1150 
    139 H139        0.8535  -20.5655  -52.7603 H         1 UNK         0.0800 
    140 H140        2.5583  -20.2618  -52.9749 H         1 UNK         0.0800 
    141 H141       -0.2707  -21.3543  -50.6109 H         1 UNK         0.0800 
    142 H142        0.2400  -20.0010  -49.6209 H         1 UNK         0.0800 
    143 H143        0.8034  -22.9312  -48.9786 H         1 UNK         0.0600 
    144 H144        1.8846  -20.5837  -47.8141 H         1 UNK         0.3000 
    145 H145        3.7488  -22.2479  -45.5827 H         1 UNK         0.0600 
    146 H146        3.9712  -20.3456  -47.1730 H         1 UNK         0.0600 
    147 H147        2.7168  -19.4479  -46.3191 H         1 UNK         0.0600 
    148 H148        4.2469  -19.8084  -45.5286 H         1 UNK         0.0600 
    149 H149        2.9333  -21.7776  -43.5745 H         1 UNK         0.3000 
    150 H150        0.9881  -21.6704  -42.0951 H         1 UNK         0.0600 
    151 H151        2.9813  -20.1017  -41.9045 H         1 UNK         0.0600 
    152 H152        1.7962  -19.8795  -40.6310 H         1 UNK         0.0600 
    153 H153        1.8689  -18.7367  -41.9612 H         1 UNK         0.0600 
    154 H154       -0.5511  -19.1898  -42.7331 H         1 UNK         0.3000 
    155 H155       -3.2320  -19.9682  -42.3827 H         1 UNK         0.0600 
    156 H156       -3.0902  -20.2989  -39.3338 H         1 UNK         0.0600 
    157 H157       -3.8562  -21.4223  -40.4528 H         1 UNK         0.0600 
    158 H158       -4.5217  -19.8150  -40.2411 H         1 UNK         0.0600 
    159 H159       -1.4425  -18.2412  -40.9184 H         1 UNK         0.3000 
    160 H160       -3.4127  -15.4670  -40.6853 H         1 UNK         0.0600 
    161 H161       -0.5129  -16.4135  -41.0463 H         1 UNK         0.0600 
    162 H162       -1.4160  -16.4201  -39.5303 H         1 UNK         0.0600 
    163 H163       -1.0379  -14.9030  -40.3240 H         1 UNK         0.0600 
    164 H164       -1.6489  -15.5800  -43.0731 H         1 UNK         0.3000 
    165 H165       -4.0544  -14.2937  -45.2240 H         1 UNK         0.0600 
    166 H166       -2.5476  -12.4028  -45.7371 H         1 UNK         0.0600 
    167 H167       -3.4060  -12.0876  -44.2387 H         1 UNK         0.0600 
    168 H168       -1.7230  -12.5958  -44.1903 H         1 UNK         0.0600 
    169 H169       -1.2238  -14.6227  -45.5062 H         1 UNK         0.3000 
    170 H170       -1.2416  -18.1584  -45.9828 H         1 UNK         0.0600 
    171 H171       -1.9605  -17.1767  -48.2112 H         1 UNK         0.0600 
    172 H172       -0.7436  -15.9282  -48.0191 H         1 UNK         0.0600 
    173 H173       -0.2604  -17.6183  -48.1591 H         1 UNK         0.0600 
    174 H174        0.8566  -16.2981  -46.2412 H         1 UNK         0.3000 
    175 H175        1.8642  -16.2666  -42.7784 H         1 UNK         0.0600 
    176 H176        3.0632  -17.2471  -45.4189 H         1 UNK         0.0600 
    177 H177        3.9747  -16.8082  -43.9780 H         1 UNK         0.0600 
    178 H178        2.9113  -18.2050  -43.9604 H         1 UNK         0.0600 
    179 H179        2.8250  -14.8035  -45.0290 H         1 UNK         0.3000 
    180 H180        0.7629  -11.9188  -44.6565 H         1 UNK         0.0600 
    181 H181        3.0076  -10.8581  -44.5692 H         1 UNK         0.0600 
    182 H182        3.7466  -12.3983  -44.1324 H         1 UNK         0.0600 
    183 H183        2.6228  -11.6136  -43.0304 H         1 UNK         0.0600 
    184 H184        2.8990  -12.7328  -46.4347 H         1 UNK         0.3000 
    185 H185        0.7693  -14.0693  -48.9675 H         1 UNK         0.0600 
    186 H186        1.9239  -12.3523  -50.3265 H         1 UNK         0.0600 
    187 H187        0.7004  -11.5980  -49.3175 H         1 UNK         0.0600 
    188 H188        2.3984  -11.4738  -48.8722 H         1 UNK         0.0600 
    189 H189        3.6058  -13.6374  -48.7892 H         1 UNK         0.3000 
    190 H190       -0.5514  -20.9074  -46.4518 H         1 UNK         0.3000 
    191 H191       -3.3099  -21.8127  -46.9640 H         1 UNK         0.0600 
    192 H192       -3.7808  -20.6824  -44.7855 H         1 UNK         0.0600 
    193 H193       -3.0551  -19.6196  -45.9730 H         1 UNK         0.0600 
    194 H194       -2.0818  -20.2538  -44.6456 H         1 UNK         0.0600 
    195 H195       -0.4862  -22.8454  -45.1104 H         1 UNK         0.3000 
    196 H196       -1.9593  -24.8367  -43.5319 H         1 UNK         0.0600 
    197 H197        1.0378  -24.2802  -43.8479 H         1 UNK         0.0600 
    198 H198       -0.0003  -23.7678  -42.5166 H         1 UNK         0.0600 
    199 H199        0.3369  -25.4707  -42.7598 H         1 UNK         0.0600 
    200 H200        0.1483  -24.7139  -46.4057 H         1 UNK         0.3000 
    201 H201        0.2132  -27.5440  -46.8951 H         1 UNK         0.0600 
    202 H202        2.0006  -25.9782  -47.6254 H         1 UNK         0.0600 
    203 H203        0.8747  -25.1794  -48.7198 H         1 UNK         0.0600 
    204 H204        1.3294  -26.8542  -48.9937 H         1 UNK         0.0600 
    205 H205       -2.1584  -27.7804  -46.5823 H         1 UNK         0.3000 
    206 H206       -4.1245  -28.4992  -47.3067 H         1 UNK         0.0600 
    207 H207       -2.6785  -29.8898  -48.8113 H         1 UNK         0.0600 
    208 H208       -4.2487  -29.5681  -49.5246 H         1 UNK         0.0600 
    209 H209       -2.8384  -28.6775  -50.0817 H         1 UNK         0.0600 
    210 H210       -3.6687  -25.6037  -47.3430 H         1 UNK         0.3000 
    211 H211       -4.6526  -23.6808  -47.7762 H         1 UNK         0.0600 
    212 H212       -7.0832  -23.6064  -48.1340 H         1 UNK         0.0600 
    213 H213       -6.7010  -24.8744  -46.9823 H         1 UNK         0.0600 
    214 H214       -7.1076  -25.2867  -48.6484 H         1 UNK         0.0600 
    215 H215       -2.9753  -24.7244  -49.8408 H         1 UNK         0.3000 
    216 H216       -3.8719  -24.2589  -52.4658 H         1 UNK         0.0600 
    217 H217       -1.0952  -23.8938  -51.2144 H         1 UNK         0.0600 
    218 H218       -1.4187  -23.9650  -52.9439 H         1 UNK         0.0600 
    219 H219       -1.7296  -25.3704  -51.9365 H         1 UNK         0.0600 
    220 H220       -2.9715  -21.9707  -49.9683 H         1 UNK         0.3000 
    221 H221       -2.6708  -19.5838  -51.4082 H         1 UNK         0.0600 
    222 H222       -2.1943  -19.6404  -49.0280 H         1 UNK         0.0600 
    223 H223       -3.8491  -20.1186  -48.6382 H         1 UNK         0.0600 
    224 H224       -3.5152  -18.5095  -49.2530 H         1 UNK         0.0600 
    225 H225       -5.6896  -21.3423  -50.7220 H         1 UNK         0.3000 
    226 H226       -7.4565  -19.1453  -51.3513 H         1 UNK         0.0600 
    227 H227       -7.9890  -22.1635  -51.3110 H         1 UNK         0.0600 
    228 H228       -8.1341  -21.0868  -49.9219 H         1 UNK         0.0600 
    229 H229       -9.2031  -20.8924  -51.3033 H         1 UNK         0.0600 
    230 H230       -5.7545  -21.5725  -53.2565 H         1 UNK         0.3000 
    231 H231       -7.2686  -21.0017  -55.7286 H         1 UNK         0.0600 
    232 H232       -4.8483  -22.8093  -55.2050 H         1 UNK         0.0600 
    233 H233       -5.7394  -22.6869  -56.7160 H         1 UNK         0.0600 
    234 H234       -6.5300  -23.3301  -55.2850 H         1 UNK         0.0600 
    235 H235       -4.0068  -20.5106  -54.3154 H         1 UNK         0.3000 
    236 H236       -2.8803  -19.1960  -56.5608 H         1 UNK         0.0600 
    237 H237       -2.0513  -19.1876  -53.6197 H         1 UNK         0.0600 
    238 H238       -1.5294  -20.3456  -54.8395 H         1 UNK         0.0600 
    239 H239       -1.0335  -18.6614  -54.9529 H         1 UNK         0.0600 
    240 H240       -4.3680  -17.8435  -53.5650 H         1 UNK         0.3000 
    241 H241       -4.2066  -15.0998  -54.7273 H         1 UNK         0.0600 
    242 H242       -7.8674  -16.3578  -53.9825 H         1 UNK         0.3800 
    243 H243       -6.5432  -17.4126  -54.3890 H         1 UNK         0.3800 
    244 H244       -4.0235  -15.8744  -51.7815 H         1 UNK         0.0800 
    245 H245       -3.9904  -14.2498  -52.4126 H         1 UNK         0.0800 
    246 H246       -1.4380  -15.6086  -50.5082 H         1 UNK         0.0800 
    247 H247       -2.0829  -17.0836  -51.1943 H         1 UNK         0.0800 
@<TRIPOS>BOND
     1    1    2 1    
     2    1  127 1    
     3    1  128 1    
     4    1  129 1    
     5    2    3 2    
     6    2    4 am   BACKBONE|DICT|INTERRES
     7    4    5 1    
     8    4  130 1    
     9    5    6 1    
    10    5   65 1    
    11    5  131 1    
    12    6    7 1    
    13    6  132 1    
    14    6  133 1    
    15    7    8 1    
    16    8    9 1    
    17    8  134 1    
    18    8  135 1    
    19    9   10 ar   
    20    9   14 ar   
    21   10   11 ar   
    22   10  136 1    
    23   11   12 ar   
    24   11  126 1    
    25   12   13 ar   
    26   12  137 1    
    27   13   14 ar   
    28   13   15 1    
    29   14  138 1    
    30   15   16 1    
    31   15  139 1    
    32   15  140 1    
    33   16   17 1    
    34   17   18 1    
    35   17  141 1    
    36   17  142 1    
    37   18   19 1    
    38   18   67 1    
    39   18  143 1    
    40   19   20 am   BACKBONE|DICT|INTERRES
    41   19  144 1    
    42   20   21 2    
    43   20   22 1    
    44   22   23 1    
    45   22   24 1    
    46   22  145 1    
    47   23  146 1    
    48   23  147 1    
    49   23  148 1    
    50   24   25 am   BACKBONE|DICT|INTERRES
    51   24  149 1    
    52   25   26 2    
    53   25   27 1    
    54   27   28 1    
    55   27   29 1    
    56   27  150 1    
    57   28  151 1    
    58   28  152 1    
    59   28  153 1    
    60   29   30 am   BACKBONE|DICT|INTERRES
    61   29  154 1    
    62   30   31 2    
    63   30   32 1    
    64   32   33 1    
    65   32   34 1    
    66   32  155 1    
    67   33  156 1    
    68   33  157 1    
    69   33  158 1    
    70   34   35 am   BACKBONE|DICT|INTERRES
    71   34  159 1    
    72   35   36 2    
    73   35   37 1    
    74   37   38 1    
    75   37   39 1    
    76   37  160 1    
    77   38  161 1    
    78   38  162 1    
    79   38  163 1    
    80   39   40 am   BACKBONE|DICT|INTERRES
    81   39  164 1    
    82   40   41 2    
    83   40   42 1    
    84   42   43 1    
    85   42   44 1    
    86   42  165 1    
    87   43  166 1    
    88   43  167 1    
    89   43  168 1    
    90   44   45 am   BACKBONE|DICT|INTERRES
    91   44  169 1    
    92   45   46 2    
    93   45   47 1    
    94   47   48 1    
    95   47   49 1    
    96   47  170 1    
    97   48  171 1    
    98   48  172 1    
    99   48  173 1    
   100   49   50 am   BACKBONE|DICT|INTERRES
   101   49  174 1    
   102   50   51 2    
   103   50   52 1    
   104   52   53 1    
   105   52   54 1    
   106   52  175 1    
   107   53  176 1    
   108   53  177 1    
   109   53  178 1    
   110   54   55 am   BACKBONE|DICT|INTERRES
   111   54  179 1    
   112   55   56 2    
   113   55   57 1    
   114   57   58 1    
   115   57   59 1    
   116   57  180 1    
   117   58  181 1    
   118   58  182 1    
   119   58  183 1    
   120   59   60 am   BACKBONE|DICT|INTERRES
   121   59  184 1    
   122   60   61 2    
   123   60   62 1    
   124   62   63 1    
   125   62   64 1    
   126   62  185 1    
   127   63  186 1    
   128   63  187 1    
   129   63  188 1    
   130   64   65 am   BACKBONE|DICT|INTERRES
   131   64  189 1    
   132   65   66 2    
   133   67   68 2    
   134   67   69 am   BACKBONE|DICT|INTERRES
   135   69   70 1    
   136   69  190 1    
   137   70   71 1    
   138   70   72 1    
   139   70  191 1    
   140   71  192 1    
   141   71  193 1    
   142   71  194 1    
   143   72   73 2    
   144   72   74 am   BACKBONE|DICT|INTERRES
   145   74   75 1    
   146   74  195 1    
   147   75   76 1    
   148   75   77 1    
   149   75  196 1    
   150   76  197 1    
   151   76  198 1    
   152   76  199 1    
   153   77   78 2    
   154   77   79 am   BACKBONE|DICT|INTERRES
   155   79   80 1    
   156   79  200 1    
   157   80   81 1    
   158   80   82 1    
   159   80  201 1    
   160   81  202 1    
   161   81  203 1    
   162   81  204 1    
   163   82   83 2    
   164   82   84 am   BACKBONE|DICT|INTERRES
   165   84   85 1    
   166   84  205 1    
   167   85   86 1    
   168   85   87 1    
   169   85  206 1    
   170   86  207 1    
   171   86  208 1    
   172   86  209 1    
   173   87   88 2    
   174   87   89 am   BACKBONE|DICT|INTERRES
   175   89   90 1    
   176   89  210 1    
   177   90   91 1    
   178   90   92 1    
   179   90  211 1    
   180   91  212 1    
   181   91  213 1    
   182   91  214 1    
   183   92   93 2    
   184   92   94 am   BACKBONE|DICT|INTERRES
   185   94   95 1    
   186   94  215 1    
   187   95   96 1    
   188   95   97 1    
   189   95  216 1    
   190   96  217 1    
   191   96  218 1    
   192   96  219 1    
   193   97   98 2    
   194   97   99 am   BACKBONE|DICT|INTERRES
   195   99  100 1    
   196   99  220 1    
   197  100  101 1    
   198  100  102 1    
   199  100  221 1    
   200  101  222 1    
   201  101  223 1    
   202  101  224 1    
   203  102  103 2    
   204  102  104 am   BACKBONE|DICT|INTERRES
   205  104  105 1    
   206  104  225 1    
   207  105  106 1    
   208  105  107 1    
   209  105  226 1    
   210  106  227 1    
   211  106  228 1    
   212  106  229 1    
   213  107  108 2    
   214  107  109 am   BACKBONE|DICT|INTERRES
   215  109  110 1    
   216  109  230 1    
   217  110  111 1    
   218  110  112 1    
   219  110  231 1    
   220  111  232 1    
   221  111  233 1    
   222  111  234 1    
   223  112  113 2    
   224  112  114 am   BACKBONE|DICT|INTERRES
   225  114  115 1    
   226  114  235 1    
   227  115  116 1    
   228  115  117 1    
   229  115  236 1    
   230  116  237 1    
   231  116  238 1    
   232  116  239 1    
   233  117  118 2    
   234  117  119 am   BACKBONE|DICT|INTERRES
   235  119  120 1    
   236  119  240 1    
   237  120  121 1    
   238  120  124 1    
   239  120  241 1    
   240  121  122 am   BACKBONE|DICT|INTERRES
   241  121  123 2    
   242  122  242 1    
   243  122  243 1    
   244  124  125 1    
   245  124  244 1    
   246  124  245 1    
   247  125  126 1    
   248  126  246 1    
   249  126  247 1    
@<TRIPOS>SUBSTRUCTURE
     1 UNK         1 GROUP             0       ****    0 ROOT    
