@<TRIPOS>MOLECULE
3R540
247   249    1
SMALL
USER_CHARGES


@<TRIPOS>ATOM
      1 CA          2.1954  -10.5294  -49.7806 C.3       0 UNK        -0.1800 
      2 C           2.0421  -12.0248  -50.0208 C.2       0 UNK         0.5000 
      3 O           2.4045  -12.5141  -51.0912 O.2       0 UNK        -0.5000 
      4 N           1.4977  -12.7471  -49.0345 N.am      1 UNK        -0.5000 
      5 CA          1.3148  -14.2018  -49.0555 C.3       1 UNK         0.1400 
      6 C6          0.3716  -14.6751  -47.9178 C.3       23 UNK        -0.0398 
      7 S7         -1.2876  -13.8996  -47.9455 S.3       23 UNK        -0.2404 
      8 C8         -2.0139  -14.4425  -49.5321 C.3       23 UNK        -0.0205 
      9 C9         -2.3439  -15.9269  -49.5420 C.ar      23 UNK        -0.0193 
     10 C10        -3.6463  -16.3716  -49.2975 C.ar      23 UNK        -0.1150 
     11 C11        -3.9431  -17.7395  -49.2944 C.ar      23 UNK        -0.0193 
     12 C12        -2.9157  -18.6655  -49.5026 C.ar      23 UNK        -0.1150 
     13 C13        -1.6082  -18.2284  -49.7334 C.ar      23 UNK        -0.0193 
     14 C14        -1.3406  -16.8618  -49.7958 C.ar      23 UNK        -0.1150 
     15 C15        -0.4658  -19.2198  -49.8681 C.3       23 UNK        -0.0205 
     16 S16         0.7131  -19.0875  -48.4766 S.3       23 UNK        -0.2404 
     17 C17        -0.3410  -19.3785  -47.0135 C.3       23 UNK        -0.0398 
     18 CA         -0.3395  -20.8371  -46.5009 C.3       11 UNK         0.1400 
     19 N          -0.9456  -20.9239  -45.1646 N.am      11 UNK        -0.5000 
     20 C          -1.1917  -22.0371  -44.4555 C.2       10 UNK         0.5000 
     21 O          -0.9360  -23.1734  -44.8500 O.2       10 UNK        -0.5000 
     22 CA         -1.8777  -21.8586  -43.0944 C.3       10 UNK         0.1400 
     23 CB         -0.8510  -21.4836  -42.0214 C.3       10 UNK        -0.1800 
     24 N          -2.9159  -20.8334  -43.1609 N.am      10 UNK        -0.5000 
     25 C          -4.1725  -21.0652  -43.5636 C.2       9 UNK         0.5000 
     26 O          -4.6051  -22.1821  -43.8491 O.2       9 UNK        -0.5000 
     27 CA         -5.1039  -19.8435  -43.6804 C.3       9 UNK         0.1400 
     28 CB         -5.8381  -19.5970  -42.3538 C.3       9 UNK        -0.1800 
     29 N          -4.4101  -18.6175  -44.0779 N.am      9 UNK        -0.5000 
     30 C          -3.8256  -18.4266  -45.2683 C.2       8 UNK         0.5000 
     31 O          -3.7963  -19.2741  -46.1615 O.2       8 UNK        -0.5000 
     32 CA         -3.1238  -17.0695  -45.4729 C.3       8 UNK         0.1400 
     33 CB         -4.1484  -15.9905  -45.8562 C.3       8 UNK        -0.1800 
     34 N          -2.3653  -16.5843  -44.3146 N.am      8 UNK        -0.5000 
     35 C          -1.4413  -17.2527  -43.6113 C.2       7 UNK         0.5000 
     36 O          -1.1601  -18.4385  -43.7973 O.2       7 UNK        -0.5000 
     37 CA         -0.7177  -16.4274  -42.5336 C.3       7 UNK         0.1400 
     38 CB         -1.6602  -16.0101  -41.3856 C.3       7 UNK        -0.1800 
     39 N           0.5060  -17.0767  -42.0572 N.am      7 UNK        -0.5000 
     40 C           0.6796  -18.0221  -41.1219 C.2       6 UNK         0.5000 
     41 O          -0.2191  -18.4958  -40.4267 O.2       6 UNK        -0.5000 
     42 CA          2.1294  -18.5053  -40.9068 C.3       6 UNK         0.1400 
     43 CB          2.3942  -19.8096  -41.6761 C.3       6 UNK        -0.1800 
     44 N           3.1043  -17.5006  -41.3373 N.am      6 UNK        -0.5000 
     45 C           3.5906  -16.5235  -40.5590 C.2       5 UNK         0.5000 
     46 O           3.3408  -16.4173  -39.3577 O.2       5 UNK        -0.5000 
     47 CA          4.5015  -15.4790  -41.2374 C.3       5 UNK         0.1400 
     48 CB          5.9723  -15.9154  -41.1580 C.3       5 UNK        -0.1800 
     49 N           4.1504  -15.2336  -42.6383 N.am      5 UNK        -0.5000 
     50 C           3.0266  -14.6276  -43.0472 C.2       4 UNK         0.5000 
     51 O           2.2019  -14.1313  -42.2802 O.2       4 UNK        -0.5000 
     52 CA          2.7501  -14.6016  -44.5651 C.3       4 UNK         0.1400 
     53 CB          3.1885  -13.2541  -45.1593 C.3       4 UNK        -0.1800 
     54 N           3.3642  -15.6978  -45.3293 N.am      4 UNK        -0.5000 
     55 C           3.1687  -17.0062  -45.1042 C.2       3 UNK         0.5000 
     56 O           2.4469  -17.4301  -44.2025 O.2       3 UNK        -0.5000 
     57 CA          3.8945  -17.9873  -46.0391 C.3       3 UNK         0.1400 
     58 CB          3.4960  -19.4558  -45.7996 C.3       3 UNK        -0.1800 
     59 N           3.6055  -17.6222  -47.4209 N.am      3 UNK        -0.5000 
     60 C           4.5119  -17.4404  -48.3871 C.2       2 UNK         0.5000 
     61 O           5.7193  -17.6365  -48.2443 O.2       2 UNK        -0.5000 
     62 CA          3.9829  -16.9174  -49.7382 C.3       2 UNK         0.1400 
     63 CB          3.7386  -18.0817  -50.7118 C.3       2 UNK        -0.1800 
     64 N           2.7614  -16.1070  -49.6361 N.am      2 UNK        -0.5000 
     65 C           2.6734  -14.9351  -48.9886 C.2       1 UNK         0.5000 
     66 O           3.6027  -14.4457  -48.3421 O.2       1 UNK        -0.5000 
     67 C          -0.9963  -21.7866  -47.5226 C.2       11 UNK         0.5000 
     68 O          -0.2848  -22.4534  -48.2764 O.2       11 UNK        -0.5000 
     69 N          -2.3313  -21.8852  -47.4692 N.am      12 UNK        -0.5000 
     70 CA         -3.1563  -22.7827  -48.2794 C.3       12 UNK         0.1400 
     71 CB         -4.6280  -22.5542  -47.9066 C.3       12 UNK        -0.1800 
     72 C          -2.7969  -24.2824  -48.1695 C.2       12 UNK         0.5000 
     73 O          -3.1442  -25.0419  -49.0740 O.2       12 UNK        -0.5000 
     74 N          -2.1059  -24.6812  -47.0921 N.am      13 UNK        -0.5000 
     75 CA         -1.5628  -26.0229  -46.8876 C.3       13 UNK         0.1400 
     76 CB         -2.0985  -26.5824  -45.5604 C.3       13 UNK        -0.1800 
     77 C          -0.0229  -26.0149  -46.8845 C.2       13 UNK         0.5000 
     78 O           0.5816  -26.9198  -47.4592 O.2       13 UNK        -0.5000 
     79 N           0.5857  -25.0125  -46.2328 N.am      14 UNK        -0.5000 
     80 CA          2.0302  -24.8965  -46.0209 C.3       14 UNK         0.1400 
     81 CB          2.3101  -23.8161  -44.9632 C.3       14 UNK        -0.1800 
     82 C           2.8162  -24.6133  -47.3119 C.2       14 UNK         0.5000 
     83 O           3.8149  -25.2860  -47.5713 O.2       14 UNK        -0.5000 
     84 N           2.3453  -23.6402  -48.1026 N.am      15 UNK        -0.5000 
     85 CA          2.8649  -23.3547  -49.4418 C.3       15 UNK         0.1400 
     86 CB          2.7333  -21.8517  -49.7344 C.3       15 UNK        -0.1800 
     87 C           2.1149  -24.1768  -50.5047 C.2       15 UNK         0.5000 
     88 O           2.6750  -24.4465  -51.5670 O.2       15 UNK        -0.5000 
     89 N           0.8636  -24.5498  -50.1914 N.am      16 UNK        -0.5000 
     90 CA         -0.0757  -25.3424  -50.9929 C.3       16 UNK         0.1400 
     91 CB          0.4995  -26.7364  -51.3180 C.3       16 UNK        -0.1800 
     92 C          -0.6056  -24.6083  -52.2427 C.2       16 UNK         0.5000 
     93 O          -1.2133  -25.2396  -53.1091 O.2       16 UNK        -0.5000 
     94 N          -0.3879  -23.2894  -52.3119 N.am      17 UNK        -0.5000 
     95 CA         -0.9109  -22.4130  -53.3528 C.3       17 UNK         0.1400 
     96 CB         -0.0028  -21.1794  -53.4708 C.3       17 UNK        -0.1800 
     97 C          -2.3492  -21.9980  -53.0089 C.2       17 UNK         0.5000 
     98 O          -2.6223  -21.6530  -51.8575 O.2       17 UNK        -0.5000 
     99 N          -3.2312  -22.0151  -54.0161 N.am      18 UNK        -0.5000 
    100 CA        -4.6311  -21.6027  -53.8853 C.3       18 UNK         0.1400 
    101 CB        -5.4352  -22.1570  -55.0713 C.3       18 UNK        -0.1800 
    102 C         -4.8021  -20.0757  -53.7905 C.2       18 UNK         0.5000 
    103 O         -5.8062  -19.6248  -53.2429 O.2       18 UNK        -0.5000 
    104 N         -3.8333  -19.3195  -54.3324 N.am      19 UNK        -0.5000 
    105 CA        -3.7153  -17.8580  -54.3102 C.3       19 UNK         0.1400 
    106 CB        -3.2632  -17.3930  -52.9110 C.3       19 UNK        -0.1800 
    107 C         -4.9858  -17.1456  -54.8218 C.2       19 UNK         0.5000 
    108 O         -5.2224  -17.1298  -56.0301 O.2       19 UNK        -0.5000 
    109 N         -5.7870  -16.5949  -53.9014 N.am      20 UNK        -0.5000 
    110 CA        -7.0418  -15.8867  -54.1632 C.3       20 UNK         0.1400 
    111 CB        -7.1973  -14.7806  -53.1037 C.3       20 UNK        -0.1800 
    112 C         -8.2711  -16.8241  -54.1974 C.2       20 UNK         0.5000 
    113 O         -9.3924  -16.3520  -54.0036 O.2       20 UNK        -0.5000 
    114 N         -8.0413  -18.1260  -54.4251 N.am      21 UNK        -0.5000 
    115 CA        -8.9888  -19.2421  -54.3300 C.3       21 UNK         0.1400 
    116 CB       -10.1724  -19.0858  -55.3085 C.3       21 UNK        -0.1800 
    117 C         -9.4112  -19.4681  -52.8658 C.2       21 UNK         0.5000 
    118 O        -10.6013  -19.4959  -52.5456 O.2       21 UNK        -0.5000 
    119 N         -8.3986  -19.5921  -52.0051 N.am      22 UNK        -0.5000 
    120 CA        -8.4915  -19.7178  -50.5483 C.3       22 UNK         0.1400 
    121 C         -7.7134  -20.9545  -50.0190 C.2       22 UNK         0.5000 
    122 N         -7.8960  -21.3059  -48.7526 N.am      22 UNK        -0.7600 
    123 O         -6.9573  -21.6096  -50.7329 O.2       22 UNK        -0.5000 
    124 C124       -8.0733  -18.3962  -49.8448 C.3       23 UNK        -0.0398 
    125 S125       -6.4732  -17.7076  -50.4042 S.3       23 UNK        -0.2404 
    126 C126       -5.3683  -18.2145  -49.0522 C.3       23 UNK        -0.0205 
    127 H127        1.8249  -10.2364  -48.7979 H         1 UNK         0.0600 
    128 H128        1.6412   -9.9693  -50.5337 H         1 UNK         0.0600 
    129 H129        3.2456  -10.2450  -49.8463 H         1 UNK         0.0600 
    130 H130        1.2199  -12.2861  -48.1806 H         1 UNK         0.3000 
    131 H131        0.8635  -14.4575  -50.0146 H         1 UNK         0.0600 
    132 H132        0.2544  -15.7588  -47.9169 H         1 UNK         0.0800 
    133 H133        0.8154  -14.4385  -46.9506 H         1 UNK         0.0800 
    134 H134       -2.9236  -13.8653  -49.7036 H         1 UNK         0.0800 
    135 H135       -1.3520  -14.1958  -50.3618 H         1 UNK         0.0800 
    136 H136       -4.4345  -15.6546  -49.1163 H         1 UNK         0.1150 
    137 H137       -3.1306  -19.7247  -49.4724 H         1 UNK         0.1150 
    138 H138       -0.3348  -16.5320  -50.0010 H         1 UNK         0.1150 
    139 H139       -0.8415  -20.2404  -49.9486 H         1 UNK         0.0800 
    140 H140        0.0694  -19.0177  -50.7960 H         1 UNK         0.0800 
    141 H141        0.0375  -18.7200  -46.2305 H         1 UNK         0.0800 
    142 H142       -1.3576  -19.0429  -47.2070 H         1 UNK         0.0800 
    143 H143        0.6970  -21.1569  -46.3896 H         1 UNK         0.0600 
    144 H144       -1.1544  -20.0328  -44.7195 H         1 UNK         0.3000 
    145 H145       -2.3247  -22.8141  -42.8115 H         1 UNK         0.0600 
    146 H146       -1.3197  -21.3716  -41.0436 H         1 UNK         0.0600 
    147 H147       -0.0806  -22.2505  -41.9315 H         1 UNK         0.0600 
    148 H148       -0.3566  -20.5449  -42.2653 H         1 UNK         0.0600 
    149 H149       -2.6182  -19.8787  -43.0055 H         1 UNK         0.3000 
    150 H150       -5.8484  -20.0703  -44.4467 H         1 UNK         0.0600 
    151 H151       -6.3858  -20.4866  -42.0397 H         1 UNK         0.0600 
    152 H152       -6.5624  -18.7876  -42.4477 H         1 UNK         0.0600 
    153 H153       -5.1453  -19.3379  -41.5522 H         1 UNK         0.0600 
    154 H154       -4.3726  -17.8725  -43.3982 H         1 UNK         0.3000 
    155 H155       -2.4241  -17.1798  -46.3028 H         1 UNK         0.0600 
    156 H156       -3.6531  -15.0750  -46.1800 H         1 UNK         0.0600 
    157 H157       -4.8034  -15.7412  -45.0207 H         1 UNK         0.0600 
    158 H158       -4.7845  -16.3174  -46.6763 H         1 UNK         0.0600 
    159 H159       -2.5272  -15.6169  -44.0757 H         1 UNK         0.3000 
    160 H160       -0.3739  -15.5140  -43.0211 H         1 UNK         0.0600 
    161 H161       -2.1657  -16.8670  -40.9396 H         1 UNK         0.0600 
    162 H162       -2.4355  -15.3313  -41.7418 H         1 UNK         0.0600 
    163 H163       -1.1161  -15.4903  -40.5969 H         1 UNK         0.0600 
    164 H164        1.3189  -16.8856  -42.6307 H         1 UNK         0.3000 
    165 H165        2.2634  -18.7086  -39.8423 H         1 UNK         0.0600 
    166 H166        2.1310  -19.7203  -42.7310 H         1 UNK         0.0600 
    167 H167        3.4429  -20.1006  -41.6150 H         1 UNK         0.0600 
    168 H168        1.8109  -20.6288  -41.2566 H         1 UNK         0.0600 
    169 H169        3.3152  -17.4887  -42.3275 H         1 UNK         0.3000 
    170 H170        4.3940  -14.5402  -40.6898 H         1 UNK         0.0600 
    171 H171        6.2741  -16.0831  -40.1232 H         1 UNK         0.0600 
    172 H172        6.1481  -16.8423  -41.7054 H         1 UNK         0.0600 
    173 H173        6.6334  -15.1517  -41.5681 H         1 UNK         0.0600 
    174 H174        4.7816  -15.5962  -43.3372 H         1 UNK         0.3000 
    175 H175        1.6689  -14.6899  -44.6856 H         1 UNK         0.0600 
    176 H176        4.2739  -13.1489  -45.1582 H         1 UNK         0.0600 
    177 H177        2.8409  -13.1388  -46.1847 H         1 UNK         0.0600 
    178 H178        2.7770  -12.4198  -44.5893 H         1 UNK         0.0600 
    179 H179        3.9461  -15.4250  -46.1109 H         1 UNK         0.3000 
    180 H180        4.9612  -17.8850  -45.8310 H         1 UNK         0.0600 
    181 H181        2.4225  -19.6018  -45.9072 H         1 UNK         0.0600 
    182 H182        3.7705  -19.7764  -44.7940 H         1 UNK         0.0600 
    183 H183        3.9966  -20.1219  -46.5023 H         1 UNK         0.0600 
    184 H184        2.6346  -17.4519  -47.6413 H         1 UNK         0.3000 
    185 H185        4.7621  -16.2811  -50.1629 H         1 UNK         0.0600 
    186 H186        3.4525  -17.7188  -51.6990 H         1 UNK         0.0600 
    187 H187        4.6412  -18.6812  -50.8372 H         1 UNK         0.0600 
    188 H188        2.9528  -18.7489  -50.3587 H         1 UNK         0.0600 
    189 H189        1.9635  -16.4526  -50.1475 H         1 UNK         0.3000 
    190 H190       -2.8269  -21.2830  -46.8227 H         1 UNK         0.3000 
    191 H191       -3.0177  -22.4949  -49.3229 H         1 UNK         0.0600 
    192 H192       -5.2863  -23.1670  -48.5237 H         1 UNK         0.0600 
    193 H193       -4.9151  -21.5140  -48.0600 H         1 UNK         0.0600 
    194 H194       -4.8209  -22.8049  -46.8626 H         1 UNK         0.0600 
    195 H195       -1.8551  -23.9890  -46.3945 H         1 UNK         0.3000 
    196 H196       -1.8823  -26.6931  -47.6883 H         1 UNK         0.0600 
    197 H197       -1.7070  -27.5826  -45.3708 H         1 UNK         0.0600 
    198 H198       -3.1859  -26.6562  -45.5769 H         1 UNK         0.0600 
    199 H199       -1.8196  -25.9529  -44.7143 H         1 UNK         0.0600 
    200 H200        0.0114  -24.3243  -45.7493 H         1 UNK         0.3000 
    201 H201        2.3828  -25.8506  -45.6234 H         1 UNK         0.0600 
    202 H202        1.8153  -24.0501  -44.0204 H         1 UNK         0.0600 
    203 H203        1.9655  -22.8335  -45.2847 H         1 UNK         0.0600 
    204 H204        3.3785  -23.7372  -44.7587 H         1 UNK         0.0600 
    205 H205        1.4879  -23.1625  -47.8469 H         1 UNK         0.3000 
    206 H206        3.9239  -23.6161  -49.4939 H         1 UNK         0.0600 
    207 H207        3.2038  -21.2508  -48.9557 H         1 UNK         0.0600 
    208 H208        3.2151  -21.5964  -50.6788 H         1 UNK         0.0600 
    209 H209        1.6905  -21.5457  -49.8112 H         1 UNK         0.0600 
    210 H210        0.4915  -24.1982  -49.3178 H         1 UNK         0.3000 
    211 H211       -0.9426  -25.5009  -50.3538 H         1 UNK         0.0600 
    212 H212        1.3215  -26.6823  -52.0319 H         1 UNK         0.0600 
    213 H213       -0.2646  -27.3822  -51.7519 H         1 UNK         0.0600 
    214 H214        0.8659  -27.2303  -50.4179 H         1 UNK         0.0600 
    215 H215        0.0667  -22.8422  -51.5304 H         1 UNK         0.3000 
    216 H216       -0.9015  -22.9399  -54.3095 H         1 UNK         0.0600 
    217 H217       -0.3616  -20.5012  -54.2458 H         1 UNK         0.0600 
    218 H218        1.0162  -21.4646  -53.7333 H         1 UNK         0.0600 
    219 H219        0.0378  -20.6191  -52.5372 H         1 UNK         0.0600 
    220 H220       -2.9337  -22.3240  -54.9305 H         1 UNK         0.3000 
    221 H221       -5.0369  -22.0344  -52.9674 H         1 UNK         0.0600 
    222 H222       -5.0761  -21.7625  -56.0226 H         1 UNK         0.0600 
    223 H223       -5.3765  -23.2447  -55.1134 H         1 UNK         0.0600 
    224 H224       -6.4901  -21.8937  -54.9836 H         1 UNK         0.0600 
    225 H225       -3.0798  -19.8046  -54.7959 H         1 UNK         0.3000 
    226 H226       -2.9204  -17.5993  -55.0113 H         1 UNK         0.0600 
    227 H227       -2.2910  -17.8156  -52.6576 H         1 UNK         0.0600 
    228 H228       -3.1649  -16.3079  -52.8609 H         1 UNK         0.0600 
    229 H229       -3.9625  -17.7018  -52.1352 H         1 UNK         0.0600 
    230 H230       -5.5515  -16.7302  -52.9274 H         1 UNK         0.3000 
    231 H231       -6.9832  -15.4054  -55.1413 H         1 UNK         0.0600 
    232 H232       -8.0684  -14.1569  -53.3078 H         1 UNK         0.0600 
    233 H233       -6.3282  -14.1226  -53.0894 H         1 UNK         0.0600 
    234 H234       -7.3183  -15.1980  -52.1034 H         1 UNK         0.0600 
    235 H235       -7.0697  -18.4053  -54.4817 H         1 UNK         0.3000 
    236 H236       -8.4371  -20.1339  -54.6308 H         1 UNK         0.0600 
    237 H237       -9.8221  -18.9135  -56.3261 H         1 UNK         0.0600 
    238 H238      -10.7814  -19.9902  -55.3230 H         1 UNK         0.0600 
    239 H239      -10.8292  -18.2602  -55.0345 H         1 UNK         0.0600 
    240 H240       -7.4453  -19.5930  -52.3647 H         1 UNK         0.3000 
    241 H241       -9.5332  -19.9116  -50.2867 H         1 UNK         0.0600 
    242 H242       -8.5298  -20.8088  -48.1470 H         1 UNK         0.3800 
    243 H243       -7.4099  -22.1143  -48.4007 H         1 UNK         0.3800 
    244 H244       -8.8302  -17.6390  -50.0526 H         1 UNK         0.0800 
    245 H245       -8.0716  -18.5066  -48.7596 H         1 UNK         0.0800 
    246 H246       -5.7359  -17.8117  -48.1093 H         1 UNK         0.0800 
    247 H247       -5.3967  -19.3003  -48.9559 H         1 UNK         0.0800 
@<TRIPOS>BOND
     1    1    2 1    
     2    1  127 1    
     3    1  128 1    
     4    1  129 1    
     5    2    3 2    
     6    2    4 am   BACKBONE|DICT|INTERRES
     7    4    5 1    
     8    4  130 1    
     9    5    6 1    
    10    5   65 1    
    11    5  131 1    
    12    6    7 1    
    13    6  132 1    
    14    6  133 1    
    15    7    8 1    
    16    8    9 1    
    17    8  134 1    
    18    8  135 1    
    19    9   10 ar   
    20    9   14 ar   
    21   10   11 ar   
    22   10  136 1    
    23   11   12 ar   
    24   11  126 1    
    25   12   13 ar   
    26   12  137 1    
    27   13   14 ar   
    28   13   15 1    
    29   14  138 1    
    30   15   16 1    
    31   15  139 1    
    32   15  140 1    
    33   16   17 1    
    34   17   18 1    
    35   17  141 1    
    36   17  142 1    
    37   18   19 1    
    38   18   67 1    
    39   18  143 1    
    40   19   20 am   BACKBONE|DICT|INTERRES
    41   19  144 1    
    42   20   21 2    
    43   20   22 1    
    44   22   23 1    
    45   22   24 1    
    46   22  145 1    
    47   23  146 1    
    48   23  147 1    
    49   23  148 1    
    50   24   25 am   BACKBONE|DICT|INTERRES
    51   24  149 1    
    52   25   26 2    
    53   25   27 1    
    54   27   28 1    
    55   27   29 1    
    56   27  150 1    
    57   28  151 1    
    58   28  152 1    
    59   28  153 1    
    60   29   30 am   BACKBONE|DICT|INTERRES
    61   29  154 1    
    62   30   31 2    
    63   30   32 1    
    64   32   33 1    
    65   32   34 1    
    66   32  155 1    
    67   33  156 1    
    68   33  157 1    
    69   33  158 1    
    70   34   35 am   BACKBONE|DICT|INTERRES
    71   34  159 1    
    72   35   36 2    
    73   35   37 1    
    74   37   38 1    
    75   37   39 1    
    76   37  160 1    
    77   38  161 1    
    78   38  162 1    
    79   38  163 1    
    80   39   40 am   BACKBONE|DICT|INTERRES
    81   39  164 1    
    82   40   41 2    
    83   40   42 1    
    84   42   43 1    
    85   42   44 1    
    86   42  165 1    
    87   43  166 1    
    88   43  167 1    
    89   43  168 1    
    90   44   45 am   BACKBONE|DICT|INTERRES
    91   44  169 1    
    92   45   46 2    
    93   45   47 1    
    94   47   48 1    
    95   47   49 1    
    96   47  170 1    
    97   48  171 1    
    98   48  172 1    
    99   48  173 1    
   100   49   50 am   BACKBONE|DICT|INTERRES
   101   49  174 1    
   102   50   51 2    
   103   50   52 1    
   104   52   53 1    
   105   52   54 1    
   106   52  175 1    
   107   53  176 1    
   108   53  177 1    
   109   53  178 1    
   110   54   55 am   BACKBONE|DICT|INTERRES
   111   54  179 1    
   112   55   56 2    
   113   55   57 1    
   114   57   58 1    
   115   57   59 1    
   116   57  180 1    
   117   58  181 1    
   118   58  182 1    
   119   58  183 1    
   120   59   60 am   BACKBONE|DICT|INTERRES
   121   59  184 1    
   122   60   61 2    
   123   60   62 1    
   124   62   63 1    
   125   62   64 1    
   126   62  185 1    
   127   63  186 1    
   128   63  187 1    
   129   63  188 1    
   130   64   65 am   BACKBONE|DICT|INTERRES
   131   64  189 1    
   132   65   66 2    
   133   67   68 2    
   134   67   69 am   BACKBONE|DICT|INTERRES
   135   69   70 1    
   136   69  190 1    
   137   70   71 1    
   138   70   72 1    
   139   70  191 1    
   140   71  192 1    
   141   71  193 1    
   142   71  194 1    
   143   72   73 2    
   144   72   74 am   BACKBONE|DICT|INTERRES
   145   74   75 1    
   146   74  195 1    
   147   75   76 1    
   148   75   77 1    
   149   75  196 1    
   150   76  197 1    
   151   76  198 1    
   152   76  199 1    
   153   77   78 2    
   154   77   79 am   BACKBONE|DICT|INTERRES
   155   79   80 1    
   156   79  200 1    
   157   80   81 1    
   158   80   82 1    
   159   80  201 1    
   160   81  202 1    
   161   81  203 1    
   162   81  204 1    
   163   82   83 2    
   164   82   84 am   BACKBONE|DICT|INTERRES
   165   84   85 1    
   166   84  205 1    
   167   85   86 1    
   168   85   87 1    
   169   85  206 1    
   170   86  207 1    
   171   86  208 1    
   172   86  209 1    
   173   87   88 2    
   174   87   89 am   BACKBONE|DICT|INTERRES
   175   89   90 1    
   176   89  210 1    
   177   90   91 1    
   178   90   92 1    
   179   90  211 1    
   180   91  212 1    
   181   91  213 1    
   182   91  214 1    
   183   92   93 2    
   184   92   94 am   BACKBONE|DICT|INTERRES
   185   94   95 1    
   186   94  215 1    
   187   95   96 1    
   188   95   97 1    
   189   95  216 1    
   190   96  217 1    
   191   96  218 1    
   192   96  219 1    
   193   97   98 2    
   194   97   99 am   BACKBONE|DICT|INTERRES
   195   99  100 1    
   196   99  220 1    
   197  100  101 1    
   198  100  102 1    
   199  100  221 1    
   200  101  222 1    
   201  101  223 1    
   202  101  224 1    
   203  102  103 2    
   204  102  104 am   BACKBONE|DICT|INTERRES
   205  104  105 1    
   206  104  225 1    
   207  105  106 1    
   208  105  107 1    
   209  105  226 1    
   210  106  227 1    
   211  106  228 1    
   212  106  229 1    
   213  107  108 2    
   214  107  109 am   BACKBONE|DICT|INTERRES
   215  109  110 1    
   216  109  230 1    
   217  110  111 1    
   218  110  112 1    
   219  110  231 1    
   220  111  232 1    
   221  111  233 1    
   222  111  234 1    
   223  112  113 2    
   224  112  114 am   BACKBONE|DICT|INTERRES
   225  114  115 1    
   226  114  235 1    
   227  115  116 1    
   228  115  117 1    
   229  115  236 1    
   230  116  237 1    
   231  116  238 1    
   232  116  239 1    
   233  117  118 2    
   234  117  119 am   BACKBONE|DICT|INTERRES
   235  119  120 1    
   236  119  240 1    
   237  120  121 1    
   238  120  124 1    
   239  120  241 1    
   240  121  122 am   BACKBONE|DICT|INTERRES
   241  121  123 2    
   242  122  242 1    
   243  122  243 1    
   244  124  125 1    
   245  124  244 1    
   246  124  245 1    
   247  125  126 1    
   248  126  246 1    
   249  126  247 1    
@<TRIPOS>SUBSTRUCTURE
     1 UNK         1 GROUP             0       ****    0 ROOT    
