@<TRIPOS>MOLECULE
3R540
247   249    1
SMALL
USER_CHARGES


@<TRIPOS>ATOM
      1 CA         -2.2270  -18.3063  -48.3941 C.3       0 UNK        -0.1800 
      2 C          -1.9949  -16.8549  -48.7817 C.2       0 UNK         0.5000 
      3 O          -2.7550  -16.3049  -49.5774 O.2       0 UNK        -0.5000 
      4 N          -0.9448  -16.2427  -48.2212 N.am      1 UNK        -0.5000 
      5 CA         -0.5582  -14.8472  -48.4462 C.3       1 UNK         0.1400 
      6 C6          0.7951  -14.5112  -47.7575 C.3       23 UNK        -0.0398 
      7 S7          1.8068  -13.4055  -48.8014 S.3       23 UNK        -0.2404 
      8 C8          3.1909  -14.4768  -49.3157 C.3       23 UNK        -0.0205 
      9 C9          2.7344  -15.8357  -49.8289 C.ar      23 UNK        -0.0193 
     10 C10         2.0828  -15.9519  -51.0599 C.ar      23 UNK        -0.1150 
     11 C11         1.6521  -17.2012  -51.5186 C.ar      23 UNK        -0.0193 
     12 C12         1.8900  -18.3390  -50.7430 C.ar      23 UNK        -0.1150 
     13 C13         2.5300  -18.2325  -49.5044 C.ar      23 UNK        -0.0193 
     14 C14         2.9562  -16.9800  -49.0581 C.ar      23 UNK        -0.1150 
     15 C15         2.7542  -19.4601  -48.6359 C.3       23 UNK        -0.0205 
     16 S16         1.2171  -19.9685  -47.8058 S.3       23 UNK        -0.2404 
     17 C17         0.4428  -21.0040  -49.0970 C.3       23 UNK        -0.0398 
     18 CA         -0.3452  -22.2156  -48.5463 C.3       11 UNK         0.1400 
     19 N           0.4253  -22.9991  -47.5793 N.am      11 UNK        -0.5000 
     20 C           0.0451  -24.1705  -47.0542 C.2       10 UNK         0.5000 
     21 O          -0.9881  -24.7599  -47.3750 O.2       10 UNK        -0.5000 
     22 CA          0.9351  -24.7476  -45.9378 C.3       10 UNK         0.1400 
     23 CB          1.9581  -25.7291  -46.5265 C.3       10 UNK        -0.1800 
     24 N           1.6373  -23.7325  -45.1404 N.am      10 UNK        -0.5000 
     25 C           1.0472  -22.7532  -44.4408 C.2       9 UNK         0.5000 
     26 O          -0.1691  -22.5468  -44.4476 O.2       9 UNK        -0.5000 
     27 CA          1.9707  -21.8217  -43.6421 C.3       9 UNK         0.1400 
     28 CB          2.3401  -20.5851  -44.4710 C.3       9 UNK        -0.1800 
     29 N           1.3082  -21.3843  -42.4176 N.am      9 UNK        -0.5000 
     30 C           1.2938  -22.0827  -41.2751 C.2       8 UNK         0.5000 
     31 O           1.8755  -23.1608  -41.1382 O.2       8 UNK        -0.5000 
     32 CA          0.4911  -21.4951  -40.0917 C.3       8 UNK         0.1400 
     33 CB          1.1328  -21.8154  -38.7252 C.3       8 UNK        -0.1800 
     34 N           0.2054  -20.0594  -40.2075 N.am      8 UNK        -0.5000 
     35 C           1.0840  -19.0466  -40.2499 C.2       7 UNK         0.5000 
     36 O           2.3071  -19.1777  -40.1730 O.2       7 UNK        -0.5000 
     37 CA          0.4729  -17.6449  -40.4404 C.3       7 UNK         0.1400 
     38 CB          1.0484  -16.6441  -39.4258 C.3       7 UNK        -0.1800 
     39 N           0.6469  -17.1204  -41.7984 N.am      7 UNK        -0.5000 
     40 C           0.2167  -17.7109  -42.9258 C.2       6 UNK         0.5000 
     41 O          -0.3106  -18.8233  -42.9531 O.2       6 UNK        -0.5000 
     42 CA          0.3428  -16.9243  -44.2468 C.3       6 UNK         0.1400 
     43 CB         -1.0200  -16.3192  -44.6094 C.3       6 UNK        -0.1800 
     44 N           1.3254  -15.8426  -44.2084 N.am      6 UNK        -0.5000 
     45 C           2.6551  -16.0122  -44.1829 C.2       5 UNK         0.5000 
     46 O           3.2013  -17.1113  -44.2672 O.2       5 UNK        -0.5000 
     47 CA          3.5278  -14.7469  -44.0261 C.3       5 UNK         0.1400 
     48 CB          4.1303  -14.3470  -45.3819 C.3       5 UNK        -0.1800 
     49 N           2.8228  -13.5870  -43.4713 N.am      5 UNK        -0.5000 
     50 C           2.2050  -13.5327  -42.2825 C.2       4 UNK         0.5000 
     51 O           2.2195  -14.4565  -41.4704 O.2       4 UNK        -0.5000 
     52 CA          1.3895  -12.2617  -41.9635 C.3       4 UNK         0.1400 
     53 CB          2.1415  -11.3853  -40.9504 C.3       4 UNK        -0.1800 
     54 N           1.0341  -11.4415  -43.1291 N.am      4 UNK        -0.5000 
     55 C           0.3074  -11.8410  -44.1818 C.2       3 UNK         0.5000 
     56 O          -0.1212  -12.9907  -44.3247 O.2       3 UNK        -0.5000 
     57 CA          0.0719  -10.7896  -45.2769 C.3       3 UNK         0.1400 
     58 CB          1.3941  -10.4468  -45.9937 C.3       3 UNK        -0.1800 
     59 N          -0.8886  -11.3225  -46.2349 N.am      3 UNK        -0.5000 
     60 C          -1.5445  -10.6405  -47.1801 C.2       2 UNK         0.5000 
     61 O          -1.4699   -9.4169  -47.3064 O.2       2 UNK        -0.5000 
     62 CA         -2.3870  -11.4773  -48.1697 C.3       2 UNK         0.1400 
     63 CB         -2.8173  -10.6748  -49.4110 C.3       2 UNK        -0.1800 
     64 N          -1.6344  -12.6546  -48.6094 N.am      2 UNK        -0.5000 
     65 C          -1.6414  -13.8422  -47.9941 C.2       1 UNK         0.5000 
     66 O          -2.3849  -14.1092  -47.0477 O.2       1 UNK        -0.5000 
     67 C          -1.7353  -21.7939  -48.0233 C.2       11 UNK         0.5000 
     68 O          -2.6697  -21.7040  -48.8185 O.2       11 UNK        -0.5000 
     69 N          -1.8546  -21.5654  -46.7099 N.am      12 UNK        -0.5000 
     70 CA         -3.1107  -21.2424  -46.0412 C.3       12 UNK         0.1400 
     71 CB         -2.8538  -20.1494  -44.9930 C.3       12 UNK        -0.1800 
     72 C          -3.7146  -22.4892  -45.3782 C.2       12 UNK         0.5000 
     73 O          -4.9204  -22.7085  -45.4859 O.2       12 UNK        -0.5000 
     74 N          -2.8721  -23.2766  -44.6967 N.am      13 UNK        -0.5000 
     75 CA         -3.2850  -24.4045  -43.8634 C.3       13 UNK         0.1400 
     76 CB         -2.1259  -24.7914  -42.9316 C.3       13 UNK        -0.1800 
     77 C          -3.7779  -25.6306  -44.6525 C.2       13 UNK         0.5000 
     78 O          -4.6542  -26.3392  -44.1547 O.2       13 UNK        -0.5000 
     79 N          -3.2111  -25.8717  -45.8424 N.am      14 UNK        -0.5000 
     80 CA         -3.5224  -27.0312  -46.6796 C.3       14 UNK         0.1400 
     81 CB         -2.2700  -27.9125  -46.8249 C.3       14 UNK        -0.1800 
     82 C          -4.0585  -26.6065  -48.0534 C.2       14 UNK         0.5000 
     83 O          -5.0892  -27.1254  -48.4833 O.2       14 UNK        -0.5000 
     84 N          -3.3606  -25.6782  -48.7233 N.am      15 UNK        -0.5000 
     85 CA         -3.6899  -25.2413  -50.0854 C.3       15 UNK         0.1400 
     86 CB         -2.4269  -24.6740  -50.7487 C.3       15 UNK        -0.1800 
     87 C          -4.8474  -24.2220  -50.1434 C.2       15 UNK         0.5000 
     88 O          -5.4022  -24.0039  -51.2230 O.2       15 UNK        -0.5000 
     89 N          -5.1801  -23.6180  -48.9913 N.am      16 UNK        -0.5000 
     90 CA         -6.2911  -22.6890  -48.7535 C.3       16 UNK         0.1400 
     91 CB         -7.6273  -23.4590  -48.7801 C.3       16 UNK        -0.1800 
     92 C          -6.2951  -21.4594  -49.6868 C.2       16 UNK         0.5000 
     93 O          -7.3631  -21.0182  -50.1144 O.2       16 UNK        -0.5000 
     94 N          -5.0982  -20.9556  -50.0237 N.am      17 UNK        -0.5000 
     95 CA         -4.7775  -19.8499  -50.9387 C.3       17 UNK         0.1400 
     96 CB         -5.4121  -18.5336  -50.4559 C.3       17 UNK        -0.1800 
     97 C          -5.1066  -20.1145  -52.4253 C.2       17 UNK         0.5000 
     98 O          -4.3941  -19.6183  -53.3021 O.2       17 UNK        -0.5000 
     99 N          -6.1638  -20.8886  -52.6927 N.am      18 UNK        -0.5000 
    100 CA        -6.6489  -21.2650  -54.0163 C.3       18 UNK         0.1400 
    101 CB        -8.0079  -21.9682  -53.8776 C.3       18 UNK        -0.1800 
    102 C         -5.6468  -22.1448  -54.7781 C.2       18 UNK         0.5000 
    103 O         -5.2629  -21.7954  -55.8944 O.2       18 UNK        -0.5000 
    104 N         -5.1990  -23.2421  -54.1499 N.am      19 UNK        -0.5000 
    105 CA        -4.2148  -24.1587  -54.7356 C.3       19 UNK         0.1400 
    106 CB        -4.3607  -25.5542  -54.1102 C.3       19 UNK        -0.1800 
    107 C         -2.7707  -23.6262  -54.6401 C.2       19 UNK         0.5000 
    108 O         -1.8984  -24.1177  -55.3565 O.2       19 UNK        -0.5000 
    109 N         -2.5499  -22.6032  -53.7997 N.am      20 UNK        -0.5000 
    110 CA        -1.3164  -21.8114  -53.7609 C.3       20 UNK         0.1400 
    111 CB        -1.2182  -21.0871  -52.4097 C.3       20 UNK        -0.1800 
    112 C         -1.2299  -20.7960  -54.9211 C.2       20 UNK         0.5000 
    113 O         -0.1514  -20.2531  -55.1615 O.2       20 UNK        -0.5000 
    114 N         -2.3584  -20.5672  -55.6125 N.am      21 UNK        -0.5000 
    115 CA        -2.5504  -19.6693  -56.7522 C.3       21 UNK         0.1400 
    116 CB        -1.7217  -20.1358  -57.9678 C.3       21 UNK        -0.1800 
    117 C         -2.3340  -18.1850  -56.3965 C.2       21 UNK         0.5000 
    118 O         -1.8018  -17.4287  -57.2122 O.2       21 UNK        -0.5000 
    119 N         -2.7652  -17.7878  -55.1933 N.am      22 UNK        -0.5000 
    120 CA        -2.6772  -16.4032  -54.7014 C.3       22 UNK         0.1400 
    121 C         -3.8901  -15.9322  -53.8508 C.2       22 UNK         0.5000 
    122 N         -4.8831  -16.7678  -53.5758 N.am      22 UNK        -0.7600 
    123 O         -3.9607  -14.7648  -53.4760 O.2       22 UNK        -0.5000 
    124 C124       -1.3026  -16.0813  -54.0590 C.3       23 UNK        -0.0398 
    125 S125       -0.8739  -17.1294  -52.6242 S.3       23 UNK        -0.2404 
    126 C126        0.9239  -17.3176  -52.8473 C.3       23 UNK        -0.0205 
    127 H127       -3.2258  -18.4352  -47.9780 H         1 UNK         0.0600 
    128 H128       -2.1358  -18.9418  -49.2735 H         1 UNK         0.0600 
    129 H129       -1.5055  -18.6462  -47.6518 H         1 UNK         0.0600 
    130 H130       -0.3637  -16.7622  -47.5818 H         1 UNK         0.3000 
    131 H131       -0.4474  -14.7523  -49.5291 H         1 UNK         0.0600 
    132 H132        1.3608  -15.4150  -47.5374 H         1 UNK         0.0800 
    133 H133        0.6581  -14.0401  -46.7822 H         1 UNK         0.0800 
    134 H134        3.8765  -14.5953  -48.4757 H         1 UNK         0.0800 
    135 H135        3.7573  -13.9692  -50.0976 H         1 UNK         0.0800 
    136 H136        1.8977  -15.0671  -51.6527 H         1 UNK         0.1150 
    137 H137        1.5605  -19.3038  -51.0987 H         1 UNK         0.1150 
    138 H138        3.4494  -16.8936  -48.0998 H         1 UNK         0.1150 
    139 H139        3.1643  -20.2760  -49.2322 H         1 UNK         0.0800 
    140 H140        3.5007  -19.2467  -47.8692 H         1 UNK         0.0800 
    141 H141       -0.1908  -20.3703  -49.7193 H         1 UNK         0.0800 
    142 H142        1.2210  -21.3794  -49.7621 H         1 UNK         0.0800 
    143 H143       -0.5200  -22.8799  -49.3912 H         1 UNK         0.0600 
    144 H144        1.2742  -22.5711  -47.2396 H         1 UNK         0.3000 
    145 H145        0.2832  -25.3046  -45.2634 H         1 UNK         0.0600 
    146 H146        2.5280  -26.2244  -45.7401 H         1 UNK         0.0600 
    147 H147        1.4623  -26.5093  -47.1060 H         1 UNK         0.0600 
    148 H148        2.6640  -25.2262  -47.1886 H         1 UNK         0.0600 
    149 H149        2.6422  -23.8230  -45.0946 H         1 UNK         0.3000 
    150 H150        2.8894  -22.3549  -43.3888 H         1 UNK         0.0600 
    151 H151        2.8914  -20.8648  -45.3692 H         1 UNK         0.0600 
    152 H152        2.9721  -19.9031  -43.9019 H         1 UNK         0.0600 
    153 H153        1.4538  -20.0330  -44.7847 H         1 UNK         0.0600 
    154 H154        0.7512  -20.5388  -42.4834 H         1 UNK         0.3000 
    155 H155       -0.4785  -21.9940  -40.1206 H         1 UNK         0.0600 
    156 H156        0.5429  -21.4043  -37.9060 H         1 UNK         0.0600 
    157 H157        2.1428  -21.4121  -38.6474 H         1 UNK         0.0600 
    158 H158        1.1990  -22.8921  -38.5650 H         1 UNK         0.0600 
    159 H159       -0.7709  -19.8326  -40.3379 H         1 UNK         0.3000 
    160 H160       -0.6015  -17.7101  -40.2574 H         1 UNK         0.0600 
    161 H161        2.1159  -16.4823  -39.5813 H         1 UNK         0.0600 
    162 H162        0.9163  -17.0031  -38.4044 H         1 UNK         0.0600 
    163 H163        0.5496  -15.6774  -39.4976 H         1 UNK         0.0600 
    164 H164        1.1129  -16.2231  -41.8680 H         1 UNK         0.3000 
    165 H165        0.6320  -17.6275  -45.0308 H         1 UNK         0.0600 
    166 H166       -1.3785  -15.6429  -43.8322 H         1 UNK         0.0600 
    167 H167       -0.9648  -15.7505  -45.5340 H         1 UNK         0.0600 
    168 H168       -1.7752  -17.0931  -44.7450 H         1 UNK         0.0600 
    169 H169        0.9549  -14.9017  -44.1398 H         1 UNK         0.3000 
    170 H170        4.3425  -14.9983  -43.3443 H         1 UNK         0.0600 
    171 H171        4.6651  -15.1816  -45.8376 H         1 UNK         0.0600 
    172 H172        3.3586  -14.0286  -46.0830 H         1 UNK         0.0600 
    173 H173        4.8419  -13.5285  -45.2722 H         1 UNK         0.0600 
    174 H174        2.7546  -12.7775  -44.0692 H         1 UNK         0.3000 
    175 H175        0.4569  -12.5926  -41.5019 H         1 UNK         0.0600 
    176 H176        3.0717  -10.9975  -41.3675 H         1 UNK         0.0600 
    177 H177        1.5344  -10.5370  -40.6338 H         1 UNK         0.0600 
    178 H178        2.3952  -11.9524  -40.0535 H         1 UNK         0.0600 
    179 H179        1.3583  -10.4853  -43.1054 H         1 UNK         0.3000 
    180 H180       -0.3455   -9.8939  -44.8128 H         1 UNK         0.0600 
    181 H181        1.8383  -11.3288  -46.4567 H         1 UNK         0.0600 
    182 H182        2.1282  -10.0346  -45.3008 H         1 UNK         0.0600 
    183 H183        1.2448   -9.7021  -46.7753 H         1 UNK         0.0600 
    184 H184       -1.0580  -12.3167  -46.1320 H         1 UNK         0.3000 
    185 H185       -3.2924  -11.7870  -47.6439 H         1 UNK         0.0600 
    186 H186       -1.9570  -10.3007  -49.9673 H         1 UNK         0.0600 
    187 H187       -3.4135  -11.2872  -50.0878 H         1 UNK         0.0600 
    188 H188       -3.4283   -9.8159  -49.1307 H         1 UNK         0.0600 
    189 H189       -0.9532  -12.4924  -49.3381 H         1 UNK         0.3000 
    190 H190       -1.0485  -21.7027  -46.1111 H         1 UNK         0.3000 
    191 H191       -3.8368  -20.8544  -46.7590 H         1 UNK         0.0600 
    192 H192       -3.7751  -19.8750  -44.4781 H         1 UNK         0.0600 
    193 H193       -2.4593  -19.2472  -45.4575 H         1 UNK         0.0600 
    194 H194       -2.1373  -20.4728  -44.2368 H         1 UNK         0.0600 
    195 H195       -1.8911  -23.0104  -44.6377 H         1 UNK         0.3000 
    196 H196       -4.1145  -24.0676  -43.2378 H         1 UNK         0.0600 
    197 H197       -2.4194  -25.5948  -42.2548 H         1 UNK         0.0600 
    198 H198       -1.8137  -23.9464  -42.3175 H         1 UNK         0.0600 
    199 H199       -1.2566  -25.1356  -43.4911 H         1 UNK         0.0600 
    200 H200       -2.4981  -25.2412  -46.1924 H         1 UNK         0.3000 
    201 H201       -4.2981  -27.6443  -46.2163 H         1 UNK         0.0600 
    202 H202       -1.9263  -28.2671  -45.8531 H         1 UNK         0.0600 
    203 H203       -1.4442  -27.3788  -47.2952 H         1 UNK         0.0600 
    204 H204       -2.4811  -28.7915  -47.4352 H         1 UNK         0.0600 
    205 H205       -2.5041  -25.3123  -48.3146 H         1 UNK         0.3000 
    206 H206       -3.9969  -26.1204  -50.6558 H         1 UNK         0.0600 
    207 H207       -1.5361  -25.2463  -50.4890 H         1 UNK         0.0600 
    208 H208       -2.5116  -24.6895  -51.8327 H         1 UNK         0.0600 
    209 H209       -2.2643  -23.6394  -50.4641 H         1 UNK         0.0600 
    210 H210       -4.6287  -23.8510  -48.1786 H         1 UNK         0.3000 
    211 H211       -6.1584  -22.2945  -47.7468 H         1 UNK         0.0600 
    212 H212       -7.8500  -23.8440  -49.7759 H         1 UNK         0.0600 
    213 H213       -8.4578  -22.8184  -48.4813 H         1 UNK         0.0600 
    214 H214       -7.6078  -24.3036  -48.0912 H         1 UNK         0.0600 
    215 H215       -4.2784  -21.3990  -49.6107 H         1 UNK         0.3000 
    216 H216       -3.6965  -19.7303  -50.8763 H         1 UNK         0.0600 
    217 H217       -6.4900  -18.5149  -50.6189 H         1 UNK         0.0600 
    218 H218       -4.9836  -17.6818  -50.9835 H         1 UNK         0.0600 
    219 H219       -5.2315  -18.3724  -49.3936 H         1 UNK         0.0600 
    220 H220       -6.7111  -21.2039  -51.8977 H         1 UNK         0.3000 
    221 H221       -6.7957  -20.3492  -54.5926 H         1 UNK         0.0600 
    222 H222       -7.9384  -22.8652  -53.2607 H         1 UNK         0.0600 
    223 H223       -8.7463  -21.3080  -53.4223 H         1 UNK         0.0600 
    224 H224       -8.3959  -22.2668  -54.8524 H         1 UNK         0.0600 
    225 H225       -5.5153  -23.4498  -53.2068 H         1 UNK         0.3000 
    226 H226       -4.4338  -24.2647  -55.8005 H         1 UNK         0.0600 
    227 H227       -5.3457  -25.9721  -54.3177 H         1 UNK         0.0600 
    228 H228       -3.6231  -26.2466  -54.5177 H         1 UNK         0.0600 
    229 H229       -4.2329  -25.5368  -53.0313 H         1 UNK         0.0600 
    230 H230       -3.3264  -22.2638  -53.2521 H         1 UNK         0.3000 
    231 H231       -0.4638  -22.4884  -53.8459 H         1 UNK         0.0600 
    232 H232       -1.9711  -20.3064  -52.3156 H         1 UNK         0.0600 
    233 H233       -1.3365  -21.7764  -51.5756 H         1 UNK         0.0600 
    234 H234       -0.2456  -20.6061  -52.3017 H         1 UNK         0.0600 
    235 H235       -3.1952  -21.0537  -55.3188 H         1 UNK         0.3000 
    236 H236       -3.6026  -19.7572  -57.0257 H         1 UNK         0.0600 
    237 H237       -1.9105  -21.1855  -58.1932 H         1 UNK         0.0600 
    238 H238       -1.9790  -19.5626  -58.8591 H         1 UNK         0.0600 
    239 H239       -0.6511  -20.0153  -57.8005 H         1 UNK         0.0600 
    240 H240       -3.1681  -18.4682  -54.5591 H         1 UNK         0.3000 
    241 H241       -2.7554  -15.7552  -55.5766 H         1 UNK         0.0600 
    242 H242       -4.8241  -17.7515  -53.8044 H         1 UNK         0.3800 
    243 H243       -5.6709  -16.4239  -53.0514 H         1 UNK         0.3800 
    244 H244       -1.2554  -15.0361  -53.7491 H         1 UNK         0.0800 
    245 H245       -0.5339  -16.1939  -54.8241 H         1 UNK         0.0800 
    246 H246        1.3097  -16.5606  -53.5312 H         1 UNK         0.0800 
    247 H247        1.1264  -18.2830  -53.3139 H         1 UNK         0.0800 
@<TRIPOS>BOND
     1    1    2 1    
     2    1  127 1    
     3    1  128 1    
     4    1  129 1    
     5    2    3 2    
     6    2    4 am   BACKBONE|DICT|INTERRES
     7    4    5 1    
     8    4  130 1    
     9    5    6 1    
    10    5   65 1    
    11    5  131 1    
    12    6    7 1    
    13    6  132 1    
    14    6  133 1    
    15    7    8 1    
    16    8    9 1    
    17    8  134 1    
    18    8  135 1    
    19    9   10 ar   
    20    9   14 ar   
    21   10   11 ar   
    22   10  136 1    
    23   11   12 ar   
    24   11  126 1    
    25   12   13 ar   
    26   12  137 1    
    27   13   14 ar   
    28   13   15 1    
    29   14  138 1    
    30   15   16 1    
    31   15  139 1    
    32   15  140 1    
    33   16   17 1    
    34   17   18 1    
    35   17  141 1    
    36   17  142 1    
    37   18   19 1    
    38   18   67 1    
    39   18  143 1    
    40   19   20 am   BACKBONE|DICT|INTERRES
    41   19  144 1    
    42   20   21 2    
    43   20   22 1    
    44   22   23 1    
    45   22   24 1    
    46   22  145 1    
    47   23  146 1    
    48   23  147 1    
    49   23  148 1    
    50   24   25 am   BACKBONE|DICT|INTERRES
    51   24  149 1    
    52   25   26 2    
    53   25   27 1    
    54   27   28 1    
    55   27   29 1    
    56   27  150 1    
    57   28  151 1    
    58   28  152 1    
    59   28  153 1    
    60   29   30 am   BACKBONE|DICT|INTERRES
    61   29  154 1    
    62   30   31 2    
    63   30   32 1    
    64   32   33 1    
    65   32   34 1    
    66   32  155 1    
    67   33  156 1    
    68   33  157 1    
    69   33  158 1    
    70   34   35 am   BACKBONE|DICT|INTERRES
    71   34  159 1    
    72   35   36 2    
    73   35   37 1    
    74   37   38 1    
    75   37   39 1    
    76   37  160 1    
    77   38  161 1    
    78   38  162 1    
    79   38  163 1    
    80   39   40 am   BACKBONE|DICT|INTERRES
    81   39  164 1    
    82   40   41 2    
    83   40   42 1    
    84   42   43 1    
    85   42   44 1    
    86   42  165 1    
    87   43  166 1    
    88   43  167 1    
    89   43  168 1    
    90   44   45 am   BACKBONE|DICT|INTERRES
    91   44  169 1    
    92   45   46 2    
    93   45   47 1    
    94   47   48 1    
    95   47   49 1    
    96   47  170 1    
    97   48  171 1    
    98   48  172 1    
    99   48  173 1    
   100   49   50 am   BACKBONE|DICT|INTERRES
   101   49  174 1    
   102   50   51 2    
   103   50   52 1    
   104   52   53 1    
   105   52   54 1    
   106   52  175 1    
   107   53  176 1    
   108   53  177 1    
   109   53  178 1    
   110   54   55 am   BACKBONE|DICT|INTERRES
   111   54  179 1    
   112   55   56 2    
   113   55   57 1    
   114   57   58 1    
   115   57   59 1    
   116   57  180 1    
   117   58  181 1    
   118   58  182 1    
   119   58  183 1    
   120   59   60 am   BACKBONE|DICT|INTERRES
   121   59  184 1    
   122   60   61 2    
   123   60   62 1    
   124   62   63 1    
   125   62   64 1    
   126   62  185 1    
   127   63  186 1    
   128   63  187 1    
   129   63  188 1    
   130   64   65 am   BACKBONE|DICT|INTERRES
   131   64  189 1    
   132   65   66 2    
   133   67   68 2    
   134   67   69 am   BACKBONE|DICT|INTERRES
   135   69   70 1    
   136   69  190 1    
   137   70   71 1    
   138   70   72 1    
   139   70  191 1    
   140   71  192 1    
   141   71  193 1    
   142   71  194 1    
   143   72   73 2    
   144   72   74 am   BACKBONE|DICT|INTERRES
   145   74   75 1    
   146   74  195 1    
   147   75   76 1    
   148   75   77 1    
   149   75  196 1    
   150   76  197 1    
   151   76  198 1    
   152   76  199 1    
   153   77   78 2    
   154   77   79 am   BACKBONE|DICT|INTERRES
   155   79   80 1    
   156   79  200 1    
   157   80   81 1    
   158   80   82 1    
   159   80  201 1    
   160   81  202 1    
   161   81  203 1    
   162   81  204 1    
   163   82   83 2    
   164   82   84 am   BACKBONE|DICT|INTERRES
   165   84   85 1    
   166   84  205 1    
   167   85   86 1    
   168   85   87 1    
   169   85  206 1    
   170   86  207 1    
   171   86  208 1    
   172   86  209 1    
   173   87   88 2    
   174   87   89 am   BACKBONE|DICT|INTERRES
   175   89   90 1    
   176   89  210 1    
   177   90   91 1    
   178   90   92 1    
   179   90  211 1    
   180   91  212 1    
   181   91  213 1    
   182   91  214 1    
   183   92   93 2    
   184   92   94 am   BACKBONE|DICT|INTERRES
   185   94   95 1    
   186   94  215 1    
   187   95   96 1    
   188   95   97 1    
   189   95  216 1    
   190   96  217 1    
   191   96  218 1    
   192   96  219 1    
   193   97   98 2    
   194   97   99 am   BACKBONE|DICT|INTERRES
   195   99  100 1    
   196   99  220 1    
   197  100  101 1    
   198  100  102 1    
   199  100  221 1    
   200  101  222 1    
   201  101  223 1    
   202  101  224 1    
   203  102  103 2    
   204  102  104 am   BACKBONE|DICT|INTERRES
   205  104  105 1    
   206  104  225 1    
   207  105  106 1    
   208  105  107 1    
   209  105  226 1    
   210  106  227 1    
   211  106  228 1    
   212  106  229 1    
   213  107  108 2    
   214  107  109 am   BACKBONE|DICT|INTERRES
   215  109  110 1    
   216  109  230 1    
   217  110  111 1    
   218  110  112 1    
   219  110  231 1    
   220  111  232 1    
   221  111  233 1    
   222  111  234 1    
   223  112  113 2    
   224  112  114 am   BACKBONE|DICT|INTERRES
   225  114  115 1    
   226  114  235 1    
   227  115  116 1    
   228  115  117 1    
   229  115  236 1    
   230  116  237 1    
   231  116  238 1    
   232  116  239 1    
   233  117  118 2    
   234  117  119 am   BACKBONE|DICT|INTERRES
   235  119  120 1    
   236  119  240 1    
   237  120  121 1    
   238  120  124 1    
   239  120  241 1    
   240  121  122 am   BACKBONE|DICT|INTERRES
   241  121  123 2    
   242  122  242 1    
   243  122  243 1    
   244  124  125 1    
   245  124  244 1    
   246  124  245 1    
   247  125  126 1    
   248  126  246 1    
   249  126  247 1    
@<TRIPOS>SUBSTRUCTURE
     1 UNK         1 GROUP             0       ****    0 ROOT    
