@<TRIPOS>MOLECULE
3R540
247   249    1
SMALL
USER_CHARGES


@<TRIPOS>ATOM
      1 CA          3.6167  -10.4735  -54.6760 C.3       0 UNK        -0.1800 
      2 C           4.1154  -10.3106  -53.2470 C.2       0 UNK         0.5000 
      3 O           4.1810   -9.1883  -52.7443 O.2       0 UNK        -0.5000 
      4 N           4.4752  -11.4228  -52.5962 N.am      1 UNK        -0.5000 
      5 CA          4.9013  -11.4834  -51.1957 C.3       1 UNK         0.1400 
      6 C6          5.6061  -12.8254  -50.8579 C.3       23 UNK        -0.0398 
      7 S7          4.6932  -14.3241  -51.3789 S.3       23 UNK        -0.2404 
      8 C8          4.0124  -14.8902  -49.7914 C.3       23 UNK        -0.0205 
      9 C9          2.9684  -15.9743  -49.9963 C.ar      23 UNK        -0.0193 
     10 C10         1.6507  -15.6242  -50.3023 C.ar      23 UNK        -0.1150 
     11 C11         0.6830  -16.6114  -50.5082 C.ar      23 UNK        -0.0193 
     12 C12         1.0439  -17.9586  -50.4056 C.ar      23 UNK        -0.1150 
     13 C13         2.3534  -18.3216  -50.0736 C.ar      23 UNK        -0.0193 
     14 C14         3.3124  -17.3234  -49.8750 C.ar      23 UNK        -0.1150 
     15 C15         2.7403  -19.7876  -49.9337 C.3       23 UNK        -0.0205 
     16 S16         2.3562  -20.4347  -48.2729 S.3       23 UNK        -0.2404 
     17 C17         0.5699  -20.7733  -48.4173 C.3       23 UNK        -0.0398 
     18 CA          0.1515  -22.0676  -47.6795 C.3       11 UNK         0.1400 
     19 N           0.1516  -21.9169  -46.2211 N.am      11 UNK        -0.5000 
     20 C          -0.0536  -22.9153  -45.3497 C.2       10 UNK         0.5000 
     21 O          -0.1999  -24.0917  -45.6794 O.2       10 UNK        -0.5000 
     22 CA         -0.1757  -22.5355  -43.8633 C.3       10 UNK         0.1400 
     23 CB          1.2075  -22.3329  -43.2276 C.3       10 UNK        -0.1800 
     24 N          -1.0085  -21.3502  -43.6531 N.am      10 UNK        -0.5000 
     25 C          -2.3144  -21.2846  -43.9522 C.2       9 UNK         0.5000 
     26 O          -2.9614  -22.2355  -44.3894 O.2       9 UNK        -0.5000 
     27 CA         -3.0117  -19.9245  -43.7718 C.3       9 UNK         0.1400 
     28 CB         -3.4082  -19.7059  -42.3044 C.3       9 UNK        -0.1800 
     29 N          -2.1992  -18.8015  -44.2386 N.am      9 UNK        -0.5000 
     30 C          -1.8064  -18.6221  -45.5088 C.2       8 UNK         0.5000 
     31 O          -2.1232  -19.3689  -46.4350 O.2       8 UNK        -0.5000 
     32 CA         -0.8428  -17.4496  -45.7716 C.3       8 UNK         0.1400 
     33 CB         -1.5904  -16.1085  -45.7745 C.3       8 UNK        -0.1800 
     34 N           0.2440  -17.3908  -44.7945 N.am      8 UNK        -0.5000 
     35 C           1.1393  -18.3652  -44.5842 C.2       7 UNK         0.5000 
     36 O           1.1796  -19.4104  -45.2301 O.2       7 UNK        -0.5000 
     37 CA          2.1119  -18.1645  -43.4105 C.3       7 UNK         0.1400 
     38 CB          3.2709  -17.2361  -43.8011 C.3       7 UNK        -0.1800 
     39 N           1.4317  -17.6365  -42.2279 N.am      7 UNK        -0.5000 
     40 C           0.5553  -18.3310  -41.4886 C.2       6 UNK         0.5000 
     41 O           0.2557  -19.5043  -41.7064 O.2       6 UNK        -0.5000 
     42 CA         -0.1266  -17.5752  -40.3338 C.3       6 UNK         0.1400 
     43 CB          0.7712  -17.5644  -39.0877 C.3       6 UNK        -0.1800 
     44 N          -0.4767  -16.2000  -40.6920 N.am      6 UNK        -0.5000 
     45 C          -1.4054  -15.8687  -41.6001 C.2       5 UNK         0.5000 
     46 O          -2.0896  -16.6902  -42.2089 O.2       5 UNK        -0.5000 
     47 CA         -1.5592  -14.3686  -41.9154 C.3       5 UNK         0.1400 
     48 CB         -2.5227  -13.7038  -40.9211 C.3       5 UNK        -0.1800 
     49 N          -0.2861  -13.6399  -41.9226 N.am      5 UNK        -0.5000 
     50 C           0.7356  -13.9078  -42.7455 C.2       4 UNK         0.5000 
     51 O           0.7266  -14.8249  -43.5718 O.2       4 UNK        -0.5000 
     52 CA          1.9908  -13.0399  -42.5927 C.3       4 UNK         0.1400 
     53 CB          2.8181  -13.4804  -41.3718 C.3       4 UNK        -0.1800 
     54 N           2.7858  -13.1879  -43.8039 N.am      4 UNK        -0.5000 
     55 C           3.6536  -12.3018  -44.2986 C.2       3 UNK         0.5000 
     56 O           3.9311  -11.2354  -43.7459 O.2       3 UNK        -0.5000 
     57 CA          4.3398  -12.6571  -45.6370 C.3       3 UNK         0.1400 
     58 CB          3.9981  -14.0621  -46.1787 C.3       3 UNK        -0.1800 
     59 N           4.1113  -11.6421  -46.6706 N.am      3 UNK        -0.5000 
     60 C           2.9312  -11.1637  -47.0981 C.2       2 UNK         0.5000 
     61 O           1.8338  -11.5593  -46.7041 O.2       2 UNK        -0.5000 
     62 CA          2.9986  -10.0575  -48.1655 C.3       2 UNK         0.1400 
     63 CB          3.3514   -8.7041  -47.5280 C.3       2 UNK        -0.1800 
     64 N           3.9746  -10.3750  -49.2099 N.am      2 UNK        -0.5000 
     65 C           3.7225  -11.1918  -50.2410 C.2       1 UNK         0.5000 
     66 O           2.6228  -11.7113  -50.4470 O.2       1 UNK        -0.5000 
     67 C          -1.2076  -22.5775  -48.1993 C.2       11 UNK         0.5000 
     68 O          -1.2283  -23.5281  -48.9807 O.2       11 UNK        -0.5000 
     69 N          -2.3112  -21.9718  -47.7361 N.am      12 UNK        -0.5000 
     70 CA         -3.6788  -22.3721  -48.0765 C.3       12 UNK         0.1400 
     71 CB         -4.6766  -21.3763  -47.4694 C.3       12 UNK        -0.1800 
     72 C          -4.0072  -23.8115  -47.6429 C.2       12 UNK         0.5000 
     73 O          -4.6012  -24.5567  -48.4228 O.2       12 UNK        -0.5000 
     74 N          -3.5837  -24.1860  -46.4274 N.am      13 UNK        -0.5000 
     75 CA         -3.7183  -25.5331  -45.8759 C.3       13 UNK         0.1400 
     76 CB         -3.3342  -25.5269  -44.3887 C.3       13 UNK        -0.1800 
     77 C          -2.8945  -26.5753  -46.6520 C.2       13 UNK         0.5000 
     78 O          -3.4273  -27.6334  -46.9866 O.2       13 UNK        -0.5000 
     79 N          -1.6308  -26.2489  -46.9609 N.am      14 UNK        -0.5000 
     80 CA         -0.7192  -27.0890  -47.7439 C.3       14 UNK         0.1400 
     81 CB          0.6874  -26.4718  -47.7333 C.3       14 UNK        -0.1800 
     82 C          -1.2009  -27.3150  -49.1890 C.2       14 UNK         0.5000 
     83 O          -1.0651  -28.4215  -49.7120 O.2       14 UNK        -0.5000 
     84 N          -1.7894  -26.2738  -49.7900 N.am      15 UNK        -0.5000 
     85 CA         -2.4198  -26.3102  -51.1088 C.3       15 UNK         0.1400 
     86 CB         -2.4908  -24.8764  -51.6533 C.3       15 UNK        -0.1800 
     87 C          -3.8248  -26.9469  -51.1063 C.2       15 UNK         0.5000 
     88 O          -4.4096  -27.0942  -52.1795 O.2       15 UNK        -0.5000 
     89 N          -4.3672  -27.2688  -49.9210 N.am      16 UNK        -0.5000 
     90 CA         -5.7111  -27.8069  -49.6721 C.3       16 UNK         0.1400 
     91 CB         -5.8045  -29.2636  -50.1702 C.3       16 UNK        -0.1800 
     92 C          -6.8360  -26.9070  -50.2321 C.2       16 UNK         0.5000 
     93 O          -7.8571  -27.4099  -50.7035 O.2       16 UNK        -0.5000 
     94 N          -6.5974  -25.5874  -50.2009 N.am      17 UNK        -0.5000 
     95 CA         -7.4127  -24.5006  -50.7522 C.3       17 UNK         0.1400 
     96 CB         -8.7637  -24.4049  -50.0143 C.3       17 UNK        -0.1800 
     97 C          -7.5851  -24.5234  -52.2901 C.2       17 UNK         0.5000 
     98 O          -8.3844  -23.7440  -52.8113 O.2       17 UNK        -0.5000 
     99 N          -6.8308  -25.3732  -53.0056 N.am      18 UNK        -0.5000 
    100 CA        -6.8243  -25.4383  -54.4725 C.3       18 UNK         0.1400 
    101 CB        -6.3444  -26.8291  -54.9152 C.3       18 UNK        -0.1800 
    102 C         -5.9520  -24.3359  -55.1072 C.2       18 UNK         0.5000 
    103 O         -6.0886  -24.0557  -56.2988 O.2       18 UNK        -0.5000 
    104 N         -5.0838  -23.7283  -54.2955 N.am      19 UNK        -0.5000 
    105 CA        -4.2392  -22.5814  -54.5945 C.3       19 UNK         0.1400 
    106 CB        -2.9280  -23.0520  -55.2528 C.3       19 UNK        -0.1800 
    107 C         -4.0019  -21.8298  -53.2728 C.2       19 UNK         0.5000 
    108 O         -4.5367  -22.2403  -52.2374 O.2       19 UNK        -0.5000 
    109 N         -3.2110  -20.7481  -53.3318 N.am      20 UNK        -0.5000 
    110 CA        -2.8730  -19.8541  -52.2170 C.3       20 UNK         0.1400 
    111 CB        -1.9903  -20.5688  -51.1753 C.3       20 UNK        -0.1800 
    112 C         -4.1274  -19.1923  -51.6127 C.2       20 UNK         0.5000 
    113 O         -4.4196  -19.3411  -50.4244 O.2       20 UNK        -0.5000 
    114 N         -4.8468  -18.4579  -52.4739 N.am      21 UNK        -0.5000 
    115 CA        -6.1022  -17.7530  -52.1852 C.3       21 UNK         0.1400 
    116 CB        -6.6345  -17.1466  -53.4933 C.3       21 UNK        -0.1800 
    117 C         -6.0139  -16.6749  -51.0825 C.2       21 UNK         0.5000 
    118 O         -7.0522  -16.2103  -50.6097 O.2       21 UNK        -0.5000 
    119 N         -4.7897  -16.3124  -50.6799 N.am      22 UNK        -0.5000 
    120 CA        -4.4899  -15.5259  -49.4773 C.3       22 UNK         0.1400 
    121 C         -4.9098  -16.2037  -48.1360 C.2       22 UNK         0.5000 
    122 N         -5.0623  -17.5227  -48.0786 N.am      22 UNK        -0.7600 
    123 O         -5.1116  -15.5162  -47.1390 O.2       22 UNK        -0.5000 
    124 C124       -3.0026  -15.0867  -49.4531 C.3       23 UNK        -0.0398 
    125 S125       -1.8158  -16.4812  -49.3730 S.3       23 UNK        -0.2404 
    126 C126       -0.7524  -16.2197  -50.8251 C.3       23 UNK        -0.0205 
    127 H127        4.2494   -9.9094  -55.3613 H         1 UNK         0.0600 
    128 H128        3.6214  -11.5176  -54.9903 H         1 UNK         0.0600 
    129 H129        2.5975  -10.0971  -54.7627 H         1 UNK         0.0600 
    130 H130        4.3657  -12.3213  -53.0453 H         1 UNK         0.3000 
    131 H131        5.6407  -10.6918  -51.0542 H         1 UNK         0.0600 
    132 H132        6.5708  -12.8506  -51.3662 H         1 UNK         0.0800 
    133 H133        5.8438  -12.8843  -49.7941 H         1 UNK         0.0800 
    134 H134        4.8268  -15.2602  -49.1674 H         1 UNK         0.0800 
    135 H135        3.5617  -14.0513  -49.2596 H         1 UNK         0.0800 
    136 H136        1.3834  -14.5793  -50.3834 H         1 UNK         0.1150 
    137 H137        0.2970  -18.7216  -50.5646 H         1 UNK         0.1150 
    138 H138        4.3285  -17.5969  -49.6271 H         1 UNK         0.1150 
    139 H139        2.2479  -20.3863  -50.7012 H         1 UNK         0.0800 
    140 H140        3.8109  -19.9041  -50.1086 H         1 UNK         0.0800 
    141 H141        0.3345  -20.8601  -49.4779 H         1 UNK         0.0800 
    142 H142        0.0125  -19.9107  -48.0487 H         1 UNK         0.0800 
    143 H143        0.8827  -22.8426  -47.9198 H         1 UNK         0.0600 
    144 H144        0.3232  -20.9801  -45.8630 H         1 UNK         0.3000 
    145 H145       -0.6583  -23.3698  -43.3502 H         1 UNK         0.0600 
    146 H146        1.1250  -22.1398  -42.1580 H         1 UNK         0.0600 
    147 H147        1.8259  -23.2228  -43.3506 H         1 UNK         0.0600 
    148 H148        1.7431  -21.4980  -43.6781 H         1 UNK         0.0600 
    149 H149       -0.5530  -20.5386  -43.2491 H         1 UNK         0.3000 
    150 H150       -3.9252  -19.9403  -44.3695 H         1 UNK         0.0600 
    151 H151       -4.0242  -20.5286  -41.9392 H         1 UNK         0.0600 
    152 H152       -3.9861  -18.7893  -42.1854 H         1 UNK         0.0600 
    153 H153       -2.5339  -19.6363  -41.6567 H         1 UNK         0.0600 
    154 H154       -1.9310  -18.1150  -43.5395 H         1 UNK         0.3000 
    155 H155       -0.3983  -17.5979  -46.7580 H         1 UNK         0.0600 
    156 H156       -0.9340  -15.2920  -46.0759 H         1 UNK         0.0600 
    157 H157       -1.9960  -15.8687  -44.7925 H         1 UNK         0.0600 
    158 H158       -2.4266  -16.1305  -46.4718 H         1 UNK         0.0600 
    159 H159        0.3096  -16.5420  -44.2389 H         1 UNK         0.3000 
    160 H160        2.5331  -19.1392  -43.1552 H         1 UNK         0.0600 
    161 H161        2.9191  -16.2343  -44.0416 H         1 UNK         0.0600 
    162 H162        3.7979  -17.6179  -44.6765 H         1 UNK         0.0600 
    163 H163        3.9982  -17.1511  -42.9937 H         1 UNK         0.0600 
    164 H164        1.5779  -16.6613  -42.0164 H         1 UNK         0.3000 
    165 H165       -1.0478  -18.1071  -40.0862 H         1 UNK         0.0600 
    166 H166        1.7006  -17.0211  -39.2633 H         1 UNK         0.0600 
    167 H167        0.2651  -17.0996  -38.2414 H         1 UNK         0.0600 
    168 H168        1.0356  -18.5797  -38.7892 H         1 UNK         0.0600 
    169 H169        0.0393  -15.4612  -40.2380 H         1 UNK         0.3000 
    170 H170       -1.9927  -14.2858  -42.9140 H         1 UNK         0.0600 
    171 H171       -3.4859  -14.2160  -40.9096 H         1 UNK         0.0600 
    172 H172       -2.1292  -13.7216  -39.9041 H         1 UNK         0.0600 
    173 H173       -2.7126  -12.6647  -41.1903 H         1 UNK         0.0600 
    174 H174       -0.2005  -12.8780  -41.2651 H         1 UNK         0.3000 
    175 H175        1.6817  -11.9986  -42.4810 H         1 UNK         0.0600 
    176 H176        3.7103  -12.8647  -41.2572 H         1 UNK         0.0600 
    177 H177        2.2426  -13.3877  -40.4502 H         1 UNK         0.0600 
    178 H178        3.1392  -14.5193  -41.4579 H         1 UNK         0.0600 
    179 H179        2.5409  -14.0033  -44.3514 H         1 UNK         0.3000 
    180 H180        5.4106  -12.6444  -45.4288 H         1 UNK         0.0600 
    181 H181        2.9487  -14.1561  -46.4613 H         1 UNK         0.0600 
    182 H182        4.2249  -14.8352  -45.4448 H         1 UNK         0.0600 
    183 H183        4.6027  -14.2853  -47.0551 H         1 UNK         0.0600 
    184 H184        4.9474  -11.2188  -47.0450 H         1 UNK         0.3000 
    185 H185        2.0080   -9.9641  -48.6165 H         1 UNK         0.0600 
    186 H186        3.3339   -7.9044  -48.2688 H         1 UNK         0.0600 
    187 H187        2.6329   -8.4413  -46.7504 H         1 UNK         0.0600 
    188 H188        4.3409   -8.7149  -47.0695 H         1 UNK         0.0600 
    189 H189        4.8909   -9.9606  -49.1174 H         1 UNK         0.3000 
    190 H190       -2.2135  -21.1656  -47.1239 H         1 UNK         0.3000 
    191 H191       -3.7826  -22.3281  -49.1617 H         1 UNK         0.0600 
    192 H192       -4.4791  -20.3644  -47.8218 H         1 UNK         0.0600 
    193 H193       -5.6993  -21.6265  -47.7538 H         1 UNK         0.0600 
    194 H194       -4.6282  -21.3663  -46.3807 H         1 UNK         0.0600 
    195 H195       -3.1492  -23.4907  -45.8262 H         1 UNK         0.3000 
    196 H196       -4.7695  -25.8187  -45.9514 H         1 UNK         0.0600 
    197 H197       -3.4390  -26.5214  -43.9533 H         1 UNK         0.0600 
    198 H198       -3.9755  -24.8534  -43.8200 H         1 UNK         0.0600 
    199 H199       -2.3020  -25.2090  -44.2395 H         1 UNK         0.0600 
    200 H200       -1.2514  -25.3692  -46.6187 H         1 UNK         0.3000 
    201 H201       -0.6659  -28.0648  -47.2570 H         1 UNK         0.0600 
    202 H202        1.0752  -26.3934  -46.7175 H         1 UNK         0.0600 
    203 H203        0.6909  -25.4727  -48.1704 H         1 UNK         0.0600 
    204 H204        1.3883  -27.0834  -48.3027 H         1 UNK         0.0600 
    205 H205       -1.7978  -25.3759  -49.3132 H         1 UNK         0.3000 
    206 H206       -1.7959  -26.9007  -51.7825 H         1 UNK         0.0600 
    207 H207       -1.4993  -24.4302  -51.7308 H         1 UNK         0.0600 
    208 H208       -2.9343  -24.8593  -52.6481 H         1 UNK         0.0600 
    209 H209       -3.0963  -24.2355  -51.0111 H         1 UNK         0.0600 
    210 H210       -3.8189  -27.0893  -49.0892 H         1 UNK         0.3000 
    211 H211       -5.8404  -27.8162  -48.5890 H         1 UNK         0.0600 
    212 H212       -5.7362  -29.3245  -51.2568 H         1 UNK         0.0600 
    213 H213       -6.7504  -29.7192  -49.8751 H         1 UNK         0.0600 
    214 H214       -5.0062  -29.8747  -49.7490 H         1 UNK         0.0600 
    215 H215       -5.7436  -25.2846  -49.7353 H         1 UNK         0.3000 
    216 H216       -6.8579  -23.5863  -50.5355 H         1 UNK         0.0600 
    217 H217       -8.6204  -24.3612  -48.9346 H         1 UNK         0.0600 
    218 H218       -9.4072  -25.2571  -50.2342 H         1 UNK         0.0600 
    219 H219       -9.3064  -23.5043  -50.3036 H         1 UNK         0.0600 
    220 H220       -6.1830  -25.9886  -52.5254 H         1 UNK         0.3000 
    221 H221       -7.8451  -25.3041  -54.8364 H         1 UNK         0.0600 
    222 H222       -5.2979  -26.9957  -54.6590 H         1 UNK         0.0600 
    223 H223       -6.9348  -27.6189  -54.4505 H         1 UNK         0.0600 
    224 H224       -6.4366  -26.9456  -55.9956 H         1 UNK         0.0600 
    225 H225       -5.1001  -23.9672  -53.3118 H         1 UNK         0.3000 
    226 H226       -4.7707  -21.9098  -55.2716 H         1 UNK         0.0600 
    227 H227       -3.1257  -23.6445  -56.1462 H         1 UNK         0.0600 
    228 H228       -2.3137  -22.2060  -55.5614 H         1 UNK         0.0600 
    229 H229       -2.3297  -23.6613  -54.5756 H         1 UNK         0.0600 
    230 H230       -2.8227  -20.4899  -54.2281 H         1 UNK         0.3000 
    231 H231       -2.2758  -19.0422  -52.6348 H         1 UNK         0.0600 
    232 H232       -1.7875  -19.9194  -50.3228 H         1 UNK         0.0600 
    233 H233       -1.0320  -20.8563  -51.6071 H         1 UNK         0.0600 
    234 H234       -2.4614  -21.4713  -50.7919 H         1 UNK         0.0600 
    235 H235       -4.5255  -18.4012  -53.4294 H         1 UNK         0.3000 
    236 H236       -6.8197  -18.4992  -51.8380 H         1 UNK         0.0600 
    237 H237       -7.5910  -16.6466  -53.3344 H         1 UNK         0.0600 
    238 H238       -5.9435  -16.4093  -53.9038 H         1 UNK         0.0600 
    239 H239       -6.7957  -17.9155  -54.2491 H         1 UNK         0.0600 
    240 H240       -3.9991  -16.7621  -51.1143 H         1 UNK         0.3000 
    241 H241       -5.0889  -14.6160  -49.5476 H         1 UNK         0.0600 
    242 H242       -4.8588  -18.1042  -48.8854 H         1 UNK         0.3800 
    243 H243       -5.3345  -17.9506  -47.2098 H         1 UNK         0.3800 
    244 H244       -2.7968  -14.4751  -50.3318 H         1 UNK         0.0800 
    245 H245       -2.8163  -14.4351  -48.5977 H         1 UNK         0.0800 
    246 H246       -1.1254  -16.8121  -51.6613 H         1 UNK         0.0800 
    247 H247       -0.7898  -15.1768  -51.1422 H         1 UNK         0.0800 
@<TRIPOS>BOND
     1    1    2 1    
     2    1  127 1    
     3    1  128 1    
     4    1  129 1    
     5    2    3 2    
     6    2    4 am   BACKBONE|DICT|INTERRES
     7    4    5 1    
     8    4  130 1    
     9    5    6 1    
    10    5   65 1    
    11    5  131 1    
    12    6    7 1    
    13    6  132 1    
    14    6  133 1    
    15    7    8 1    
    16    8    9 1    
    17    8  134 1    
    18    8  135 1    
    19    9   10 ar   
    20    9   14 ar   
    21   10   11 ar   
    22   10  136 1    
    23   11   12 ar   
    24   11  126 1    
    25   12   13 ar   
    26   12  137 1    
    27   13   14 ar   
    28   13   15 1    
    29   14  138 1    
    30   15   16 1    
    31   15  139 1    
    32   15  140 1    
    33   16   17 1    
    34   17   18 1    
    35   17  141 1    
    36   17  142 1    
    37   18   19 1    
    38   18   67 1    
    39   18  143 1    
    40   19   20 am   BACKBONE|DICT|INTERRES
    41   19  144 1    
    42   20   21 2    
    43   20   22 1    
    44   22   23 1    
    45   22   24 1    
    46   22  145 1    
    47   23  146 1    
    48   23  147 1    
    49   23  148 1    
    50   24   25 am   BACKBONE|DICT|INTERRES
    51   24  149 1    
    52   25   26 2    
    53   25   27 1    
    54   27   28 1    
    55   27   29 1    
    56   27  150 1    
    57   28  151 1    
    58   28  152 1    
    59   28  153 1    
    60   29   30 am   BACKBONE|DICT|INTERRES
    61   29  154 1    
    62   30   31 2    
    63   30   32 1    
    64   32   33 1    
    65   32   34 1    
    66   32  155 1    
    67   33  156 1    
    68   33  157 1    
    69   33  158 1    
    70   34   35 am   BACKBONE|DICT|INTERRES
    71   34  159 1    
    72   35   36 2    
    73   35   37 1    
    74   37   38 1    
    75   37   39 1    
    76   37  160 1    
    77   38  161 1    
    78   38  162 1    
    79   38  163 1    
    80   39   40 am   BACKBONE|DICT|INTERRES
    81   39  164 1    
    82   40   41 2    
    83   40   42 1    
    84   42   43 1    
    85   42   44 1    
    86   42  165 1    
    87   43  166 1    
    88   43  167 1    
    89   43  168 1    
    90   44   45 am   BACKBONE|DICT|INTERRES
    91   44  169 1    
    92   45   46 2    
    93   45   47 1    
    94   47   48 1    
    95   47   49 1    
    96   47  170 1    
    97   48  171 1    
    98   48  172 1    
    99   48  173 1    
   100   49   50 am   BACKBONE|DICT|INTERRES
   101   49  174 1    
   102   50   51 2    
   103   50   52 1    
   104   52   53 1    
   105   52   54 1    
   106   52  175 1    
   107   53  176 1    
   108   53  177 1    
   109   53  178 1    
   110   54   55 am   BACKBONE|DICT|INTERRES
   111   54  179 1    
   112   55   56 2    
   113   55   57 1    
   114   57   58 1    
   115   57   59 1    
   116   57  180 1    
   117   58  181 1    
   118   58  182 1    
   119   58  183 1    
   120   59   60 am   BACKBONE|DICT|INTERRES
   121   59  184 1    
   122   60   61 2    
   123   60   62 1    
   124   62   63 1    
   125   62   64 1    
   126   62  185 1    
   127   63  186 1    
   128   63  187 1    
   129   63  188 1    
   130   64   65 am   BACKBONE|DICT|INTERRES
   131   64  189 1    
   132   65   66 2    
   133   67   68 2    
   134   67   69 am   BACKBONE|DICT|INTERRES
   135   69   70 1    
   136   69  190 1    
   137   70   71 1    
   138   70   72 1    
   139   70  191 1    
   140   71  192 1    
   141   71  193 1    
   142   71  194 1    
   143   72   73 2    
   144   72   74 am   BACKBONE|DICT|INTERRES
   145   74   75 1    
   146   74  195 1    
   147   75   76 1    
   148   75   77 1    
   149   75  196 1    
   150   76  197 1    
   151   76  198 1    
   152   76  199 1    
   153   77   78 2    
   154   77   79 am   BACKBONE|DICT|INTERRES
   155   79   80 1    
   156   79  200 1    
   157   80   81 1    
   158   80   82 1    
   159   80  201 1    
   160   81  202 1    
   161   81  203 1    
   162   81  204 1    
   163   82   83 2    
   164   82   84 am   BACKBONE|DICT|INTERRES
   165   84   85 1    
   166   84  205 1    
   167   85   86 1    
   168   85   87 1    
   169   85  206 1    
   170   86  207 1    
   171   86  208 1    
   172   86  209 1    
   173   87   88 2    
   174   87   89 am   BACKBONE|DICT|INTERRES
   175   89   90 1    
   176   89  210 1    
   177   90   91 1    
   178   90   92 1    
   179   90  211 1    
   180   91  212 1    
   181   91  213 1    
   182   91  214 1    
   183   92   93 2    
   184   92   94 am   BACKBONE|DICT|INTERRES
   185   94   95 1    
   186   94  215 1    
   187   95   96 1    
   188   95   97 1    
   189   95  216 1    
   190   96  217 1    
   191   96  218 1    
   192   96  219 1    
   193   97   98 2    
   194   97   99 am   BACKBONE|DICT|INTERRES
   195   99  100 1    
   196   99  220 1    
   197  100  101 1    
   198  100  102 1    
   199  100  221 1    
   200  101  222 1    
   201  101  223 1    
   202  101  224 1    
   203  102  103 2    
   204  102  104 am   BACKBONE|DICT|INTERRES
   205  104  105 1    
   206  104  225 1    
   207  105  106 1    
   208  105  107 1    
   209  105  226 1    
   210  106  227 1    
   211  106  228 1    
   212  106  229 1    
   213  107  108 2    
   214  107  109 am   BACKBONE|DICT|INTERRES
   215  109  110 1    
   216  109  230 1    
   217  110  111 1    
   218  110  112 1    
   219  110  231 1    
   220  111  232 1    
   221  111  233 1    
   222  111  234 1    
   223  112  113 2    
   224  112  114 am   BACKBONE|DICT|INTERRES
   225  114  115 1    
   226  114  235 1    
   227  115  116 1    
   228  115  117 1    
   229  115  236 1    
   230  116  237 1    
   231  116  238 1    
   232  116  239 1    
   233  117  118 2    
   234  117  119 am   BACKBONE|DICT|INTERRES
   235  119  120 1    
   236  119  240 1    
   237  120  121 1    
   238  120  124 1    
   239  120  241 1    
   240  121  122 am   BACKBONE|DICT|INTERRES
   241  121  123 2    
   242  122  242 1    
   243  122  243 1    
   244  124  125 1    
   245  124  244 1    
   246  124  245 1    
   247  125  126 1    
   248  126  246 1    
   249  126  247 1    
@<TRIPOS>SUBSTRUCTURE
     1 UNK         1 GROUP             0       ****    0 ROOT    
