@<TRIPOS>MOLECULE
3R540
247   249    1
SMALL
USER_CHARGES


@<TRIPOS>ATOM
      1 CA         -4.7433  -10.9018  -44.9628 C.3       0 UNK        -0.1800 
      2 C          -3.4439  -11.6543  -45.2115 C.2       0 UNK         0.5000 
      3 O          -3.2229  -12.7034  -44.6090 O.2       0 UNK        -0.5000 
      4 N          -2.5914  -11.1211  -46.0978 N.am      1 UNK        -0.5000 
      5 CA         -1.2770  -11.6587  -46.4691 C.3       1 UNK         0.1400 
      6 C6         -1.3642  -13.0321  -47.1825 C.3       23 UNK        -0.0398 
      7 S7          0.0697  -13.3178  -48.2723 S.3       23 UNK        -0.2404 
      8 C8          0.0450  -15.1282  -48.3942 C.3       23 UNK        -0.0205 
      9 C9         -1.0181  -15.6233  -49.3612 C.ar      23 UNK        -0.0193 
     10 C10        -0.7280  -15.7147  -50.7258 C.ar      23 UNK        -0.1150 
     11 C11        -1.6975  -16.1585  -51.6286 C.ar      23 UNK        -0.0193 
     12 C12        -2.9623  -16.5162  -51.1562 C.ar      23 UNK        -0.1150 
     13 C13        -3.2623  -16.4386  -49.7933 C.ar      23 UNK        -0.0193 
     14 C14        -2.2846  -15.9957  -48.8972 C.ar      23 UNK        -0.1150 
     15 C15        -4.6567  -16.8047  -49.3107 C.3       23 UNK        -0.0205 
     16 S16        -4.9113  -18.6053  -49.2966 S.3       23 UNK        -0.2404 
     17 C17        -4.5551  -19.0123  -47.5563 C.3       23 UNK        -0.0398 
     18 CA         -4.2662  -20.5216  -47.3963 C.3       11 UNK         0.1400 
     19 N          -2.9706  -20.8980  -47.9716 N.am      11 UNK        -0.5000 
     20 C          -2.5224  -22.1523  -48.1065 C.2       10 UNK         0.5000 
     21 O          -3.1779  -23.1470  -47.7976 O.2       10 UNK        -0.5000 
     22 CA         -1.0909  -22.3365  -48.6364 C.3       10 UNK         0.1400 
     23 CB         -1.1286  -22.5337  -50.1575 C.3       10 UNK        -0.1800 
     24 N          -0.1673  -21.2434  -48.3171 N.am      10 UNK        -0.5000 
     25 C           0.1074  -20.7597  -47.0973 C.2       9 UNK         0.5000 
     26 O          -0.4478  -21.1381  -46.0624 O.2       9 UNK        -0.5000 
     27 CA          1.1391  -19.6256  -47.0597 C.3       9 UNK         0.1400 
     28 CB          0.4934  -18.3102  -47.5042 C.3       9 UNK        -0.1800 
     29 N           1.6869  -19.4401  -45.7188 N.am      9 UNK        -0.5000 
     30 C           2.8804  -19.8977  -45.3192 C.2       8 UNK         0.5000 
     31 O           3.6308  -20.5546  -46.0429 O.2       8 UNK        -0.5000 
     32 CA          3.3466  -19.5534  -43.8902 C.3       8 UNK         0.1400 
     33 CB          4.5398  -18.5847  -43.9252 C.3       8 UNK        -0.1800 
     34 N           2.2934  -18.9860  -43.0455 N.am      8 UNK        -0.5000 
     35 C           1.3724  -19.7294  -42.4187 C.2       7 UNK         0.5000 
     36 O           1.3070  -20.9557  -42.5120 O.2       7 UNK        -0.5000 
     37 CA          0.3617  -18.9947  -41.5210 C.3       7 UNK         0.1400 
     38 CB          0.9633  -18.7714  -40.1250 C.3       7 UNK        -0.1800 
     39 N          -0.1278  -17.7117  -42.0242 N.am      7 UNK        -0.5000 
     40 C          -0.6327  -17.4130  -43.2281 C.2       6 UNK         0.5000 
     41 O          -0.6578  -18.1949  -44.1772 O.2       6 UNK        -0.5000 
     42 CA         -1.2045  -15.9870  -43.4050 C.3       6 UNK         0.1400 
     43 CB         -2.6200  -15.8847  -42.8085 C.3       6 UNK        -0.1800 
     44 N          -0.3249  -14.9219  -42.9021 N.am      6 UNK        -0.5000 
     45 C           0.1243  -14.7088  -41.6539 C.2       5 UNK         0.5000 
     46 O          -0.3356  -15.2669  -40.6561 O.2       5 UNK        -0.5000 
     47 CA          1.3585  -13.7888  -41.5181 C.3       5 UNK         0.1400 
     48 CB          2.2005  -14.1064  -40.2659 C.3       5 UNK        -0.1800 
     49 N           2.2055  -13.8040  -42.7173 N.am      5 UNK        -0.5000 
     50 C           2.7673  -14.8646  -43.3223 C.2       4 UNK         0.5000 
     51 O           2.7546  -16.0070  -42.8602 O.2       4 UNK        -0.5000 
     52 CA          3.3640  -14.6256  -44.7235 C.3       4 UNK         0.1400 
     53 CB          2.5648  -15.4225  -45.7677 C.3       4 UNK        -0.1800 
     54 N           3.3155  -13.2111  -45.1027 N.am      4 UNK        -0.5000 
     55 C           4.3406  -12.3533  -45.0139 C.2       3 UNK         0.5000 
     56 O           5.4802  -12.6779  -44.6793 O.2       3 UNK        -0.5000 
     57 CA          4.0328  -10.8734  -45.3246 C.3       3 UNK         0.1400 
     58 CB          4.2518  -10.5824  -46.8170 C.3       3 UNK        -0.1800 
     59 N           2.6723  -10.4708  -44.9544 N.am      3 UNK        -0.5000 
     60 C           2.1860  -10.4536  -43.7047 C.2       2 UNK         0.5000 
     61 O           2.8555  -10.7321  -42.7108 O.2       2 UNK        -0.5000 
     62 CA          0.6896  -10.1266  -43.5301 C.3       2 UNK         0.1400 
     63 CB          0.5041   -8.6505  -43.1486 C.3       2 UNK        -0.1800 
     64 N          -0.1403  -10.4242  -44.7008 N.am      2 UNK        -0.5000 
     65 C          -0.2985  -11.6274  -45.2722 C.2       1 UNK         0.5000 
     66 O           0.2787  -12.6491  -44.8874 O.2       1 UNK        -0.5000 
     67 C          -4.4426  -20.9820  -45.9332 C.2       11 UNK         0.5000 
     68 O          -5.5747  -21.2458  -45.5268 O.2       11 UNK        -0.5000 
     69 N          -3.3365  -21.1150  -45.1906 N.am      12 UNK        -0.5000 
     70 CA         -3.3138  -21.6875  -43.8484 C.3       12 UNK         0.1400 
     71 CB         -2.5151  -20.7623  -42.9239 C.3       12 UNK        -0.1800 
     72 C          -2.6938  -23.0927  -43.8691 C.2       12 UNK         0.5000 
     73 O          -3.2772  -24.0193  -43.3069 O.2       12 UNK        -0.5000 
     74 N          -1.5289  -23.2304  -44.5183 N.am      13 UNK        -0.5000 
     75 CA         -0.6917  -24.4320  -44.4936 C.3       13 UNK         0.1400 
     76 CB          0.6850  -24.0927  -45.0859 C.3       13 UNK        -0.1800 
     77 C          -1.2996  -25.6511  -45.2114 C.2       13 UNK         0.5000 
     78 O          -0.9955  -26.7825  -44.8313 O.2       13 UNK        -0.5000 
     79 N          -2.1375  -25.4060  -46.2253 N.am      14 UNK        -0.5000 
     80 CA         -2.8136  -26.4279  -47.0255 C.3       14 UNK         0.1400 
     81 CB         -2.2102  -26.4226  -48.4421 C.3       14 UNK        -0.1800 
     82 C          -4.3354  -26.1986  -47.0646 C.2       14 UNK         0.5000 
     83 O          -5.0084  -26.7893  -47.9084 O.2       14 UNK        -0.5000 
     84 N          -4.8548  -25.3167  -46.1946 N.am      15 UNK        -0.5000 
     85 CA         -6.2587  -24.8891  -46.1049 C.3       15 UNK         0.1400 
     86 CB         -7.1216  -26.0223  -45.5133 C.3       15 UNK        -0.1800 
     87 C          -6.8255  -24.3401  -47.4368 C.2       15 UNK         0.5000 
     88 O          -8.0039  -24.5370  -47.7365 O.2       15 UNK        -0.5000 
     89 N          -5.9545  -23.6847  -48.2178 N.am      16 UNK        -0.5000 
     90 CA         -6.1741  -23.1165  -49.5507 C.3       16 UNK         0.1400 
     91 CB         -7.3249  -22.0879  -49.5561 C.3       16 UNK        -0.1800 
     92 C          -6.3106  -24.1568  -50.6809 C.2       16 UNK         0.5000 
     93 O          -6.6128  -23.7673  -51.8090 O.2       16 UNK        -0.5000 
     94 N          -6.0351  -25.4430  -50.4121 N.am      17 UNK        -0.5000 
     95 CA         -6.0527  -26.5027  -51.4283 C.3       17 UNK         0.1400 
     96 CB         -6.0285  -27.8779  -50.7454 C.3       17 UNK        -0.1800 
     97 C          -4.8928  -26.3850  -52.4373 C.2       17 UNK         0.5000 
     98 O          -5.0455  -26.7939  -53.5884 O.2       17 UNK        -0.5000 
     99 N          -3.7672  -25.8115  -51.9905 N.am      18 UNK        -0.5000 
    100 CA        -2.5604  -25.5802  -52.7867 C.3       18 UNK         0.1400 
    101 CB        -1.3363  -26.0564  -51.9850 C.3       18 UNK        -0.1800 
    102 C         -2.4140  -24.1068  -53.2186 C.2       18 UNK         0.5000 
    103 O         -1.3464  -23.7261  -53.6983 O.2       18 UNK        -0.5000 
    104 N         -3.4714  -23.2914  -53.0637 N.am      19 UNK        -0.5000 
    105 CA        -3.4850  -21.8581  -53.3972 C.3       19 UNK         0.1400 
    106 CB        -4.7896  -21.2227  -52.8952 C.3       19 UNK        -0.1800 
    107 C         -3.2628  -21.5457  -54.8927 C.2       19 UNK         0.5000 
    108 O         -2.9088  -20.4172  -55.2305 O.2       19 UNK        -0.5000 
    109 N         -3.4079  -22.5577  -55.7596 N.am      20 UNK        -0.5000 
    110 CA        -3.0399  -22.5251  -57.1773 C.3       20 UNK         0.1400 
    111 CB        -3.4983  -23.8371  -57.8328 C.3       20 UNK        -0.1800 
    112 C         -1.5331  -22.2897  -57.4327 C.2       20 UNK         0.5000 
    113 O         -1.1663  -21.9253  -58.5502 O.2       20 UNK        -0.5000 
    114 N         -0.6888  -22.4856  -56.4073 N.am      21 UNK        -0.5000 
    115 CA         0.7440  -22.1867  -56.4294 C.3       21 UNK         0.1400 
    116 CB         1.4096  -22.8475  -55.2122 C.3       21 UNK        -0.1800 
    117 C          1.0679  -20.6773  -56.4638 C.2       21 UNK         0.5000 
    118 O          2.1893  -20.3216  -56.8301 O.2       21 UNK        -0.5000 
    119 N          0.1098  -19.8193  -56.0819 N.am      22 UNK        -0.5000 
    120 CA         0.2163  -18.3538  -56.1642 C.3       22 UNK         0.1400 
    121 C          0.3485  -17.8516  -57.6306 C.2       22 UNK         0.5000 
    122 N          1.2428  -16.9082  -57.8935 N.am      22 UNK        -0.7600 
    123 O         -0.3853  -18.2746  -58.5209 O.2       22 UNK        -0.5000 
    124 C124       -0.9829  -17.6558  -55.4764 C.3       23 UNK        -0.0398 
    125 S125       -1.0230  -17.9119  -53.6686 S.3       23 UNK        -0.2404 
    126 C126       -1.3983  -16.2186  -53.1175 C.3       23 UNK        -0.0205 
    127 H127       -4.8097   -9.9951  -45.5646 H         1 UNK         0.0600 
    128 H128       -4.8173  -10.6192  -43.9127 H         1 UNK         0.0600 
    129 H129       -5.5959  -11.5354  -45.2074 H         1 UNK         0.0600 
    130 H130       -2.8476  -10.2572  -46.5555 H         1 UNK         0.3000 
    131 H131       -0.8837  -10.9417  -47.1917 H         1 UNK         0.0600 
    132 H132       -1.4705  -13.8449  -46.4621 H         1 UNK         0.0800 
    133 H133       -2.2543  -13.0704  -47.8119 H         1 UNK         0.0800 
    134 H134       -0.1151  -15.5550  -47.4044 H         1 UNK         0.0800 
    135 H135        1.0280  -15.4667  -48.7244 H         1 UNK         0.0800 
    136 H136        0.2502  -15.4276  -51.0856 H         1 UNK         0.1150 
    137 H137       -3.7172  -16.8551  -51.8521 H         1 UNK         0.1150 
    138 H138       -2.5120  -15.9282  -47.8427 H         1 UNK         0.1150 
    139 H139       -4.8531  -16.3860  -48.3225 H         1 UNK         0.0800 
    140 H140       -5.3926  -16.3552  -49.9791 H         1 UNK         0.0800 
    141 H141       -5.4264  -18.7129  -46.9702 H         1 UNK         0.0800 
    142 H142       -3.7155  -18.4158  -47.1948 H         1 UNK         0.0800 
    143 H143       -5.0275  -21.0597  -47.9580 H         1 UNK         0.0600 
    144 H144       -2.3717  -20.1400  -48.2631 H         1 UNK         0.3000 
    145 H145       -0.6955  -23.2465  -48.1816 H         1 UNK         0.0600 
    146 H146       -0.1605  -22.8543  -50.5427 H         1 UNK         0.0600 
    147 H147       -1.8564  -23.2975  -50.4301 H         1 UNK         0.0600 
    148 H148       -1.4111  -21.6168  -50.6761 H         1 UNK         0.0600 
    149 H149        0.3276  -20.8512  -49.1051 H         1 UNK         0.3000 
    150 H150        1.9373  -19.8660  -47.7649 H         1 UNK         0.0600 
    151 H151        0.1036  -18.3779  -48.5207 H         1 UNK         0.0600 
    152 H152        1.2333  -17.5118  -47.4934 H         1 UNK         0.0600 
    153 H153       -0.3314  -18.0199  -46.8526 H         1 UNK         0.0600 
    154 H154        1.0699  -19.0005  -45.0439 H         1 UNK         0.3000 
    155 H155        3.6950  -20.4832  -43.4354 H         1 UNK         0.0600 
    156 H156        4.2890  -17.6510  -44.4264 H         1 UNK         0.0600 
    157 H157        5.3836  -19.0236  -44.4589 H         1 UNK         0.0600 
    158 H158        4.8829  -18.3429  -42.9191 H         1 UNK         0.0600 
    159 H159        2.2948  -17.9774  -42.9212 H         1 UNK         0.3000 
    160 H160       -0.5053  -19.6432  -41.4023 H         1 UNK         0.0600 
    161 H161        1.8042  -18.0770  -40.1587 H         1 UNK         0.0600 
    162 H162        1.3249  -19.7076  -39.6975 H         1 UNK         0.0600 
    163 H163        0.2224  -18.3652  -39.4361 H         1 UNK         0.0600 
    164 H164       -0.1539  -16.9583  -41.3417 H         1 UNK         0.3000 
    165 H165       -1.2882  -15.8134  -44.4791 H         1 UNK         0.0600 
    166 H166       -2.6288  -16.0767  -41.7355 H         1 UNK         0.0600 
    167 H167       -3.0464  -14.8958  -42.9747 H         1 UNK         0.0600 
    168 H168       -3.2887  -16.6100  -43.2736 H         1 UNK         0.0600 
    169 H169        0.0957  -14.3520  -43.6282 H         1 UNK         0.3000 
    170 H170        0.9763  -12.7726  -41.4171 H         1 UNK         0.0600 
    171 H171        1.6169  -13.9690  -39.3550 H         1 UNK         0.0600 
    172 H172        2.5612  -15.1357  -40.2718 H         1 UNK         0.0600 
    173 H173        3.0663  -13.4478  -40.1973 H         1 UNK         0.0600 
    174 H174        2.3019  -12.9118  -43.1811 H         1 UNK         0.3000 
    175 H175        4.3930  -14.9901  -44.7170 H         1 UNK         0.0600 
    176 H176        1.5203  -15.1113  -45.7835 H         1 UNK         0.0600 
    177 H177        2.9725  -15.2839  -46.7691 H         1 UNK         0.0600 
    178 H178        2.5809  -16.4915  -45.5550 H         1 UNK         0.0600 
    179 H179        2.4039  -12.8572  -45.3678 H         1 UNK         0.3000 
    180 H180        4.7318  -10.2628  -44.7492 H         1 UNK         0.0600 
    181 H181        3.5599  -11.1474  -47.4432 H         1 UNK         0.0600 
    182 H182        5.2643  -10.8498  -47.1226 H         1 UNK         0.0600 
    183 H183        4.1167   -9.5232  -47.0369 H         1 UNK         0.0600 
    184 H184        2.0517  -10.2230  -45.7107 H         1 UNK         0.3000 
    185 H185        0.3189  -10.7393  -42.7062 H         1 UNK         0.0600 
    186 H186        0.8256   -7.9845  -43.9503 H         1 UNK         0.0600 
    187 H187       -0.5394   -8.4284  -42.9242 H         1 UNK         0.0600 
    188 H188        1.0855   -8.3996  -42.2603 H         1 UNK         0.0600 
    189 H189       -0.6661   -9.6483  -45.0764 H         1 UNK         0.3000 
    190 H190       -2.4342  -20.9071  -45.6053 H         1 UNK         0.3000 
    191 H191       -4.3236  -21.7738  -43.4417 H         1 UNK         0.0600 
    192 H192       -2.4653  -21.1649  -41.9116 H         1 UNK         0.0600 
    193 H193       -2.9707  -19.7738  -42.8633 H         1 UNK         0.0600 
    194 H194       -1.4937  -20.6373  -43.2840 H         1 UNK         0.0600 
    195 H195       -1.1196  -22.4176  -44.9751 H         1 UNK         0.3000 
    196 H196       -0.5481  -24.7101  -43.4474 H         1 UNK         0.0600 
    197 H197        0.6129  -23.8101  -46.1362 H         1 UNK         0.0600 
    198 H198        1.1527  -23.2664  -44.5493 H         1 UNK         0.0600 
    199 H199        1.3605  -24.9466  -45.0212 H         1 UNK         0.0600 
    200 H200       -2.3403  -24.4466  -46.4833 H         1 UNK         0.3000 
    201 H201       -2.6654  -27.4188  -46.5925 H         1 UNK         0.0600 
    202 H202       -2.3914  -25.4751  -48.9489 H         1 UNK         0.0600 
    203 H203       -2.6385  -27.2137  -49.0589 H         1 UNK         0.0600 
    204 H204       -1.1328  -26.5853  -48.4123 H         1 UNK         0.0600 
    205 H205       -4.2251  -24.8942  -45.5269 H         1 UNK         0.3000 
    206 H206       -6.2797  -24.0549  -45.4021 H         1 UNK         0.0600 
    207 H207       -6.7124  -26.3755  -44.5668 H         1 UNK         0.0600 
    208 H208       -8.1386  -25.6808  -45.3176 H         1 UNK         0.0600 
    209 H209       -7.1863  -26.8751  -46.1899 H         1 UNK         0.0600 
    210 H210       -4.9955  -23.6123  -47.8856 H         1 UNK         0.3000 
    211 H211       -5.2575  -22.5722  -49.7789 H         1 UNK         0.0600 
    212 H212       -7.3263  -21.5116  -50.4820 H         1 UNK         0.0600 
    213 H213       -7.2337  -21.3772  -48.7353 H         1 UNK         0.0600 
    214 H214       -8.2995  -22.5694  -49.4745 H         1 UNK         0.0600 
    215 H215       -5.7928  -25.7225  -49.4666 H         1 UNK         0.3000 
    216 H216       -6.9881  -26.4212  -51.9861 H         1 UNK         0.0600 
    217 H217       -5.0830  -28.0568  -50.2324 H         1 UNK         0.0600 
    218 H218       -6.1577  -28.6768  -51.4765 H         1 UNK         0.0600 
    219 H219       -6.8315  -27.9720  -50.0140 H         1 UNK         0.0600 
    220 H220       -3.7422  -25.5042  -51.0297 H         1 UNK         0.3000 
    221 H221       -2.5994  -26.1694  -53.7050 H         1 UNK         0.0600 
    222 H222       -1.4437  -27.0990  -51.6851 H         1 UNK         0.0600 
    223 H223       -1.1818  -25.4641  -51.0842 H         1 UNK         0.0600 
    224 H224       -0.4252  -25.9860  -52.5806 H         1 UNK         0.0600 
    225 H225       -4.3345  -23.6791  -52.7083 H         1 UNK         0.3000 
    226 H226       -2.6588  -21.3899  -52.8584 H         1 UNK         0.0600 
    227 H227       -5.6641  -21.6777  -53.3613 H         1 UNK         0.0600 
    228 H228       -4.8883  -21.3243  -51.8152 H         1 UNK         0.0600 
    229 H229       -4.8164  -20.1551  -53.1181 H         1 UNK         0.0600 
    230 H230       -3.7055  -23.4497  -55.3939 H         1 UNK         0.3000 
    231 H231       -3.5805  -21.6989  -57.6434 H         1 UNK         0.0600 
    232 H232       -3.0021  -24.7018  -57.3901 H         1 UNK         0.0600 
    233 H233       -3.2742  -23.8409  -58.9004 H         1 UNK         0.0600 
    234 H234       -4.5746  -23.9763  -57.7285 H         1 UNK         0.0600 
    235 H235       -1.0586  -22.8196  -55.5233 H         1 UNK         0.3000 
    236 H236        1.1678  -22.6322  -57.3317 H         1 UNK         0.0600 
    237 H237        1.2281  -23.9224  -55.1966 H         1 UNK         0.0600 
    238 H238        2.4901  -22.7003  -55.2283 H         1 UNK         0.0600 
    239 H239        1.0355  -22.4310  -54.2760 H         1 UNK         0.0600 
    240 H240       -0.7942  -20.1810  -55.8042 H         1 UNK         0.3000 
    241 H241        1.1241  -18.0676  -55.6292 H         1 UNK         0.0600 
    242 H242        1.3268  -16.5625  -58.8371 H         1 UNK         0.3800 
    243 H243        1.8525  -16.5419  -57.1784 H         1 UNK         0.3800 
    244 H244       -1.9261  -18.0044  -55.9002 H         1 UNK         0.0800 
    245 H245       -0.9486  -16.5823  -55.6715 H         1 UNK         0.0800 
    246 H246       -2.2595  -15.8400  -53.6705 H         1 UNK         0.0800 
    247 H247       -0.5607  -15.5643  -53.3646 H         1 UNK         0.0800 
@<TRIPOS>BOND
     1    1    2 1    
     2    1  127 1    
     3    1  128 1    
     4    1  129 1    
     5    2    3 2    
     6    2    4 am   BACKBONE|DICT|INTERRES
     7    4    5 1    
     8    4  130 1    
     9    5    6 1    
    10    5   65 1    
    11    5  131 1    
    12    6    7 1    
    13    6  132 1    
    14    6  133 1    
    15    7    8 1    
    16    8    9 1    
    17    8  134 1    
    18    8  135 1    
    19    9   10 ar   
    20    9   14 ar   
    21   10   11 ar   
    22   10  136 1    
    23   11   12 ar   
    24   11  126 1    
    25   12   13 ar   
    26   12  137 1    
    27   13   14 ar   
    28   13   15 1    
    29   14  138 1    
    30   15   16 1    
    31   15  139 1    
    32   15  140 1    
    33   16   17 1    
    34   17   18 1    
    35   17  141 1    
    36   17  142 1    
    37   18   19 1    
    38   18   67 1    
    39   18  143 1    
    40   19   20 am   BACKBONE|DICT|INTERRES
    41   19  144 1    
    42   20   21 2    
    43   20   22 1    
    44   22   23 1    
    45   22   24 1    
    46   22  145 1    
    47   23  146 1    
    48   23  147 1    
    49   23  148 1    
    50   24   25 am   BACKBONE|DICT|INTERRES
    51   24  149 1    
    52   25   26 2    
    53   25   27 1    
    54   27   28 1    
    55   27   29 1    
    56   27  150 1    
    57   28  151 1    
    58   28  152 1    
    59   28  153 1    
    60   29   30 am   BACKBONE|DICT|INTERRES
    61   29  154 1    
    62   30   31 2    
    63   30   32 1    
    64   32   33 1    
    65   32   34 1    
    66   32  155 1    
    67   33  156 1    
    68   33  157 1    
    69   33  158 1    
    70   34   35 am   BACKBONE|DICT|INTERRES
    71   34  159 1    
    72   35   36 2    
    73   35   37 1    
    74   37   38 1    
    75   37   39 1    
    76   37  160 1    
    77   38  161 1    
    78   38  162 1    
    79   38  163 1    
    80   39   40 am   BACKBONE|DICT|INTERRES
    81   39  164 1    
    82   40   41 2    
    83   40   42 1    
    84   42   43 1    
    85   42   44 1    
    86   42  165 1    
    87   43  166 1    
    88   43  167 1    
    89   43  168 1    
    90   44   45 am   BACKBONE|DICT|INTERRES
    91   44  169 1    
    92   45   46 2    
    93   45   47 1    
    94   47   48 1    
    95   47   49 1    
    96   47  170 1    
    97   48  171 1    
    98   48  172 1    
    99   48  173 1    
   100   49   50 am   BACKBONE|DICT|INTERRES
   101   49  174 1    
   102   50   51 2    
   103   50   52 1    
   104   52   53 1    
   105   52   54 1    
   106   52  175 1    
   107   53  176 1    
   108   53  177 1    
   109   53  178 1    
   110   54   55 am   BACKBONE|DICT|INTERRES
   111   54  179 1    
   112   55   56 2    
   113   55   57 1    
   114   57   58 1    
   115   57   59 1    
   116   57  180 1    
   117   58  181 1    
   118   58  182 1    
   119   58  183 1    
   120   59   60 am   BACKBONE|DICT|INTERRES
   121   59  184 1    
   122   60   61 2    
   123   60   62 1    
   124   62   63 1    
   125   62   64 1    
   126   62  185 1    
   127   63  186 1    
   128   63  187 1    
   129   63  188 1    
   130   64   65 am   BACKBONE|DICT|INTERRES
   131   64  189 1    
   132   65   66 2    
   133   67   68 2    
   134   67   69 am   BACKBONE|DICT|INTERRES
   135   69   70 1    
   136   69  190 1    
   137   70   71 1    
   138   70   72 1    
   139   70  191 1    
   140   71  192 1    
   141   71  193 1    
   142   71  194 1    
   143   72   73 2    
   144   72   74 am   BACKBONE|DICT|INTERRES
   145   74   75 1    
   146   74  195 1    
   147   75   76 1    
   148   75   77 1    
   149   75  196 1    
   150   76  197 1    
   151   76  198 1    
   152   76  199 1    
   153   77   78 2    
   154   77   79 am   BACKBONE|DICT|INTERRES
   155   79   80 1    
   156   79  200 1    
   157   80   81 1    
   158   80   82 1    
   159   80  201 1    
   160   81  202 1    
   161   81  203 1    
   162   81  204 1    
   163   82   83 2    
   164   82   84 am   BACKBONE|DICT|INTERRES
   165   84   85 1    
   166   84  205 1    
   167   85   86 1    
   168   85   87 1    
   169   85  206 1    
   170   86  207 1    
   171   86  208 1    
   172   86  209 1    
   173   87   88 2    
   174   87   89 am   BACKBONE|DICT|INTERRES
   175   89   90 1    
   176   89  210 1    
   177   90   91 1    
   178   90   92 1    
   179   90  211 1    
   180   91  212 1    
   181   91  213 1    
   182   91  214 1    
   183   92   93 2    
   184   92   94 am   BACKBONE|DICT|INTERRES
   185   94   95 1    
   186   94  215 1    
   187   95   96 1    
   188   95   97 1    
   189   95  216 1    
   190   96  217 1    
   191   96  218 1    
   192   96  219 1    
   193   97   98 2    
   194   97   99 am   BACKBONE|DICT|INTERRES
   195   99  100 1    
   196   99  220 1    
   197  100  101 1    
   198  100  102 1    
   199  100  221 1    
   200  101  222 1    
   201  101  223 1    
   202  101  224 1    
   203  102  103 2    
   204  102  104 am   BACKBONE|DICT|INTERRES
   205  104  105 1    
   206  104  225 1    
   207  105  106 1    
   208  105  107 1    
   209  105  226 1    
   210  106  227 1    
   211  106  228 1    
   212  106  229 1    
   213  107  108 2    
   214  107  109 am   BACKBONE|DICT|INTERRES
   215  109  110 1    
   216  109  230 1    
   217  110  111 1    
   218  110  112 1    
   219  110  231 1    
   220  111  232 1    
   221  111  233 1    
   222  111  234 1    
   223  112  113 2    
   224  112  114 am   BACKBONE|DICT|INTERRES
   225  114  115 1    
   226  114  235 1    
   227  115  116 1    
   228  115  117 1    
   229  115  236 1    
   230  116  237 1    
   231  116  238 1    
   232  116  239 1    
   233  117  118 2    
   234  117  119 am   BACKBONE|DICT|INTERRES
   235  119  120 1    
   236  119  240 1    
   237  120  121 1    
   238  120  124 1    
   239  120  241 1    
   240  121  122 am   BACKBONE|DICT|INTERRES
   241  121  123 2    
   242  122  242 1    
   243  122  243 1    
   244  124  125 1    
   245  124  244 1    
   246  124  245 1    
   247  125  126 1    
   248  126  246 1    
   249  126  247 1    
@<TRIPOS>SUBSTRUCTURE
     1 UNK         1 GROUP             0       ****    0 ROOT    
