@<TRIPOS>MOLECULE
3R540
247   249    1
SMALL
USER_CHARGES


@<TRIPOS>ATOM
      1 CA          0.2399   -9.8168  -49.8038 C.3       0 UNK        -0.1800 
      2 C           0.7925  -10.7414  -48.7291 C.2       0 UNK         0.5000 
      3 O           1.5764  -10.3032  -47.8869 O.2       0 UNK        -0.5000 
      4 N           0.3737  -12.0155  -48.7393 N.am      1 UNK        -0.5000 
      5 CA          0.8188  -13.0612  -47.8045 C.3       1 UNK         0.1400 
      6 C6          0.3537  -14.4703  -48.2551 C.3       23 UNK        -0.0398 
      7 S7          1.5173  -15.7836  -47.7428 S.3       23 UNK        -0.2404 
      8 C8          2.3060  -16.2374  -49.3175 C.3       23 UNK        -0.0205 
      9 C9          1.5152  -17.3003  -50.0672 C.ar      23 UNK        -0.0193 
     10 C10         0.4985  -16.9370  -50.9551 C.ar      23 UNK        -0.1150 
     11 C11        -0.2016  -17.9104  -51.6729 C.ar      23 UNK        -0.0193 
     12 C12         0.1347  -19.2576  -51.5130 C.ar      23 UNK        -0.1150 
     13 C13         1.1541  -19.6349  -50.6324 C.ar      23 UNK        -0.0193 
     14 C14         1.8298  -18.6526  -49.9020 C.ar      23 UNK        -0.1150 
     15 C15         1.5631  -21.0959  -50.5083 C.3       23 UNK        -0.0205 
     16 S16         0.2413  -22.1366  -49.8216 S.3       23 UNK        -0.2404 
     17 C17         0.1162  -21.5197  -48.1082 C.3       23 UNK        -0.0398 
     18 CA         -0.3463  -22.6321  -47.1375 C.3       11 UNK         0.1400 
     19 N           0.0337  -22.3576  -45.7495 N.am      11 UNK        -0.5000 
     20 C          -0.0259  -23.2656  -44.7646 C.2       10 UNK         0.5000 
     21 O          -0.4015  -24.4251  -44.9288 O.2       10 UNK        -0.5000 
     22 CA          0.3442  -22.7936  -43.3493 C.3       10 UNK         0.1400 
     23 CB          1.8663  -22.6626  -43.1951 C.3       10 UNK        -0.1800 
     24 N          -0.3113  -21.5359  -42.9923 N.am      10 UNK        -0.5000 
     25 C          -1.6406  -21.3792  -42.9037 C.2       9 UNK         0.5000 
     26 O          -2.4499  -22.2922  -43.0700 O.2       9 UNK        -0.5000 
     27 CA         -2.1571  -19.9568  -42.6277 C.3       9 UNK         0.1400 
     28 CB         -2.0482  -19.6180  -41.1337 C.3       9 UNK        -0.1800 
     29 N          -1.4589  -18.9387  -43.4112 N.am      9 UNK        -0.5000 
     30 C          -1.4455  -18.8687  -44.7503 C.2       8 UNK         0.5000 
     31 O          -2.0458  -19.6482  -45.4880 O.2       8 UNK        -0.5000 
     32 CA         -0.5563  -17.7777  -45.3677 C.3       8 UNK         0.1400 
     33 CB         -1.2064  -16.3917  -45.2236 C.3       8 UNK        -0.1800 
     34 N           0.7770  -17.7735  -44.7666 N.am      8 UNK        -0.5000 
     35 C           1.6498  -18.7884  -44.8520 C.2       7 UNK         0.5000 
     36 O           1.4419  -19.8239  -45.4852 O.2       7 UNK        -0.5000 
     37 CA          2.9536  -18.6416  -44.0521 C.3       7 UNK         0.1400 
     38 CB          4.0000  -17.8608  -44.8619 C.3       7 UNK        -0.1800 
     39 N           2.7256  -17.9843  -42.7644 N.am      7 UNK        -0.5000 
     40 C           2.1110  -18.5629  -41.7216 C.2       6 UNK         0.5000 
     41 O           1.7103  -19.7264  -41.7289 O.2       6 UNK        -0.5000 
     42 CA          1.8570  -17.6861  -40.4783 C.3       6 UNK         0.1400 
     43 CB          3.0854  -17.6859  -39.5568 C.3       6 UNK        -0.1800 
     44 N           1.5032  -16.3059  -40.8138 N.am      6 UNK        -0.5000 
     45 C           0.4166  -15.9530  -41.5129 C.2       5 UNK         0.5000 
     46 O          -0.4538  -16.7523  -41.8554 O.2       5 UNK        -0.5000 
     47 CA          0.2867  -14.4786  -41.9438 C.3       5 UNK         0.1400 
     48 CB         -0.6679  -13.7343  -40.9987 C.3       5 UNK        -0.1800 
     49 N           1.5372  -13.7172  -42.0587 N.am      5 UNK        -0.5000 
     50 C           2.6244  -14.0625  -42.7658 C.2       4 UNK         0.5000 
     51 O           2.7853  -15.1677  -43.2840 O.2       4 UNK        -0.5000 
     52 CA          3.6701  -12.9550  -42.9626 C.3       4 UNK         0.1400 
     53 CB          4.8799  -13.4049  -43.8022 C.3       4 UNK        -0.1800 
     54 N           3.0055  -11.8408  -43.6281 N.am      4 UNK        -0.5000 
     55 C           3.1418  -10.5445  -43.3239 C.2       3 UNK         0.5000 
     56 O           3.9184  -10.1248  -42.4651 O.2       3 UNK        -0.5000 
     57 CA          2.2553   -9.5415  -44.0952 C.3       3 UNK         0.1400 
     58 CB          3.0713   -8.8380  -45.1900 C.3       3 UNK        -0.1800 
     59 N           1.0724  -10.1566  -44.7045 N.am      3 UNK        -0.5000 
     60 C           0.0360  -10.6622  -44.0174 C.2       2 UNK         0.5000 
     61 O          -0.0778  -10.5601  -42.7959 O.2       2 UNK        -0.5000 
     62 CA         -1.0351  -11.4465  -44.8078 C.3       2 UNK         0.1400 
     63 CB         -2.2959  -10.5904  -44.9987 C.3       2 UNK        -0.1800 
     64 N          -0.5902  -11.9318  -46.1181 N.am      2 UNK        -0.5000 
     65 C           0.4324  -12.7729  -46.3350 C.2       1 UNK         0.5000 
     66 O           1.0963  -13.2657  -45.4260 O.2       1 UNK        -0.5000 
     67 C          -1.8536  -22.9340  -47.2811 C.2       11 UNK         0.5000 
     68 O          -2.2187  -23.8352  -48.0378 O.2       11 UNK        -0.5000 
     69 N          -2.7058  -22.2113  -46.5397 N.am      12 UNK        -0.5000 
     70 CA         -4.1494  -22.4474  -46.4677 C.3       12 UNK         0.1400 
     71 CB         -4.8245  -21.3385  -45.6481 C.3       12 UNK        -0.1800 
     72 C          -4.4985  -23.8369  -45.9059 C.2       12 UNK         0.5000 
     73 O          -5.3893  -24.4975  -46.4390 O.2       12 UNK        -0.5000 
     74 N          -3.7745  -24.2667  -44.8655 N.am      13 UNK        -0.5000 
     75 CA         -3.9223  -25.5849  -44.2553 C.3       13 UNK         0.1400 
     76 CB         -3.2372  -25.5890  -42.8796 C.3       13 UNK        -0.1800 
     77 C          -3.3742  -26.7174  -45.1432 C.2       13 UNK         0.5000 
     78 O          -4.0578  -27.7247  -45.3308 O.2       13 UNK        -0.5000 
     79 N          -2.1448  -26.5488  -45.6471 N.am      14 UNK        -0.5000 
     80 CA         -1.3940  -27.6031  -46.3279 C.3       14 UNK         0.1400 
     81 CB          0.1099  -27.3099  -46.2088 C.3       14 UNK        -0.1800 
     82 C          -1.7720  -27.7948  -47.8052 C.2       14 UNK         0.5000 
     83 O          -1.7585  -28.9329  -48.2772 O.2       14 UNK        -0.5000 
     84 N          -2.0521  -26.6970  -48.5192 N.am      15 UNK        -0.5000 
     85 CA         -2.1462  -26.6807  -49.9818 C.3       15 UNK         0.1400 
     86 CB         -0.8329  -26.1063  -50.5460 C.3       15 UNK        -0.1800 
     87 C          -3.3629  -25.9001  -50.5040 C.2       15 UNK         0.5000 
     88 O          -3.4290  -25.6413  -51.7063 O.2       15 UNK        -0.5000 
     89 N          -4.2863  -25.5034  -49.6148 N.am      16 UNK        -0.5000 
     90 CA         -5.4724  -24.6845  -49.9038 C.3       16 UNK         0.1400 
     91 CB         -6.5002  -25.4916  -50.7248 C.3       16 UNK        -0.1800 
     92 C          -5.1171  -23.3243  -50.5461 C.2       16 UNK         0.5000 
     93 O          -5.8116  -22.8696  -51.4558 O.2       16 UNK        -0.5000 
     94 N          -4.0104  -22.7269  -50.0754 N.am      17 UNK        -0.5000 
     95 CA         -3.3855  -21.4975  -50.5741 C.3       17 UNK         0.1400 
     96 CB         -4.2932  -20.2733  -50.3398 C.3       17 UNK        -0.1800 
     97 C          -2.9003  -21.6550  -52.0302 C.2       17 UNK         0.5000 
     98 O          -3.1636  -20.8005  -52.8761 O.2       17 UNK        -0.5000 
     99 N          -2.2176  -22.7801  -52.2901 N.am      18 UNK        -0.5000 
    100 CA        -1.7256  -23.2382  -53.5940 C.3       18 UNK         0.1400 
    101 CB        -0.6367  -22.2891  -54.1377 C.3       18 UNK        -0.1800 
    102 C         -2.8711  -23.4944  -54.5972 C.2       18 UNK         0.5000 
    103 O         -2.7371  -23.1917  -55.7844 O.2       18 UNK        -0.5000 
    104 N         -3.9854  -24.0345  -54.0813 N.am      19 UNK        -0.5000 
    105 CA        -5.2579  -24.3913  -54.7223 C.3       19 UNK         0.1400 
    106 CB        -5.0540  -25.5172  -55.7522 C.3       19 UNK        -0.1800 
    107 C         -6.0494  -23.2191  -55.3393 C.2       19 UNK         0.5000 
    108 O         -7.2641  -23.1433  -55.1532 O.2       19 UNK        -0.5000 
    109 N         -5.3624  -22.3405  -56.0744 N.am      20 UNK        -0.5000 
    110 CA        -5.9278  -21.2155  -56.8180 C.3       20 UNK         0.1400 
    111 CB        -5.0251  -20.9464  -58.0338 C.3       20 UNK        -0.1800 
    112 C         -6.0858  -19.9352  -55.9759 C.2       20 UNK         0.5000 
    113 O         -6.5752  -18.9347  -56.5036 O.2       20 UNK        -0.5000 
    114 N         -5.6200  -19.9517  -54.7164 N.am      21 UNK        -0.5000 
    115 CA        -5.5689  -18.8167  -53.7818 C.3       21 UNK         0.1400 
    116 CB        -6.9904  -18.3711  -53.3803 C.3       21 UNK        -0.1800 
    117 C         -4.6942  -17.6504  -54.2936 C.2       21 UNK         0.5000 
    118 O         -4.9235  -16.4988  -53.9205 O.2       21 UNK        -0.5000 
    119 N         -3.7272  -17.9751  -55.1647 N.am      22 UNK        -0.5000 
    120 CA        -2.9067  -17.0423  -55.9556 C.3       22 UNK         0.1400 
    121 C         -3.7176  -16.1724  -56.9702 C.2       22 UNK         0.5000 
    122 N         -4.9471  -16.5302  -57.3264 N.am      22 UNK        -0.7600 
    123 O         -3.2160  -15.1725  -57.4774 O.2       22 UNK        -0.5000 
    124 C124       -1.9252  -16.2103  -55.0831 C.3       23 UNK        -0.0398 
    125 S125       -0.6329  -17.2395  -54.3058 S.3       23 UNK        -0.2404 
    126 C126       -1.3029  -17.4965  -52.6354 C.3       23 UNK        -0.0205 
    127 H127       -0.2947   -8.9855  -49.3442 H         1 UNK         0.0600 
    128 H128       -0.4473  -10.3361  -50.4722 H         1 UNK         0.0600 
    129 H129        1.0548   -9.4100  -50.4026 H         1 UNK         0.0600 
    130 H130       -0.2822  -12.3081  -49.4499 H         1 UNK         0.3000 
    131 H131        1.9104  -13.0396  -47.8421 H         1 UNK         0.0600 
    132 H132       -0.6429  -14.7052  -47.8774 H         1 UNK         0.0800 
    133 H133        0.2625  -14.4995  -49.3394 H         1 UNK         0.0800 
    134 H134        2.4439  -15.3519  -49.9398 H         1 UNK         0.0800 
    135 H135        3.3089  -16.6099  -49.1040 H         1 UNK         0.0800 
    136 H136        0.2586  -15.8948  -51.1047 H         1 UNK         0.1150 
    137 H137       -0.3862  -20.0113  -52.0861 H         1 UNK         0.1150 
    138 H138        2.6213  -18.9368  -49.2227 H         1 UNK         0.1150 
    139 H139        1.8234  -21.4718  -51.4985 H         1 UNK         0.0800 
    140 H140        2.4605  -21.2036  -49.8972 H         1 UNK         0.0800 
    141 H141       -0.5421  -20.6495  -48.0719 H         1 UNK         0.0800 
    142 H142        1.1033  -21.1626  -47.8120 H         1 UNK         0.0800 
    143 H143        0.1817  -23.5481  -47.4132 H         1 UNK         0.0600 
    144 H144        0.3754  -21.4220  -45.5444 H         1 UNK         0.3000 
    145 H145        0.0002  -23.5561  -42.6473 H         1 UNK         0.0600 
    146 H146        2.1385  -22.4232  -42.1671 H         1 UNK         0.0600 
    147 H147        2.3665  -23.5968  -43.4535 H         1 UNK         0.0600 
    148 H148        2.2729  -21.8836  -43.8395 H         1 UNK         0.0600 
    149 H149        0.2947  -20.7474  -42.7923 H         1 UNK         0.3000 
    150 H150       -3.2115  -19.9248  -42.9085 H         1 UNK         0.0600 
    151 H151       -2.5762  -20.3540  -40.5261 H         1 UNK         0.0600 
    152 H152       -2.4860  -18.6431  -40.9184 H         1 UNK         0.0600 
    153 H153       -1.0102  -19.5981  -40.8000 H         1 UNK         0.0600 
    154 H154       -0.9607  -18.2262  -42.8826 H         1 UNK         0.3000 
    155 H155       -0.4386  -17.9924  -46.4322 H         1 UNK         0.0600 
    156 H156       -2.1061  -16.3240  -45.8359 H         1 UNK         0.0600 
    157 H157       -0.5321  -15.5994  -45.5443 H         1 UNK         0.0600 
    158 H158       -1.4988  -16.1782  -44.1962 H         1 UNK         0.0600 
    159 H159        1.0378  -16.9609  -44.2266 H         1 UNK         0.3000 
    160 H160        3.3499  -19.6411  -43.8625 H         1 UNK         0.0600 
    161 H161        3.6452  -16.8653  -45.1315 H         1 UNK         0.0600 
    162 H162        4.2385  -18.3817  -45.7900 H         1 UNK         0.0600 
    163 H163        4.9289  -17.7465  -44.3031 H         1 UNK         0.0600 
    164 H164        2.9408  -16.9916  -42.7249 H         1 UNK         0.3000 
    165 H165        1.0190  -18.1229  -39.9311 H         1 UNK         0.0600 
    166 H166        2.8882  -17.1363  -38.6363 H         1 UNK         0.0600 
    167 H167        3.3611  -18.7029  -39.2745 H         1 UNK         0.0600 
    168 H168        3.9518  -17.2329  -40.0406 H         1 UNK         0.0600 
    169 H169        2.1753  -15.5902  -40.5810 H         1 UNK         0.3000 
    170 H170       -0.1619  -14.4834  -42.9389 H         1 UNK         0.0600 
    171 H171       -1.6192  -14.2605  -40.9065 H         1 UNK         0.0600 
    172 H172       -0.2465  -13.6391  -39.9973 H         1 UNK         0.0600 
    173 H173       -0.8904  -12.7331  -41.3666 H         1 UNK         0.0600 
    174 H174        1.5059  -12.7779  -41.6883 H         1 UNK         0.3000 
    175 H175        4.0195  -12.6594  -41.9713 H         1 UNK         0.0600 
    176 H176        4.5786  -13.7195  -44.8024 H         1 UNK         0.0600 
    177 H177        5.6060  -12.5991  -43.9092 H         1 UNK         0.0600 
    178 H178        5.3917  -14.2453  -43.3318 H         1 UNK         0.0600 
    179 H179        2.3163  -12.1158  -44.3226 H         1 UNK         0.3000 
    180 H180        1.9166   -8.7866  -43.3827 H         1 UNK         0.0600 
    181 H181        3.4465   -9.5476  -45.9286 H         1 UNK         0.0600 
    182 H182        3.9322   -8.3203  -44.7650 H         1 UNK         0.0600 
    183 H183        2.4710   -8.0944  -45.7147 H         1 UNK         0.0600 
    184 H184        1.0977  -10.2772  -45.7103 H         1 UNK         0.3000 
    185 H185       -1.3004  -12.3193  -44.2076 H         1 UNK         0.0600 
    186 H186       -2.6774  -10.2358  -44.0402 H         1 UNK         0.0600 
    187 H187       -2.0964   -9.7144  -45.6172 H         1 UNK         0.0600 
    188 H188       -3.0942  -11.1625  -45.4719 H         1 UNK         0.0600 
    189 H189       -1.0695  -11.5546  -46.9224 H         1 UNK         0.3000 
    190 H190       -2.3476  -21.4366  -45.9860 H         1 UNK         0.3000 
    191 H191       -4.5501  -22.3925  -47.4794 H         1 UNK         0.0600 
    192 H192       -4.6592  -20.3601  -46.0994 H         1 UNK         0.0600 
    193 H193       -5.9028  -21.4931  -45.5950 H         1 UNK         0.0600 
    194 H194       -4.4471  -21.3044  -44.6264 H         1 UNK         0.0600 
    195 H195       -3.0899  -23.6427  -44.4500 H         1 UNK         0.3000 
    196 H196       -4.9869  -25.7711  -44.0978 H         1 UNK         0.0600 
    197 H197       -3.3365  -26.5612  -42.3953 H         1 UNK         0.0600 
    198 H198       -3.6836  -24.8476  -42.2167 H         1 UNK         0.0600 
    199 H199       -2.1724  -25.3663  -42.9569 H         1 UNK         0.0600 
    200 H200       -1.6298  -25.6987  -45.4253 H         1 UNK         0.3000 
    201 H201       -1.5849  -28.5484  -45.8148 H         1 UNK         0.0600 
    202 H202        0.4151  -27.2295  -45.1653 H         1 UNK         0.0600 
    203 H203        0.3789  -26.3786  -46.7091 H         1 UNK         0.0600 
    204 H204        0.7015  -28.1073  -46.6603 H         1 UNK         0.0600 
    205 H205       -2.0514  -25.7869  -48.0673 H         1 UNK         0.3000 
    206 H206       -2.2658  -27.6940  -50.3697 H         1 UNK         0.0600 
    207 H207        0.0257  -26.6918  -50.2171 H         1 UNK         0.0600 
    208 H208       -0.8282  -26.1163  -51.6365 H         1 UNK         0.0600 
    209 H209       -0.6768  -25.0766  -50.2230 H         1 UNK         0.0600 
    210 H210       -4.1434  -25.7444  -48.6439 H         1 UNK         0.3000 
    211 H211       -5.9376  -24.4501  -48.9475 H         1 UNK         0.0600 
    212 H212       -6.1218  -25.7470  -51.7142 H         1 UNK         0.0600 
    213 H213       -7.4231  -24.9271  -50.8626 H         1 UNK         0.0600 
    214 H214       -6.7630  -26.4203  -50.2185 H         1 UNK         0.0600 
    215 H215       -3.4847  -23.2176  -49.3568 H         1 UNK         0.3000 
    216 H216       -2.4925  -21.3395  -49.9718 H         1 UNK         0.0600 
    217 H217       -3.8011  -19.3549  -50.6623 H         1 UNK         0.0600 
    218 H218       -4.5267  -20.1596  -49.2812 H         1 UNK         0.0600 
    219 H219       -5.2356  -20.3520  -50.8808 H         1 UNK         0.0600 
    220 H220       -2.0846  -23.4306  -51.5296 H         1 UNK         0.3000 
    221 H221       -1.2576  -24.2077  -53.4185 H         1 UNK         0.0600 
    222 H222       -1.0394  -21.3086  -54.3935 H         1 UNK         0.0600 
    223 H223        0.1587  -22.1448  -53.4068 H         1 UNK         0.0600 
    224 H224       -0.1777  -22.6975  -55.0386 H         1 UNK         0.0600 
    225 H225       -3.9417  -24.2775  -53.0965 H         1 UNK         0.3000 
    226 H226       -5.8804  -24.7914  -53.9212 H         1 UNK         0.0600 
    227 H227       -4.5839  -26.3876  -55.2943 H         1 UNK         0.0600 
    228 H228       -6.0086  -25.8438  -56.1666 H         1 UNK         0.0600 
    229 H229       -4.4287  -25.1980  -56.5865 H         1 UNK         0.0600 
    230 H230       -4.3591  -22.4945  -56.1590 H         1 UNK         0.3000 
    231 H231       -6.9199  -21.4887  -57.1832 H         1 UNK         0.0600 
    232 H232       -4.0177  -20.6585  -57.7302 H         1 UNK         0.0600 
    233 H233       -5.4246  -20.1423  -58.6533 H         1 UNK         0.0600 
    234 H234       -4.9439  -21.8303  -58.6668 H         1 UNK         0.0600 
    235 H235       -5.1940  -20.8055  -54.3806 H         1 UNK         0.3000 
    236 H236       -5.0832  -19.1744  -52.8779 H         1 UNK         0.0600 
    237 H237       -7.5803  -19.2153  -53.0232 H         1 UNK         0.0600 
    238 H238       -6.9567  -17.6374  -52.5742 H         1 UNK         0.0600 
    239 H239       -7.5251  -17.9151  -54.2138 H         1 UNK         0.0600 
    240 H240       -3.6039  -18.9539  -55.3776 H         1 UNK         0.3000 
    241 H241       -2.2972  -17.6777  -56.5989 H         1 UNK         0.0600 
    242 H242       -5.4483  -15.9630  -57.9914 H         1 UNK         0.3800 
    243 H243       -5.3969  -17.3516  -56.9368 H         1 UNK         0.3800 
    244 H244       -1.3950  -15.4793  -55.6950 H         1 UNK         0.0800 
    245 H245       -2.4584  -15.6296  -54.3302 H         1 UNK         0.0800 
    246 H246       -1.7804  -16.5830  -52.2779 H         1 UNK         0.0800 
    247 H247       -2.0809  -18.2602  -52.6701 H         1 UNK         0.0800 
@<TRIPOS>BOND
     1    1    2 1    
     2    1  127 1    
     3    1  128 1    
     4    1  129 1    
     5    2    3 2    
     6    2    4 am   BACKBONE|DICT|INTERRES
     7    4    5 1    
     8    4  130 1    
     9    5    6 1    
    10    5   65 1    
    11    5  131 1    
    12    6    7 1    
    13    6  132 1    
    14    6  133 1    
    15    7    8 1    
    16    8    9 1    
    17    8  134 1    
    18    8  135 1    
    19    9   10 ar   
    20    9   14 ar   
    21   10   11 ar   
    22   10  136 1    
    23   11   12 ar   
    24   11  126 1    
    25   12   13 ar   
    26   12  137 1    
    27   13   14 ar   
    28   13   15 1    
    29   14  138 1    
    30   15   16 1    
    31   15  139 1    
    32   15  140 1    
    33   16   17 1    
    34   17   18 1    
    35   17  141 1    
    36   17  142 1    
    37   18   19 1    
    38   18   67 1    
    39   18  143 1    
    40   19   20 am   BACKBONE|DICT|INTERRES
    41   19  144 1    
    42   20   21 2    
    43   20   22 1    
    44   22   23 1    
    45   22   24 1    
    46   22  145 1    
    47   23  146 1    
    48   23  147 1    
    49   23  148 1    
    50   24   25 am   BACKBONE|DICT|INTERRES
    51   24  149 1    
    52   25   26 2    
    53   25   27 1    
    54   27   28 1    
    55   27   29 1    
    56   27  150 1    
    57   28  151 1    
    58   28  152 1    
    59   28  153 1    
    60   29   30 am   BACKBONE|DICT|INTERRES
    61   29  154 1    
    62   30   31 2    
    63   30   32 1    
    64   32   33 1    
    65   32   34 1    
    66   32  155 1    
    67   33  156 1    
    68   33  157 1    
    69   33  158 1    
    70   34   35 am   BACKBONE|DICT|INTERRES
    71   34  159 1    
    72   35   36 2    
    73   35   37 1    
    74   37   38 1    
    75   37   39 1    
    76   37  160 1    
    77   38  161 1    
    78   38  162 1    
    79   38  163 1    
    80   39   40 am   BACKBONE|DICT|INTERRES
    81   39  164 1    
    82   40   41 2    
    83   40   42 1    
    84   42   43 1    
    85   42   44 1    
    86   42  165 1    
    87   43  166 1    
    88   43  167 1    
    89   43  168 1    
    90   44   45 am   BACKBONE|DICT|INTERRES
    91   44  169 1    
    92   45   46 2    
    93   45   47 1    
    94   47   48 1    
    95   47   49 1    
    96   47  170 1    
    97   48  171 1    
    98   48  172 1    
    99   48  173 1    
   100   49   50 am   BACKBONE|DICT|INTERRES
   101   49  174 1    
   102   50   51 2    
   103   50   52 1    
   104   52   53 1    
   105   52   54 1    
   106   52  175 1    
   107   53  176 1    
   108   53  177 1    
   109   53  178 1    
   110   54   55 am   BACKBONE|DICT|INTERRES
   111   54  179 1    
   112   55   56 2    
   113   55   57 1    
   114   57   58 1    
   115   57   59 1    
   116   57  180 1    
   117   58  181 1    
   118   58  182 1    
   119   58  183 1    
   120   59   60 am   BACKBONE|DICT|INTERRES
   121   59  184 1    
   122   60   61 2    
   123   60   62 1    
   124   62   63 1    
   125   62   64 1    
   126   62  185 1    
   127   63  186 1    
   128   63  187 1    
   129   63  188 1    
   130   64   65 am   BACKBONE|DICT|INTERRES
   131   64  189 1    
   132   65   66 2    
   133   67   68 2    
   134   67   69 am   BACKBONE|DICT|INTERRES
   135   69   70 1    
   136   69  190 1    
   137   70   71 1    
   138   70   72 1    
   139   70  191 1    
   140   71  192 1    
   141   71  193 1    
   142   71  194 1    
   143   72   73 2    
   144   72   74 am   BACKBONE|DICT|INTERRES
   145   74   75 1    
   146   74  195 1    
   147   75   76 1    
   148   75   77 1    
   149   75  196 1    
   150   76  197 1    
   151   76  198 1    
   152   76  199 1    
   153   77   78 2    
   154   77   79 am   BACKBONE|DICT|INTERRES
   155   79   80 1    
   156   79  200 1    
   157   80   81 1    
   158   80   82 1    
   159   80  201 1    
   160   81  202 1    
   161   81  203 1    
   162   81  204 1    
   163   82   83 2    
   164   82   84 am   BACKBONE|DICT|INTERRES
   165   84   85 1    
   166   84  205 1    
   167   85   86 1    
   168   85   87 1    
   169   85  206 1    
   170   86  207 1    
   171   86  208 1    
   172   86  209 1    
   173   87   88 2    
   174   87   89 am   BACKBONE|DICT|INTERRES
   175   89   90 1    
   176   89  210 1    
   177   90   91 1    
   178   90   92 1    
   179   90  211 1    
   180   91  212 1    
   181   91  213 1    
   182   91  214 1    
   183   92   93 2    
   184   92   94 am   BACKBONE|DICT|INTERRES
   185   94   95 1    
   186   94  215 1    
   187   95   96 1    
   188   95   97 1    
   189   95  216 1    
   190   96  217 1    
   191   96  218 1    
   192   96  219 1    
   193   97   98 2    
   194   97   99 am   BACKBONE|DICT|INTERRES
   195   99  100 1    
   196   99  220 1    
   197  100  101 1    
   198  100  102 1    
   199  100  221 1    
   200  101  222 1    
   201  101  223 1    
   202  101  224 1    
   203  102  103 2    
   204  102  104 am   BACKBONE|DICT|INTERRES
   205  104  105 1    
   206  104  225 1    
   207  105  106 1    
   208  105  107 1    
   209  105  226 1    
   210  106  227 1    
   211  106  228 1    
   212  106  229 1    
   213  107  108 2    
   214  107  109 am   BACKBONE|DICT|INTERRES
   215  109  110 1    
   216  109  230 1    
   217  110  111 1    
   218  110  112 1    
   219  110  231 1    
   220  111  232 1    
   221  111  233 1    
   222  111  234 1    
   223  112  113 2    
   224  112  114 am   BACKBONE|DICT|INTERRES
   225  114  115 1    
   226  114  235 1    
   227  115  116 1    
   228  115  117 1    
   229  115  236 1    
   230  116  237 1    
   231  116  238 1    
   232  116  239 1    
   233  117  118 2    
   234  117  119 am   BACKBONE|DICT|INTERRES
   235  119  120 1    
   236  119  240 1    
   237  120  121 1    
   238  120  124 1    
   239  120  241 1    
   240  121  122 am   BACKBONE|DICT|INTERRES
   241  121  123 2    
   242  122  242 1    
   243  122  243 1    
   244  124  125 1    
   245  124  244 1    
   246  124  245 1    
   247  125  126 1    
   248  126  246 1    
   249  126  247 1    
@<TRIPOS>SUBSTRUCTURE
     1 UNK         1 GROUP             0       ****    0 ROOT    
