@<TRIPOS>MOLECULE
3R540
247   249    1
SMALL
USER_CHARGES


@<TRIPOS>ATOM
      1 CA         -6.1613  -17.5930  -45.9030 C.3       0 UNK        -0.1800 
      2 C          -5.6366  -16.1926  -46.1905 C.2       0 UNK         0.5000 
      3 O          -6.0661  -15.2314  -45.5529 O.2       0 UNK        -0.5000 
      4 N          -4.7212  -16.0780  -47.1574 N.am      1 UNK        -0.5000 
      5 CA         -4.0386  -14.8402  -47.5384 C.3       1 UNK         0.1400 
      6 C6         -3.5622  -14.8806  -49.0151 C.3       23 UNK        -0.0398 
      7 S7         -2.5727  -16.3545  -49.4526 S.3       23 UNK        -0.2404 
      8 C8         -0.9081  -15.6467  -49.6002 C.3       23 UNK        -0.0205 
      9 C9          0.1139  -16.7341  -49.8843 C.ar      23 UNK        -0.0193 
     10 C10         0.3185  -17.1874  -51.1897 C.ar      23 UNK        -0.1150 
     11 C11         1.2606  -18.1856  -51.4526 C.ar      23 UNK        -0.0193 
     12 C12         2.0058  -18.7227  -50.3986 C.ar      23 UNK        -0.1150 
     13 C13         1.8151  -18.2774  -49.0825 C.ar      23 UNK        -0.0193 
     14 C14         0.8616  -17.2841  -48.8407 C.ar      23 UNK        -0.1150 
     15 C15         2.6234  -18.8013  -47.8921 C.3       23 UNK        -0.0205 
     16 S16         3.7423  -20.2040  -48.2308 S.3       23 UNK        -0.2404 
     17 C17         2.5636  -21.5968  -48.2881 C.3       23 UNK        -0.0398 
     18 CA          2.7830  -22.5863  -47.1158 C.3       11 UNK         0.1400 
     19 N           2.5822  -21.9398  -45.8141 N.am      11 UNK        -0.5000 
     20 C           3.3406  -22.1251  -44.7260 C.2       10 UNK         0.5000 
     21 O           4.3575  -22.8190  -44.7090 O.2       10 UNK        -0.5000 
     22 CA          2.8605  -21.4538  -43.4241 C.3       10 UNK         0.1400 
     23 CB          3.6252  -20.1448  -43.1750 C.3       10 UNK        -0.1800 
     24 N           1.4179  -21.1897  -43.4256 N.am      10 UNK        -0.5000 
     25 C           0.4797  -22.1405  -43.2951 C.2       9 UNK         0.5000 
     26 O           0.7453  -23.3314  -43.1325 O.2       9 UNK        -0.5000 
     27 CA         -0.9987  -21.7179  -43.4125 C.3       9 UNK         0.1400 
     28 CB         -1.5888  -21.4431  -42.0217 C.3       9 UNK        -0.1800 
     29 N          -1.2271  -20.5509  -44.2637 N.am      9 UNK        -0.5000 
     30 C          -0.9255  -20.4686  -45.5665 C.2       8 UNK         0.5000 
     31 O          -0.3834  -21.3721  -46.2052 O.2       8 UNK        -0.5000 
     32 CA         -1.2142  -19.1172  -46.2481 C.3       8 UNK         0.1400 
     33 CB         -2.7012  -19.0255  -46.6216 C.3       8 UNK        -0.1800 
     34 N          -0.8593  -17.9338  -45.4514 N.am      8 UNK        -0.5000 
     35 C           0.2728  -17.7369  -44.7608 C.2       7 UNK         0.5000 
     36 O           1.1793  -18.5653  -44.6647 O.2       7 UNK        -0.5000 
     37 CA          0.3705  -16.4177  -43.9774 C.3       7 UNK         0.1400 
     38 CB         -0.2200  -16.6192  -42.5740 C.3       7 UNK        -0.1800 
     39 N           1.7424  -15.9161  -43.8615 N.am      7 UNK        -0.5000 
     40 C           2.5362  -15.5913  -44.8954 C.2       6 UNK         0.5000 
     41 O           2.1917  -15.6849  -46.0728 O.2       6 UNK        -0.5000 
     42 CA          3.9421  -15.0396  -44.5891 C.3       6 UNK         0.1400 
     43 CB          4.0680  -13.5822  -45.0643 C.3       6 UNK        -0.1800 
     44 N           4.2831  -15.0987  -43.1690 N.am      6 UNK        -0.5000 
     45 C           4.8815  -16.1372  -42.5701 C.2       5 UNK         0.5000 
     46 O           5.2475  -17.1489  -43.1678 O.2       5 UNK        -0.5000 
     47 CA          5.1214  -16.0346  -41.0489 C.3       5 UNK         0.1400 
     48 CB          6.6056  -15.7648  -40.7555 C.3       5 UNK        -0.1800 
     49 N           4.3164  -15.0038  -40.3868 N.am      5 UNK        -0.5000 
     50 C           2.9861  -15.0483  -40.2410 C.2       4 UNK         0.5000 
     51 O           2.2976  -15.9875  -40.6426 O.2       4 UNK        -0.5000 
     52 CA          2.3005  -13.8462  -39.5546 C.3       4 UNK         0.1400 
     53 CB          3.2235  -12.6232  -39.3485 C.3       4 UNK        -0.1800 
     54 N           1.0725  -13.4455  -40.2500 N.am      4 UNK        -0.5000 
     55 C           0.9618  -13.0557  -41.5275 C.2       3 UNK         0.5000 
     56 O           1.9104  -12.9656  -42.3125 O.2       3 UNK        -0.5000 
     57 CA         -0.4550  -12.6962  -41.9967 C.3       3 UNK         0.1400 
     58 CB         -0.8881  -11.3273  -41.4388 C.3       3 UNK        -0.1800 
     59 N          -0.4904  -12.6678  -43.4557 N.am      3 UNK        -0.5000 
     60 C          -1.5859  -12.8162  -44.2081 C.2       2 UNK         0.5000 
     61 O          -2.7066  -13.0153  -43.7330 O.2       2 UNK        -0.5000 
     62 CA         -1.4190  -12.6447  -45.7361 C.3       2 UNK         0.1400 
     63 CB         -0.0548  -13.1110  -46.2889 C.3       2 UNK        -0.1800 
     64 N          -2.5135  -13.2340  -46.5157 N.am      2 UNK        -0.5000 
     65 C          -2.8749  -14.5248  -46.5746 C.2       1 UNK         0.5000 
     66 O          -2.3172  -15.4387  -45.9581 O.2       1 UNK        -0.5000 
     67 C           1.8777  -23.8316  -47.2614 C.2       11 UNK         0.5000 
     68 O           1.8673  -24.4454  -48.3289 O.2       11 UNK        -0.5000 
     69 N           1.1299  -24.1760  -46.1994 N.am      12 UNK        -0.5000 
     70 CA          0.1404  -25.2535  -46.1012 C.3       12 UNK         0.1400 
     71 CB          0.8124  -26.6347  -46.2472 C.3       12 UNK        -0.1800 
     72 C          -1.0724  -25.0721  -47.0406 C.2       12 UNK         0.5000 
     73 O          -1.7329  -26.0553  -47.3813 O.2       12 UNK        -0.5000 
     74 N          -1.3621  -23.8240  -47.4318 N.am      13 UNK        -0.5000 
     75 CA         -2.5285  -23.4590  -48.2261 C.3       13 UNK         0.1400 
     76 CB         -2.2194  -22.1853  -49.0301 C.3       13 UNK        -0.1800 
     77 C          -3.7429  -23.2813  -47.2991 C.2       13 UNK         0.5000 
     78 O          -3.6696  -22.5232  -46.3306 O.2       13 UNK        -0.5000 
     79 N          -4.8313  -23.9984  -47.6027 N.am      14 UNK        -0.5000 
     80 CA         -6.0608  -24.0324  -46.8022 C.3       14 UNK         0.1400 
     81 CB         -6.7832  -25.3602  -47.0826 C.3       14 UNK        -0.1800 
     82 C          -7.0064  -22.8411  -47.0606 C.2       14 UNK         0.5000 
     83 O          -7.9934  -22.6832  -46.3407 O.2       14 UNK        -0.5000 
     84 N          -6.7057  -22.0398  -48.0853 N.am      15 UNK        -0.5000 
     85 CA         -7.4471  -20.8610  -48.5137 C.3       15 UNK         0.1400 
     86 CB         -8.5400  -21.2831  -49.5133 C.3       15 UNK        -0.1800 
     87 C          -6.4544  -19.8798  -49.1509 C.2       15 UNK         0.5000 
     88 O          -5.2808  -20.2249  -49.3217 O.2       15 UNK        -0.5000 
     89 N          -6.9402  -18.6860  -49.5168 N.am      16 UNK        -0.5000 
     90 CA         -6.1851  -17.6453  -50.2187 C.3       16 UNK         0.1400 
     91 CB         -7.0984  -16.4386  -50.4801 C.3       16 UNK        -0.1800 
     92 C          -5.5601  -18.1741  -51.5236 C.2       16 UNK         0.5000 
     93 O          -6.2919  -18.5492  -52.4414 O.2       16 UNK        -0.5000 
     94 N          -4.2240  -18.2803  -51.5233 N.am      17 UNK        -0.5000 
     95 CA         -3.3579  -18.8687  -52.5513 C.3       17 UNK         0.1400 
     96 CB         -3.3781  -18.0014  -53.8260 C.3       17 UNK        -0.1800 
     97 C          -3.6479  -20.3560  -52.8605 C.2       17 UNK         0.5000 
     98 O          -3.2266  -20.8500  -53.9088 O.2       17 UNK        -0.5000 
     99 N          -4.3874  -21.0390  -51.9689 N.am      18 UNK        -0.5000 
    100 CA        -5.0368  -22.3403  -52.1766 C.3       18 UNK         0.1400 
    101 CB        -3.9988  -23.4790  -52.1543 C.3       18 UNK        -0.1800 
    102 C         -5.9162  -22.3400  -53.4483 C.2       18 UNK         0.5000 
    103 O         -5.8555  -23.2733  -54.2494 O.2       18 UNK        -0.5000 
    104 N         -6.6452  -21.2307  -53.6463 N.am      19 UNK        -0.5000 
    105 CA        -7.3063  -20.7768  -54.8728 C.3       19 UNK         0.1400 
    106 CB        -8.3107  -21.8037  -55.4331 C.3       19 UNK        -0.1800 
    107 C         -6.2828  -20.3119  -55.9262 C.2       19 UNK         0.5000 
    108 O         -6.3009  -19.1404  -56.3048 O.2       19 UNK        -0.5000 
    109 N         -5.3927  -21.2196  -56.3435 N.am      20 UNK        -0.5000 
    110 CA        -4.2661  -20.9827  -57.2444 C.3       20 UNK         0.1400 
    111 CB        -4.7547  -20.5936  -58.6590 C.3       20 UNK        -0.1800 
    112 C         -3.3710  -22.2349  -57.2569 C.2       20 UNK         0.5000 
    113 O         -3.1528  -22.8229  -58.3186 O.2       20 UNK        -0.5000 
    114 N         -2.9059  -22.6583  -56.0743 N.am      21 UNK        -0.5000 
    115 CA        -2.1494  -23.9029  -55.8959 C.3       21 UNK         0.1400 
    116 CB        -3.1252  -25.0681  -55.6414 C.3       21 UNK        -0.1800 
    117 C         -1.0487  -23.8196  -54.8206 C.2       21 UNK         0.5000 
    118 O         -0.4461  -24.8479  -54.5085 O.2       21 UNK        -0.5000 
    119 N         -0.7820  -22.6254  -54.2735 N.am      22 UNK        -0.5000 
    120 CA         0.2709  -22.3912  -53.2661 C.3       22 UNK         0.1400 
    121 C          1.7391  -22.5012  -53.7805 C.2       22 UNK         0.5000 
    122 N          1.9887  -22.5516  -55.0835 N.am      22 UNK        -0.7600 
    123 O          2.6681  -22.5493  -52.9792 O.2       22 UNK        -0.5000 
    124 C124        0.0380  -21.0745  -52.4848 C.3       23 UNK        -0.0398 
    125 S125        0.0629  -19.5808  -53.5408 S.3       23 UNK        -0.2404 
    126 C126        1.4916  -18.6684  -52.8785 C.3       23 UNK        -0.0205 
    127 H127       -7.2403  -17.6280  -46.0526 H         1 UNK         0.0600 
    128 H128       -5.9487  -17.8686  -44.8701 H         1 UNK         0.0600 
    129 H129       -5.7051  -18.3393  -46.5537 H         1 UNK         0.0600 
    130 H130       -4.3610  -16.9089  -47.6007 H         1 UNK         0.3000 
    131 H131       -4.7576  -14.0223  -47.4537 H         1 UNK         0.0600 
    132 H132       -3.0119  -13.9744  -49.2741 H         1 UNK         0.0800 
    133 H133       -4.4362  -14.8750  -49.6671 H         1 UNK         0.0800 
    134 H134       -0.8942  -14.9048  -50.3999 H         1 UNK         0.0800 
    135 H135       -0.6520  -15.1203  -48.6793 H         1 UNK         0.0800 
    136 H136       -0.2591  -16.7678  -52.0016 H         1 UNK         0.1150 
    137 H137        2.7401  -19.4823  -50.6205 H         1 UNK         0.1150 
    138 H138        0.7055  -16.9284  -47.8318 H         1 UNK         0.1150 
    139 H139        3.2223  -17.9785  -47.4993 H         1 UNK         0.0800 
    140 H140        1.9415  -19.0890  -47.0927 H         1 UNK         0.0800 
    141 H141        1.5384  -21.2218  -48.2920 H         1 UNK         0.0800 
    142 H142        2.7055  -22.0974  -49.2476 H         1 UNK         0.0800 
    143 H143        3.8096  -22.9517  -47.1849 H         1 UNK         0.0600 
    144 H144        1.7473  -21.3725  -45.7322 H         1 UNK         0.3000 
    145 H145        3.0814  -22.1339  -42.5986 H         1 UNK         0.0600 
    146 H146        3.2660  -19.6353  -42.2806 H         1 UNK         0.0600 
    147 H147        3.5325  -19.4543  -44.0138 H         1 UNK         0.0600 
    148 H148        4.6893  -20.3375  -43.0346 H         1 UNK         0.0600 
    149 H149        1.1396  -20.2369  -43.6436 H         1 UNK         0.3000 
    150 H150       -1.5420  -22.5550  -43.8565 H         1 UNK         0.0600 
    151 H151       -1.1079  -20.5891  -41.5429 H         1 UNK         0.0600 
    152 H152       -2.6581  -21.2388  -42.0799 H         1 UNK         0.0600 
    153 H153       -1.4596  -22.3043  -41.3646 H         1 UNK         0.0600 
    154 H154       -1.6441  -19.7453  -43.8223 H         1 UNK         0.3000 
    155 H155       -0.6269  -19.0851  -47.1666 H         1 UNK         0.0600 
    156 H156       -3.0348  -19.8947  -47.1875 H         1 UNK         0.0600 
    157 H157       -2.8897  -18.1513  -47.2383 H         1 UNK         0.0600 
    158 H158       -3.3329  -18.9546  -45.7356 H         1 UNK         0.0600 
    159 H159       -1.5160  -17.1585  -45.5022 H         1 UNK         0.3000 
    160 H160       -0.2142  -15.6559  -44.4895 H         1 UNK         0.0600 
    161 H161        0.3229  -17.3845  -42.0176 H         1 UNK         0.0600 
    162 H162       -1.2637  -16.9310  -42.6293 H         1 UNK         0.0600 
    163 H163       -0.1904  -15.7012  -41.9913 H         1 UNK         0.0600 
    164 H164        2.1144  -15.8398  -42.9240 H         1 UNK         0.3000 
    165 H165        4.6539  -15.6389  -45.1607 H         1 UNK         0.0600 
    166 H166        5.0724  -13.1960  -44.8901 H         1 UNK         0.0600 
    167 H167        3.8712  -13.5004  -46.1340 H         1 UNK         0.0600 
    168 H168        3.3630  -12.9271  -44.5523 H         1 UNK         0.0600 
    169 H169        3.9822  -14.3154  -42.6046 H         1 UNK         0.3000 
    170 H170        4.8576  -17.0014  -40.6146 H         1 UNK         0.0600 
    171 H171        7.2389  -16.5321  -41.2028 H         1 UNK         0.0600 
    172 H172        6.9255  -14.8015  -41.1548 H         1 UNK         0.0600 
    173 H173        6.8035  -15.7679  -39.6834 H         1 UNK         0.0600 
    174 H174        4.8137  -14.1956  -40.0417 H         1 UNK         0.3000 
    175 H175        1.9941  -14.1986  -38.5688 H         1 UNK         0.0600 
    176 H176        3.6234  -12.2467  -40.2908 H         1 UNK         0.0600 
    177 H177        2.6828  -11.8052  -38.8721 H         1 UNK         0.0600 
    178 H178        4.0654  -12.8646  -38.6987 H         1 UNK         0.0600 
    179 H179        0.2291  -13.5135  -39.6980 H         1 UNK         0.3000 
    180 H180       -1.1374  -13.4685  -41.6356 H         1 UNK         0.0600 
    181 H181       -0.2326  -10.5283  -41.7875 H         1 UNK         0.0600 
    182 H182       -0.8652  -11.3188  -40.3485 H         1 UNK         0.0600 
    183 H183       -1.9061  -11.0793  -41.7396 H         1 UNK         0.0600 
    184 H184        0.4173  -12.5464  -43.8869 H         1 UNK         0.3000 
    185 H185       -1.4810  -11.5692  -45.9074 H         1 UNK         0.0600 
    186 H186        0.7842  -12.6342  -45.7821 H         1 UNK         0.0600 
    187 H187        0.0686  -14.1877  -46.1996 H         1 UNK         0.0600 
    188 H188        0.0373  -12.8637  -47.3464 H         1 UNK         0.0600 
    189 H189       -3.0645  -12.5645  -47.0340 H         1 UNK         0.3000 
    190 H190        1.2206  -23.6080  -45.3678 H         1 UNK         0.3000 
    191 H191       -0.2614  -25.1939  -45.0888 H         1 UNK         0.0600 
    192 H192        0.1134  -27.4374  -46.0096 H         1 UNK         0.0600 
    193 H193        1.6597  -26.7344  -45.5688 H         1 UNK         0.0600 
    194 H194        1.1719  -26.8063  -47.2620 H         1 UNK         0.0600 
    195 H195       -0.8329  -23.0497  -47.0405 H         1 UNK         0.3000 
    196 H196       -2.7422  -24.2562  -48.9413 H         1 UNK         0.0600 
    197 H197       -1.8358  -21.3854  -48.4012 H         1 UNK         0.0600 
    198 H198       -1.4719  -22.3831  -49.7982 H         1 UNK         0.0600 
    199 H199       -3.1101  -21.8072  -49.5303 H         1 UNK         0.0600 
    200 H200       -4.8082  -24.6106  -48.4056 H         1 UNK         0.3000 
    201 H201       -5.7931  -24.0093  -45.7436 H         1 UNK         0.0600 
    202 H202       -7.6837  -25.4538  -46.4740 H         1 UNK         0.0600 
    203 H203       -6.1463  -26.2133  -46.8478 H         1 UNK         0.0600 
    204 H204       -7.0840  -25.4418  -48.1279 H         1 UNK         0.0600 
    205 H205       -5.8249  -22.1709  -48.5642 H         1 UNK         0.3000 
    206 H206       -7.8993  -20.3719  -47.6484 H         1 UNK         0.0600 
    207 H207       -9.2246  -22.0044  -49.0667 H         1 UNK         0.0600 
    208 H208       -9.1384  -20.4296  -49.8332 H         1 UNK         0.0600 
    209 H209       -8.1128  -21.7391  -50.4074 H         1 UNK         0.0600 
    210 H210       -7.9200  -18.4946  -49.3676 H         1 UNK         0.3000 
    211 H211       -5.3855  -17.3224  -49.5535 H         1 UNK         0.0600 
    212 H212       -7.9617  -16.7110  -51.0886 H         1 UNK         0.0600 
    213 H213       -6.5610  -15.6499  -51.0081 H         1 UNK         0.0600 
    214 H214       -7.4648  -16.0122  -49.5460 H         1 UNK         0.0600 
    215 H215       -3.7291  -17.9592  -50.7007 H         1 UNK         0.3000 
    216 H216       -2.3508  -18.8346  -52.1366 H         1 UNK         0.0600 
    217 H217       -3.1452  -16.9614  -53.5978 H         1 UNK         0.0600 
    218 H218       -4.3509  -18.0297  -54.3181 H         1 UNK         0.0600 
    219 H219       -2.6383  -18.3457  -54.5494 H         1 UNK         0.0600 
    220 H220       -4.6437  -20.5617  -51.1090 H         1 UNK         0.3000 
    221 H221       -5.7144  -22.4919  -51.3354 H         1 UNK         0.0600 
    222 H222       -4.4778  -24.4516  -52.2716 H         1 UNK         0.0600 
    223 H223       -3.2693  -23.3723  -52.9541 H         1 UNK         0.0600 
    224 H224       -3.4539  -23.5021  -51.2135 H         1 UNK         0.0600 
    225 H225       -6.5457  -20.4890  -52.9600 H         1 UNK         0.3000 
    226 H226       -7.8794  -19.8954  -54.5803 H         1 UNK         0.0600 
    227 H227       -9.0228  -22.1145  -54.6688 H         1 UNK         0.0600 
    228 H228       -8.8828  -21.3705  -56.2542 H         1 UNK         0.0600 
    229 H229       -7.8225  -22.6978  -55.8206 H         1 UNK         0.0600 
    230 H230       -5.4368  -22.1453  -55.9273 H         1 UNK         0.3000 
    231 H231       -3.6684  -20.1628  -56.8412 H         1 UNK         0.0600 
    232 H232       -3.9146  -20.4732  -59.3441 H         1 UNK         0.0600 
    233 H233       -5.2942  -19.6474  -58.6580 H         1 UNK         0.0600 
    234 H234       -5.4149  -21.3544  -59.0768 H         1 UNK         0.0600 
    235 H235       -3.1118  -22.1136  -55.2377 H         1 UNK         0.3000 
    236 H236       -1.6080  -24.1238  -56.8179 H         1 UNK         0.0600 
    237 H237       -3.8365  -25.1728  -56.4607 H         1 UNK         0.0600 
    238 H238       -2.5966  -26.0179  -55.5534 H         1 UNK         0.0600 
    239 H239       -3.6953  -24.9236  -54.7247 H         1 UNK         0.0600 
    240 H240       -1.3186  -21.8134  -54.5495 H         1 UNK         0.3000 
    241 H241        0.1738  -23.1950  -52.5334 H         1 UNK         0.0600 
    242 H242        2.9411  -22.6272  -55.4042 H         1 UNK         0.3800 
    243 H243        1.2364  -22.5020  -55.7508 H         1 UNK         0.3800 
    244 H244        0.7691  -20.9801  -51.6809 H         1 UNK         0.0800 
    245 H245       -0.9291  -21.1166  -51.9845 H         1 UNK         0.0800 
    246 H246        1.6846  -17.8061  -53.5179 H         1 UNK         0.0800 
    247 H247        2.3794  -19.2999  -52.9408 H         1 UNK         0.0800 
@<TRIPOS>BOND
     1    1    2 1    
     2    1  127 1    
     3    1  128 1    
     4    1  129 1    
     5    2    3 2    
     6    2    4 am   BACKBONE|DICT|INTERRES
     7    4    5 1    
     8    4  130 1    
     9    5    6 1    
    10    5   65 1    
    11    5  131 1    
    12    6    7 1    
    13    6  132 1    
    14    6  133 1    
    15    7    8 1    
    16    8    9 1    
    17    8  134 1    
    18    8  135 1    
    19    9   10 ar   
    20    9   14 ar   
    21   10   11 ar   
    22   10  136 1    
    23   11   12 ar   
    24   11  126 1    
    25   12   13 ar   
    26   12  137 1    
    27   13   14 ar   
    28   13   15 1    
    29   14  138 1    
    30   15   16 1    
    31   15  139 1    
    32   15  140 1    
    33   16   17 1    
    34   17   18 1    
    35   17  141 1    
    36   17  142 1    
    37   18   19 1    
    38   18   67 1    
    39   18  143 1    
    40   19   20 am   BACKBONE|DICT|INTERRES
    41   19  144 1    
    42   20   21 2    
    43   20   22 1    
    44   22   23 1    
    45   22   24 1    
    46   22  145 1    
    47   23  146 1    
    48   23  147 1    
    49   23  148 1    
    50   24   25 am   BACKBONE|DICT|INTERRES
    51   24  149 1    
    52   25   26 2    
    53   25   27 1    
    54   27   28 1    
    55   27   29 1    
    56   27  150 1    
    57   28  151 1    
    58   28  152 1    
    59   28  153 1    
    60   29   30 am   BACKBONE|DICT|INTERRES
    61   29  154 1    
    62   30   31 2    
    63   30   32 1    
    64   32   33 1    
    65   32   34 1    
    66   32  155 1    
    67   33  156 1    
    68   33  157 1    
    69   33  158 1    
    70   34   35 am   BACKBONE|DICT|INTERRES
    71   34  159 1    
    72   35   36 2    
    73   35   37 1    
    74   37   38 1    
    75   37   39 1    
    76   37  160 1    
    77   38  161 1    
    78   38  162 1    
    79   38  163 1    
    80   39   40 am   BACKBONE|DICT|INTERRES
    81   39  164 1    
    82   40   41 2    
    83   40   42 1    
    84   42   43 1    
    85   42   44 1    
    86   42  165 1    
    87   43  166 1    
    88   43  167 1    
    89   43  168 1    
    90   44   45 am   BACKBONE|DICT|INTERRES
    91   44  169 1    
    92   45   46 2    
    93   45   47 1    
    94   47   48 1    
    95   47   49 1    
    96   47  170 1    
    97   48  171 1    
    98   48  172 1    
    99   48  173 1    
   100   49   50 am   BACKBONE|DICT|INTERRES
   101   49  174 1    
   102   50   51 2    
   103   50   52 1    
   104   52   53 1    
   105   52   54 1    
   106   52  175 1    
   107   53  176 1    
   108   53  177 1    
   109   53  178 1    
   110   54   55 am   BACKBONE|DICT|INTERRES
   111   54  179 1    
   112   55   56 2    
   113   55   57 1    
   114   57   58 1    
   115   57   59 1    
   116   57  180 1    
   117   58  181 1    
   118   58  182 1    
   119   58  183 1    
   120   59   60 am   BACKBONE|DICT|INTERRES
   121   59  184 1    
   122   60   61 2    
   123   60   62 1    
   124   62   63 1    
   125   62   64 1    
   126   62  185 1    
   127   63  186 1    
   128   63  187 1    
   129   63  188 1    
   130   64   65 am   BACKBONE|DICT|INTERRES
   131   64  189 1    
   132   65   66 2    
   133   67   68 2    
   134   67   69 am   BACKBONE|DICT|INTERRES
   135   69   70 1    
   136   69  190 1    
   137   70   71 1    
   138   70   72 1    
   139   70  191 1    
   140   71  192 1    
   141   71  193 1    
   142   71  194 1    
   143   72   73 2    
   144   72   74 am   BACKBONE|DICT|INTERRES
   145   74   75 1    
   146   74  195 1    
   147   75   76 1    
   148   75   77 1    
   149   75  196 1    
   150   76  197 1    
   151   76  198 1    
   152   76  199 1    
   153   77   78 2    
   154   77   79 am   BACKBONE|DICT|INTERRES
   155   79   80 1    
   156   79  200 1    
   157   80   81 1    
   158   80   82 1    
   159   80  201 1    
   160   81  202 1    
   161   81  203 1    
   162   81  204 1    
   163   82   83 2    
   164   82   84 am   BACKBONE|DICT|INTERRES
   165   84   85 1    
   166   84  205 1    
   167   85   86 1    
   168   85   87 1    
   169   85  206 1    
   170   86  207 1    
   171   86  208 1    
   172   86  209 1    
   173   87   88 2    
   174   87   89 am   BACKBONE|DICT|INTERRES
   175   89   90 1    
   176   89  210 1    
   177   90   91 1    
   178   90   92 1    
   179   90  211 1    
   180   91  212 1    
   181   91  213 1    
   182   91  214 1    
   183   92   93 2    
   184   92   94 am   BACKBONE|DICT|INTERRES
   185   94   95 1    
   186   94  215 1    
   187   95   96 1    
   188   95   97 1    
   189   95  216 1    
   190   96  217 1    
   191   96  218 1    
   192   96  219 1    
   193   97   98 2    
   194   97   99 am   BACKBONE|DICT|INTERRES
   195   99  100 1    
   196   99  220 1    
   197  100  101 1    
   198  100  102 1    
   199  100  221 1    
   200  101  222 1    
   201  101  223 1    
   202  101  224 1    
   203  102  103 2    
   204  102  104 am   BACKBONE|DICT|INTERRES
   205  104  105 1    
   206  104  225 1    
   207  105  106 1    
   208  105  107 1    
   209  105  226 1    
   210  106  227 1    
   211  106  228 1    
   212  106  229 1    
   213  107  108 2    
   214  107  109 am   BACKBONE|DICT|INTERRES
   215  109  110 1    
   216  109  230 1    
   217  110  111 1    
   218  110  112 1    
   219  110  231 1    
   220  111  232 1    
   221  111  233 1    
   222  111  234 1    
   223  112  113 2    
   224  112  114 am   BACKBONE|DICT|INTERRES
   225  114  115 1    
   226  114  235 1    
   227  115  116 1    
   228  115  117 1    
   229  115  236 1    
   230  116  237 1    
   231  116  238 1    
   232  116  239 1    
   233  117  118 2    
   234  117  119 am   BACKBONE|DICT|INTERRES
   235  119  120 1    
   236  119  240 1    
   237  120  121 1    
   238  120  124 1    
   239  120  241 1    
   240  121  122 am   BACKBONE|DICT|INTERRES
   241  121  123 2    
   242  122  242 1    
   243  122  243 1    
   244  124  125 1    
   245  124  244 1    
   246  124  245 1    
   247  125  126 1    
   248  126  246 1    
   249  126  247 1    
@<TRIPOS>SUBSTRUCTURE
     1 UNK         1 GROUP             0       ****    0 ROOT    
