@<TRIPOS>MOLECULE
3R540
247   249    1
SMALL
USER_CHARGES


@<TRIPOS>ATOM
      1 CA          2.1039  -17.7281  -50.8957 C.3       0 UNK        -0.1800 
      2 C           1.8044  -16.2643  -50.6092 C.2       0 UNK         0.5000 
      3 O           2.4356  -15.3824  -51.1910 O.2       0 UNK        -0.5000 
      4 N           0.8430  -16.0080  -49.7139 N.am      1 UNK        -0.5000 
      5 CA          0.3652  -14.6804  -49.3054 C.3       1 UNK         0.1400 
      6 C6         -0.2379  -13.8539  -50.4827 C.3       23 UNK        -0.0398 
      7 S7         -1.8039  -13.0337  -50.0182 S.3       23 UNK        -0.2404 
      8 C8         -3.0525  -14.0295  -50.9099 C.3       23 UNK        -0.0205 
      9 C9         -2.9214  -15.5317  -50.6764 C.ar      23 UNK        -0.0193 
     10 C10        -2.9067  -16.4091  -51.7654 C.ar      23 UNK        -0.1150 
     11 C11        -2.7637  -17.7863  -51.5690 C.ar      23 UNK        -0.0193 
     12 C12        -2.6053  -18.2824  -50.2732 C.ar      23 UNK        -0.1150 
     13 C13        -2.6072  -17.4150  -49.1786 C.ar      23 UNK        -0.0193 
     14 C14        -2.7996  -16.0472  -49.3824 C.ar      23 UNK        -0.1150 
     15 C15        -2.3588  -17.9535  -47.7826 C.3       23 UNK        -0.0205 
     16 S16        -0.5840  -18.2773  -47.5434 S.3       23 UNK        -0.2404 
     17 C17        -0.5636  -18.8872  -45.8289 C.3       23 UNK        -0.0398 
     18 CA         -0.4871  -20.4314  -45.7322 C.3       11 UNK         0.1400 
     19 N           0.1765  -20.8634  -44.4979 N.am      11 UNK        -0.5000 
     20 C           0.5780  -22.1185  -44.2479 C.2       10 UNK         0.5000 
     21 O           0.4650  -23.0466  -45.0459 O.2       10 UNK        -0.5000 
     22 CA          1.1418  -22.3925  -42.8440 C.3       10 UNK         0.1400 
     23 CB          2.6456  -22.0854  -42.7918 C.3       10 UNK        -0.1800 
     24 N           0.4556  -21.6080  -41.8207 N.am      10 UNK        -0.5000 
     25 C          -0.8257  -21.7498  -41.4586 C.2       9 UNK         0.5000 
     26 O          -1.5664  -22.6092  -41.9377 O.2       9 UNK        -0.5000 
     27 CA         -1.3900  -20.7207  -40.4549 C.3       9 UNK         0.1400 
     28 CB         -2.3363  -21.3628  -39.4210 C.3       9 UNK        -0.1800 
     29 N          -0.3582  -19.8956  -39.8122 N.am      9 UNK        -0.5000 
     30 C           0.5854  -20.2791  -38.9378 C.2       8 UNK         0.5000 
     31 O           0.6643  -21.4138  -38.4667 O.2       8 UNK        -0.5000 
     32 CA          1.6596  -19.2378  -38.5594 C.3       8 UNK         0.1400 
     33 CB          3.0078  -19.6223  -39.1904 C.3       8 UNK        -0.1800 
     34 N           1.3264  -17.8708  -38.9677 N.am      8 UNK        -0.5000 
     35 C           0.4208  -17.0909  -38.3618 C.2       7 UNK         0.5000 
     36 O          -0.2026  -17.4239  -37.3533 O.2       7 UNK        -0.5000 
     37 CA          0.1400  -15.7229  -39.0123 C.3       7 UNK         0.1400 
     38 CB          1.1648  -14.6802  -38.5409 C.3       7 UNK        -0.1800 
     39 N           0.1298  -15.7718  -40.4771 N.am      7 UNK        -0.5000 
     40 C          -0.7532  -16.4612  -41.2148 C.2       6 UNK         0.5000 
     41 O          -1.6695  -17.1303  -40.7379 O.2       6 UNK        -0.5000 
     42 CA         -0.5436  -16.4535  -42.7395 C.3       6 UNK         0.1400 
     43 CB         -1.0407  -15.1449  -43.3705 C.3       6 UNK        -0.1800 
     44 N           0.8547  -16.6751  -43.1010 N.am      6 UNK        -0.5000 
     45 C           1.5180  -17.8187  -42.8873 C.2       5 UNK         0.5000 
     46 O           0.9910  -18.8413  -42.4505 O.2       5 UNK        -0.5000 
     47 CA          3.0184  -17.8260  -43.2150 C.3       5 UNK         0.1400 
     48 CB          3.2434  -18.1629  -44.6963 C.3       5 UNK        -0.1800 
     49 N           3.6600  -16.5531  -42.8867 N.am      5 UNK        -0.5000 
     50 C           3.8482  -16.1088  -41.6355 C.2       4 UNK         0.5000 
     51 O           3.5163  -16.7358  -40.6300 O.2       4 UNK        -0.5000 
     52 CA          4.4688  -14.7087  -41.4871 C.3       4 UNK         0.1400 
     53 CB          5.9952  -14.7701  -41.6463 C.3       4 UNK        -0.1800 
     54 N           3.9164  -13.7495  -42.4442 N.am      4 UNK        -0.5000 
     55 C           2.6442  -13.3274  -42.4413 C.2       3 UNK         0.5000 
     56 O           1.8059  -13.6852  -41.6148 O.2       3 UNK        -0.5000 
     57 CA          2.2273  -12.3850  -43.5842 C.3       3 UNK         0.1400 
     58 CB          2.5630  -10.9278  -43.2333 C.3       3 UNK        -0.1800 
     59 N           2.8326  -12.7286  -44.8746 N.am      3 UNK        -0.5000 
     60 C           2.6338  -13.8840  -45.5217 C.2       2 UNK         0.5000 
     61 O           1.9727  -14.8204  -45.0665 O.2       2 UNK        -0.5000 
     62 CA          3.3078  -14.0338  -46.8948 C.3       2 UNK         0.1400 
     63 CB          4.5361  -14.9518  -46.8017 C.3       2 UNK        -0.1800 
     64 N           2.3602  -14.5903  -47.8568 N.am      2 UNK        -0.5000 
     65 C           1.3830  -13.8891  -48.4486 C.2       1 UNK         0.5000 
     66 O           1.2587  -12.6702  -48.3148 O.2       1 UNK        -0.5000 
     67 C          -1.8831  -21.0724  -45.8928 C.2       11 UNK         0.5000 
     68 O          -2.2908  -21.3649  -47.0144 O.2       11 UNK        -0.5000 
     69 N          -2.5869  -21.2926  -44.7728 N.am      12 UNK        -0.5000 
     70 CA         -3.8812  -21.9732  -44.7482 C.3       12 UNK         0.1400 
     71 CB         -4.6179  -21.6334  -43.4429 C.3       12 UNK        -0.1800 
     72 C          -3.7271  -23.4950  -44.9180 C.2       12 UNK         0.5000 
     73 O          -4.5204  -24.1096  -45.6317 O.2       12 UNK        -0.5000 
     74 N          -2.7071  -24.0708  -44.2660 N.am      13 UNK        -0.5000 
     75 CA         -2.3863  -25.4969  -44.3168 C.3       13 UNK         0.1400 
     76 CB         -1.3717  -25.8251  -43.2109 C.3       13 UNK        -0.1800 
     77 C          -1.8564  -25.9571  -45.6883 C.2       13 UNK         0.5000 
     78 O          -2.2078  -27.0504  -46.1340 O.2       13 UNK        -0.5000 
     79 N          -1.0218  -25.1281  -46.3252 N.am      14 UNK        -0.5000 
     80 CA         -0.3571  -25.4149  -47.5906 C.3       14 UNK         0.1400 
     81 CB          1.0247  -26.0348  -47.3091 C.3       14 UNK        -0.1800 
     82 C          -0.2775  -24.1266  -48.4224 C.2       14 UNK         0.5000 
     83 O           0.7774  -23.4921  -48.4907 O.2       14 UNK        -0.5000 
     84 N          -1.4098  -23.7536  -49.0307 N.am      15 UNK        -0.5000 
     85 CA         -1.5200  -22.6252  -49.9568 C.3       15 UNK         0.1400 
     86 CB         -3.0044  -22.3735  -50.2664 C.3       15 UNK        -0.1800 
     87 C          -0.7409  -22.8798  -51.2610 C.2       15 UNK         0.5000 
     88 O          -0.6913  -24.0188  -51.7328 O.2       15 UNK        -0.5000 
     89 N          -0.1689  -21.8120  -51.8313 N.am      16 UNK        -0.5000 
     90 CA          0.5358  -21.8290  -53.1129 C.3       16 UNK         0.1400 
     91 CB          1.2927  -20.5031  -53.2871 C.3       16 UNK        -0.1800 
     92 C          -0.4534  -22.0661  -54.2672 C.2       16 UNK         0.5000 
     93 O          -1.2629  -21.1851  -54.5591 O.2       16 UNK        -0.5000 
     94 N          -0.4159  -23.2724  -54.8493 N.am      17 UNK        -0.5000 
     95 CA         -1.2947  -23.8199  -55.8963 C.3       17 UNK         0.1400 
     96 CB         -1.2111  -22.9938  -57.1935 C.3       17 UNK        -0.1800 
     97 C          -2.7589  -24.0627  -55.4619 C.2       17 UNK         0.5000 
     98 O          -3.3524  -25.0442  -55.9113 O.2       17 UNK        -0.5000 
     99 N          -3.2822  -23.2110  -54.5695 N.am      18 UNK        -0.5000 
    100 CA        -4.5942  -23.2447  -53.9175 C.3       18 UNK         0.1400 
    101 CB        -4.7981  -24.5757  -53.1619 C.3       18 UNK        -0.1800 
    102 C         -5.7734  -22.9311  -54.8615 C.2       18 UNK         0.5000 
    103 O         -5.6046  -22.8121  -56.0778 O.2       18 UNK        -0.5000 
    104 N         -6.9634  -22.7929  -54.2590 N.am      19 UNK        -0.5000 
    105 CA        -8.2498  -22.5066  -54.8998 C.3       19 UNK         0.1400 
    106 CB        -8.7296  -23.7338  -55.7088 C.3       19 UNK        -0.1800 
    107 C         -8.2156  -21.1866  -55.7004 C.2       19 UNK         0.5000 
    108 O         -7.8298  -20.1563  -55.1441 O.2       19 UNK        -0.5000 
    109 N         -8.6065  -21.2340  -56.9815 N.am      20 UNK        -0.5000 
    110 CA        -8.6898  -20.0916  -57.8953 C.3       20 UNK         0.1400 
    111 CB        -9.2908  -20.5626  -59.2283 C.3       20 UNK        -0.1800 
    112 C         -7.3524  -19.3646  -58.1359 C.2       20 UNK         0.5000 
    113 O         -7.3659  -18.1689  -58.4327 O.2       20 UNK        -0.5000 
    114 N         -6.2237  -20.0704  -57.9664 N.am      21 UNK        -0.5000 
    115 CA        -4.8727  -19.5123  -58.0762 C.3       21 UNK         0.1400 
    116 CB        -3.8457  -20.6515  -58.0337 C.3       21 UNK        -0.1800 
    117 C         -4.5531  -18.4601  -56.9950 C.2       21 UNK         0.5000 
    118 O         -3.6917  -17.6091  -57.2205 O.2       21 UNK        -0.5000 
    119 N         -5.2651  -18.5172  -55.8624 N.am      22 UNK        -0.5000 
    120 CA        -5.2052  -17.5213  -54.7839 C.3       22 UNK         0.1400 
    121 C         -6.1167  -16.2804  -55.0228 C.2       22 UNK         0.5000 
    122 N         -6.8860  -16.2018  -56.1037 N.am      22 UNK        -0.7600 
    123 O         -6.1151  -15.3553  -54.2156 O.2       22 UNK        -0.5000 
    124 C124       -5.4734  -18.1584  -53.3956 C.3       23 UNK        -0.0398 
    125 S125       -4.3655  -19.5568  -52.9994 S.3       23 UNK        -0.2404 
    126 C126       -2.7561  -18.7379  -52.7548 C.3       23 UNK        -0.0205 
    127 H127        1.3709  -18.3904  -50.4338 H         1 UNK         0.0600 
    128 H128        3.0913  -17.9914  -50.5169 H         1 UNK         0.0600 
    129 H129        2.0916  -17.9050  -51.9709 H         1 UNK         0.0600 
    130 H130        0.3655  -16.7832  -49.2709 H         1 UNK         0.3000 
    131 H131       -0.4350  -14.9079  -48.6019 H         1 UNK         0.0600 
    132 H132        0.4646  -13.1032  -50.8487 H         1 UNK         0.0800 
    133 H133       -0.4330  -14.4948  -51.3432 H         1 UNK         0.0800 
    134 H134       -4.0473  -13.7113  -50.5963 H         1 UNK         0.0800 
    135 H135       -2.9778  -13.7998  -51.9739 H         1 UNK         0.0800 
    136 H136       -3.0092  -16.0206  -52.7688 H         1 UNK         0.1150 
    137 H137       -2.4675  -19.3422  -50.1140 H         1 UNK         0.1150 
    138 H138       -2.8097  -15.3752  -48.5359 H         1 UNK         0.1150 
    139 H139       -2.7068  -17.2444  -47.0298 H         1 UNK         0.0800 
    140 H140       -2.9334  -18.8688  -47.6403 H         1 UNK         0.0800 
    141 H141       -1.4051  -18.4817  -45.2647 H         1 UNK         0.0800 
    142 H142        0.3273  -18.4471  -45.3854 H         1 UNK         0.0800 
    143 H143        0.1300  -20.7975  -46.5565 H         1 UNK         0.0600 
    144 H144        0.3159  -20.1660  -43.7739 H         1 UNK         0.3000 
    145 H145        0.9961  -23.4505  -42.6186 H         1 UNK         0.0600 
    146 H146        3.0616  -22.3199  -41.8117 H         1 UNK         0.0600 
    147 H147        3.1902  -22.6789  -43.5273 H         1 UNK         0.0600 
    148 H148        2.8509  -21.0351  -43.0000 H         1 UNK         0.0600 
    149 H149        0.9523  -20.8050  -41.4591 H         1 UNK         0.3000 
    150 H150       -1.9854  -20.0275  -41.0506 H         1 UNK         0.0600 
    151 H151       -3.1955  -21.8214  -39.9119 H         1 UNK         0.0600 
    152 H152       -2.7214  -20.6188  -38.7236 H         1 UNK         0.0600 
    153 H153       -1.8408  -22.1429  -38.8429 H         1 UNK         0.0600 
    154 H154       -0.3234  -18.9373  -40.1358 H         1 UNK         0.3000 
    155 H155        1.7704  -19.2602  -37.4734 H         1 UNK         0.0600 
    156 H156        2.9605  -19.6048  -40.2799 H         1 UNK         0.0600 
    157 H157        3.3125  -20.6258  -38.8907 H         1 UNK         0.0600 
    158 H158        3.7977  -18.9386  -38.8789 H         1 UNK         0.0600 
    159 H159        1.8530  -17.4909  -39.7481 H         1 UNK         0.3000 
    160 H160       -0.8496  -15.3985  -38.6841 H         1 UNK         0.0600 
    161 H161        2.1726  -14.9265  -38.8769 H         1 UNK         0.0600 
    162 H162        1.1865  -14.6159  -37.4523 H         1 UNK         0.0600 
    163 H163        0.9195  -13.6881  -38.9201 H         1 UNK         0.0600 
    164 H164        0.8316  -15.2094  -40.9512 H         1 UNK         0.3000 
    165 H165       -1.1333  -17.2719  -43.1563 H         1 UNK         0.0600 
    166 H166       -0.9362  -15.1679  -44.4557 H         1 UNK         0.0600 
    167 H167       -2.0953  -14.9800  -43.1470 H         1 UNK         0.0600 
    168 H168       -0.4874  -14.2818  -43.0006 H         1 UNK         0.0600 
    169 H169        1.3413  -15.9039  -43.5484 H         1 UNK         0.3000 
    170 H170        3.4880  -18.6068  -42.6133 H         1 UNK         0.0600 
    171 H171        2.8408  -19.1479  -44.9365 H         1 UNK         0.0600 
    172 H172        2.7548  -17.4431  -45.3536 H         1 UNK         0.0600 
    173 H173        4.3052  -18.1787  -44.9419 H         1 UNK         0.0600 
    174 H174        3.9105  -15.9545  -43.6590 H         1 UNK         0.3000 
    175 H175        4.2447  -14.3505  -40.4800 H         1 UNK         0.0600 
    176 H176        6.2856  -15.0946  -42.6463 H         1 UNK         0.0600 
    177 H177        6.4496  -13.7960  -41.4642 H         1 UNK         0.0600 
    178 H178        6.4334  -15.4700  -40.9335 H         1 UNK         0.0600 
    179 H179        4.5370  -13.4063  -43.1622 H         1 UNK         0.3000 
    180 H180        1.1441  -12.4657  -43.6961 H         1 UNK         0.0600 
    181 H181        3.6386  -10.7714  -43.1432 H         1 UNK         0.0600 
    182 H182        2.1086  -10.6405  -42.2840 H         1 UNK         0.0600 
    183 H183        2.1858  -10.2423  -43.9925 H         1 UNK         0.0600 
    184 H184        3.3921  -12.0111  -45.3128 H         1 UNK         0.3000 
    185 H185        3.6380  -13.0535  -47.2450 H         1 UNK         0.0600 
    186 H186        4.2678  -15.9596  -46.4856 H         1 UNK         0.0600 
    187 H187        5.0411  -15.0290  -47.7648 H         1 UNK         0.0600 
    188 H188        5.2615  -14.5641  -46.0854 H         1 UNK         0.0600 
    189 H189        2.3726  -15.5915  -47.9811 H         1 UNK         0.3000 
    190 H190       -2.1745  -21.0653  -43.8812 H         1 UNK         0.3000 
    191 H191       -4.4864  -21.6031  -45.5789 H         1 UNK         0.0600 
    192 H192       -4.7613  -20.5577  -43.3396 H         1 UNK         0.0600 
    193 H193       -5.6055  -22.0957  -43.4241 H         1 UNK         0.0600 
    194 H194       -4.0772  -21.9854  -42.5644 H         1 UNK         0.0600 
    195 H195       -2.1436  -23.5017  -43.6432 H         1 UNK         0.3000 
    196 H196       -3.3024  -26.0544  -44.1106 H         1 UNK         0.0600 
    197 H197       -1.1474  -26.8923  -43.1907 H         1 UNK         0.0600 
    198 H198       -1.7570  -25.5541  -42.2277 H         1 UNK         0.0600 
    199 H199       -0.4309  -25.2948  -43.3596 H         1 UNK         0.0600 
    200 H200       -0.7426  -24.2587  -45.8761 H         1 UNK         0.3000 
    201 H201       -0.9399  -26.1345  -48.1697 H         1 UNK         0.0600 
    202 H202        0.9300  -26.9869  -46.7867 H         1 UNK         0.0600 
    203 H203        1.6417  -25.3772  -46.6952 H         1 UNK         0.0600 
    204 H204        1.5645  -26.2246  -48.2375 H         1 UNK         0.0600 
    205 H205       -2.2359  -24.3208  -48.9137 H         1 UNK         0.3000 
    206 H206       -1.1091  -21.7392  -49.4679 H         1 UNK         0.0600 
    207 H207       -3.5558  -22.1067  -49.3647 H         1 UNK         0.0600 
    208 H208       -3.1249  -21.5529  -50.9741 H         1 UNK         0.0600 
    209 H209       -3.4793  -23.2526  -50.7021 H         1 UNK         0.0600 
    210 H210       -0.2674  -20.9099  -51.3912 H         1 UNK         0.3000 
    211 H211        1.2696  -22.6377  -53.0972 H         1 UNK         0.0600 
    212 H212        0.6207  -19.6444  -53.2560 H         1 UNK         0.0600 
    213 H213        1.8154  -20.4758  -54.2440 H         1 UNK         0.0600 
    214 H214        2.0413  -20.3743  -52.5053 H         1 UNK         0.0600 
    215 H215        0.2423  -23.9406  -54.4724 H         1 UNK         0.3000 
    216 H216       -0.8874  -24.8066  -56.1230 H         1 UNK         0.0600 
    217 H217       -1.8554  -23.4132  -57.9672 H         1 UNK         0.0600 
    218 H218       -0.1946  -22.9839  -57.5864 H         1 UNK         0.0600 
    219 H219       -1.5168  -21.9605  -57.0399 H         1 UNK         0.0600 
    220 H220       -2.7131  -22.3974  -54.3543 H         1 UNK         0.3000 
    221 H221       -4.5664  -22.4494  -53.1733 H         1 UNK         0.0600 
    222 H222       -4.9843  -25.4056  -53.8442 H         1 UNK         0.0600 
    223 H223       -3.9239  -24.8278  -52.5613 H         1 UNK         0.0600 
    224 H224       -5.6487  -24.5188  -52.4825 H         1 UNK         0.0600 
    225 H225       -6.9959  -22.8612  -53.2519 H         1 UNK         0.3000 
    226 H226       -8.9657  -22.3465  -54.0925 H         1 UNK         0.0600 
    227 H227       -8.7648  -24.6226  -55.0787 H         1 UNK         0.0600 
    228 H228       -9.7370  -23.5833  -56.0988 H         1 UNK         0.0600 
    229 H229       -8.0722  -23.9560  -56.5503 H         1 UNK         0.0600 
    230 H230       -8.8842  -22.1282  -57.3592 H         1 UNK         0.3000 
    231 H231       -9.3739  -19.3665  -57.4498 H         1 UNK         0.0600 
    232 H232       -8.6647  -21.3166  -59.7071 H         1 UNK         0.0600 
    233 H233       -9.3947  -19.7307  -59.9264 H         1 UNK         0.0600 
    234 H234      -10.2835  -20.9899  -59.0857 H         1 UNK         0.0600 
    235 H235       -6.2922  -21.0376  -57.6773 H         1 UNK         0.3000 
    236 H236       -4.7952  -19.0204  -59.0479 H         1 UNK         0.0600 
    237 H237       -4.0619  -21.4150  -58.7811 H         1 UNK         0.0600 
    238 H238       -2.8427  -20.2734  -58.2341 H         1 UNK         0.0600 
    239 H239       -3.8233  -21.1323  -57.0554 H         1 UNK         0.0600 
    240 H240       -5.9730  -19.2347  -55.7582 H         1 UNK         0.3000 
    241 H241       -4.1932  -17.1164  -54.7580 H         1 UNK         0.0600 
    242 H242       -6.8984  -16.9381  -56.7987 H         1 UNK         0.3800 
    243 H243       -7.4607  -15.3849  -56.2382 H         1 UNK         0.3800 
    244 H244       -6.4989  -18.5278  -53.3497 H         1 UNK         0.0800 
    245 H245       -5.3925  -17.4154  -52.6014 H         1 UNK         0.0800 
    246 H246       -2.4583  -18.2225  -53.6685 H         1 UNK         0.0800 
    247 H247       -2.0008  -19.5063  -52.5904 H         1 UNK         0.0800 
@<TRIPOS>BOND
     1    1    2 1    
     2    1  127 1    
     3    1  128 1    
     4    1  129 1    
     5    2    3 2    
     6    2    4 am   BACKBONE|DICT|INTERRES
     7    4    5 1    
     8    4  130 1    
     9    5    6 1    
    10    5   65 1    
    11    5  131 1    
    12    6    7 1    
    13    6  132 1    
    14    6  133 1    
    15    7    8 1    
    16    8    9 1    
    17    8  134 1    
    18    8  135 1    
    19    9   10 ar   
    20    9   14 ar   
    21   10   11 ar   
    22   10  136 1    
    23   11   12 ar   
    24   11  126 1    
    25   12   13 ar   
    26   12  137 1    
    27   13   14 ar   
    28   13   15 1    
    29   14  138 1    
    30   15   16 1    
    31   15  139 1    
    32   15  140 1    
    33   16   17 1    
    34   17   18 1    
    35   17  141 1    
    36   17  142 1    
    37   18   19 1    
    38   18   67 1    
    39   18  143 1    
    40   19   20 am   BACKBONE|DICT|INTERRES
    41   19  144 1    
    42   20   21 2    
    43   20   22 1    
    44   22   23 1    
    45   22   24 1    
    46   22  145 1    
    47   23  146 1    
    48   23  147 1    
    49   23  148 1    
    50   24   25 am   BACKBONE|DICT|INTERRES
    51   24  149 1    
    52   25   26 2    
    53   25   27 1    
    54   27   28 1    
    55   27   29 1    
    56   27  150 1    
    57   28  151 1    
    58   28  152 1    
    59   28  153 1    
    60   29   30 am   BACKBONE|DICT|INTERRES
    61   29  154 1    
    62   30   31 2    
    63   30   32 1    
    64   32   33 1    
    65   32   34 1    
    66   32  155 1    
    67   33  156 1    
    68   33  157 1    
    69   33  158 1    
    70   34   35 am   BACKBONE|DICT|INTERRES
    71   34  159 1    
    72   35   36 2    
    73   35   37 1    
    74   37   38 1    
    75   37   39 1    
    76   37  160 1    
    77   38  161 1    
    78   38  162 1    
    79   38  163 1    
    80   39   40 am   BACKBONE|DICT|INTERRES
    81   39  164 1    
    82   40   41 2    
    83   40   42 1    
    84   42   43 1    
    85   42   44 1    
    86   42  165 1    
    87   43  166 1    
    88   43  167 1    
    89   43  168 1    
    90   44   45 am   BACKBONE|DICT|INTERRES
    91   44  169 1    
    92   45   46 2    
    93   45   47 1    
    94   47   48 1    
    95   47   49 1    
    96   47  170 1    
    97   48  171 1    
    98   48  172 1    
    99   48  173 1    
   100   49   50 am   BACKBONE|DICT|INTERRES
   101   49  174 1    
   102   50   51 2    
   103   50   52 1    
   104   52   53 1    
   105   52   54 1    
   106   52  175 1    
   107   53  176 1    
   108   53  177 1    
   109   53  178 1    
   110   54   55 am   BACKBONE|DICT|INTERRES
   111   54  179 1    
   112   55   56 2    
   113   55   57 1    
   114   57   58 1    
   115   57   59 1    
   116   57  180 1    
   117   58  181 1    
   118   58  182 1    
   119   58  183 1    
   120   59   60 am   BACKBONE|DICT|INTERRES
   121   59  184 1    
   122   60   61 2    
   123   60   62 1    
   124   62   63 1    
   125   62   64 1    
   126   62  185 1    
   127   63  186 1    
   128   63  187 1    
   129   63  188 1    
   130   64   65 am   BACKBONE|DICT|INTERRES
   131   64  189 1    
   132   65   66 2    
   133   67   68 2    
   134   67   69 am   BACKBONE|DICT|INTERRES
   135   69   70 1    
   136   69  190 1    
   137   70   71 1    
   138   70   72 1    
   139   70  191 1    
   140   71  192 1    
   141   71  193 1    
   142   71  194 1    
   143   72   73 2    
   144   72   74 am   BACKBONE|DICT|INTERRES
   145   74   75 1    
   146   74  195 1    
   147   75   76 1    
   148   75   77 1    
   149   75  196 1    
   150   76  197 1    
   151   76  198 1    
   152   76  199 1    
   153   77   78 2    
   154   77   79 am   BACKBONE|DICT|INTERRES
   155   79   80 1    
   156   79  200 1    
   157   80   81 1    
   158   80   82 1    
   159   80  201 1    
   160   81  202 1    
   161   81  203 1    
   162   81  204 1    
   163   82   83 2    
   164   82   84 am   BACKBONE|DICT|INTERRES
   165   84   85 1    
   166   84  205 1    
   167   85   86 1    
   168   85   87 1    
   169   85  206 1    
   170   86  207 1    
   171   86  208 1    
   172   86  209 1    
   173   87   88 2    
   174   87   89 am   BACKBONE|DICT|INTERRES
   175   89   90 1    
   176   89  210 1    
   177   90   91 1    
   178   90   92 1    
   179   90  211 1    
   180   91  212 1    
   181   91  213 1    
   182   91  214 1    
   183   92   93 2    
   184   92   94 am   BACKBONE|DICT|INTERRES
   185   94   95 1    
   186   94  215 1    
   187   95   96 1    
   188   95   97 1    
   189   95  216 1    
   190   96  217 1    
   191   96  218 1    
   192   96  219 1    
   193   97   98 2    
   194   97   99 am   BACKBONE|DICT|INTERRES
   195   99  100 1    
   196   99  220 1    
   197  100  101 1    
   198  100  102 1    
   199  100  221 1    
   200  101  222 1    
   201  101  223 1    
   202  101  224 1    
   203  102  103 2    
   204  102  104 am   BACKBONE|DICT|INTERRES
   205  104  105 1    
   206  104  225 1    
   207  105  106 1    
   208  105  107 1    
   209  105  226 1    
   210  106  227 1    
   211  106  228 1    
   212  106  229 1    
   213  107  108 2    
   214  107  109 am   BACKBONE|DICT|INTERRES
   215  109  110 1    
   216  109  230 1    
   217  110  111 1    
   218  110  112 1    
   219  110  231 1    
   220  111  232 1    
   221  111  233 1    
   222  111  234 1    
   223  112  113 2    
   224  112  114 am   BACKBONE|DICT|INTERRES
   225  114  115 1    
   226  114  235 1    
   227  115  116 1    
   228  115  117 1    
   229  115  236 1    
   230  116  237 1    
   231  116  238 1    
   232  116  239 1    
   233  117  118 2    
   234  117  119 am   BACKBONE|DICT|INTERRES
   235  119  120 1    
   236  119  240 1    
   237  120  121 1    
   238  120  124 1    
   239  120  241 1    
   240  121  122 am   BACKBONE|DICT|INTERRES
   241  121  123 2    
   242  122  242 1    
   243  122  243 1    
   244  124  125 1    
   245  124  244 1    
   246  124  245 1    
   247  125  126 1    
   248  126  246 1    
   249  126  247 1    
@<TRIPOS>SUBSTRUCTURE
     1 UNK         1 GROUP             0       ****    0 ROOT    
