@<TRIPOS>MOLECULE
3R540
247   249    1
SMALL
USER_CHARGES


@<TRIPOS>ATOM
      1 CA         -1.9152  -13.2396  -47.6205 C.3       0 UNK        -0.1800 
      2 C          -0.8797  -12.7857  -48.6374 C.2       0 UNK         0.5000 
      3 O          -1.1638  -11.9115  -49.4567 O.2       0 UNK        -0.5000 
      4 N           0.3241  -13.3679  -48.5812 N.am      1 UNK        -0.5000 
      5 CA          1.4927  -12.9496  -49.3562 C.3       1 UNK         0.1400 
      6 C6          2.4384  -14.1261  -49.7327 C.3       23 UNK        -0.0398 
      7 S7          2.8396  -15.3153  -48.4019 S.3       23 UNK        -0.2404 
      8 C8          1.4882  -16.5284  -48.5366 C.3       23 UNK        -0.0205 
      9 C9          1.7558  -17.6399  -49.5398 C.ar      23 UNK        -0.0193 
     10 C10         1.4042  -17.4794  -50.8835 C.ar      23 UNK        -0.1150 
     11 C11         1.6144  -18.5122  -51.8009 C.ar      23 UNK        -0.0193 
     12 C12         2.1626  -19.7200  -51.3637 C.ar      23 UNK        -0.1150 
     13 C13         2.4880  -19.9056  -50.0180 C.ar      23 UNK        -0.0193 
     14 C14         2.2954  -18.8575  -49.1119 C.ar      23 UNK        -0.1150 
     15 C15         3.0251  -21.2493  -49.5492 C.3       23 UNK        -0.0205 
     16 S16         1.6987  -22.4941  -49.4338 S.3       23 UNK        -0.2404 
     17 C17         0.6999  -21.8285  -48.0632 C.3       23 UNK        -0.0398 
     18 CA          0.0242  -22.9283  -47.2082 C.3       11 UNK         0.1400 
     19 N          -0.1248  -22.4982  -45.8150 N.am      11 UNK        -0.5000 
     20 C          -0.4419  -23.2996  -44.7906 C.2       10 UNK         0.5000 
     21 O          -0.6422  -24.5073  -44.9089 O.2       10 UNK        -0.5000 
     22 CA         -0.6015  -22.6333  -43.4114 C.3       10 UNK         0.1400 
     23 CB          0.7676  -22.3601  -42.7714 C.3       10 UNK        -0.1800 
     24 N          -1.3764  -21.3924  -43.4697 N.am      10 UNK        -0.5000 
     25 C          -2.6707  -21.3293  -43.8142 C.2       9 UNK         0.5000 
     26 O          -3.3512  -22.3172  -44.0886 O.2       9 UNK        -0.5000 
     27 CA         -3.3010  -19.9284  -43.9172 C.3       9 UNK         0.1400 
     28 CB         -3.6607  -19.3835  -42.5271 C.3       9 UNK        -0.1800 
     29 N          -2.4402  -18.9720  -44.6116 N.am      9 UNK        -0.5000 
     30 C          -2.0421  -19.0898  -45.8862 C.2       8 UNK         0.5000 
     31 O          -2.3933  -19.9978  -46.6373 O.2       8 UNK        -0.5000 
     32 CA         -1.0243  -18.0539  -46.3867 C.3       8 UNK         0.1400 
     33 CB         -1.7137  -16.7294  -46.7413 C.3       8 UNK        -0.1800 
     34 N           0.0441  -17.8134  -45.4156 N.am      8 UNK        -0.5000 
     35 C           0.9119  -18.7484  -45.0016 C.2       7 UNK         0.5000 
     36 O           0.9190  -19.9056  -45.4129 O.2       7 UNK        -0.5000 
     37 CA          1.9097  -18.3384  -43.9104 C.3       7 UNK         0.1400 
     38 CB          3.1135  -17.6149  -44.5294 C.3       7 UNK        -0.1800 
     39 N           1.2758  -17.5006  -42.8931 N.am      7 UNK        -0.5000 
     40 C           0.3470  -17.9449  -42.0324 C.2       6 UNK         0.5000 
     41 O          -0.0250  -19.1173  -41.9720 O.2       6 UNK        -0.5000 
     42 CA         -0.3101  -16.8907  -41.1231 C.3       6 UNK         0.1400 
     43 CB          0.5537  -16.6305  -39.8803 C.3       6 UNK        -0.1800 
     44 N          -0.5540  -15.6265  -41.8205 N.am      6 UNK        -0.5000 
     45 C          -1.4201  -15.4759  -42.8330 C.2       5 UNK         0.5000 
     46 O          -2.1392  -16.3816  -43.2543 O.2       5 UNK        -0.5000 
     47 CA         -1.4505  -14.0978  -43.5205 C.3       5 UNK         0.1400 
     48 CB         -2.4456  -13.1616  -42.8206 C.3       5 UNK        -0.1800 
     49 N          -0.1344  -13.4558  -43.5709 N.am      5 UNK        -0.5000 
     50 C           0.9234  -13.9175  -44.2489 C.2       4 UNK         0.5000 
     51 O           0.8771  -14.9198  -44.9657 O.2       4 UNK        -0.5000 
     52 CA          2.2444  -13.1406  -44.0572 C.3       4 UNK         0.1400 
     53 CB          3.4378  -13.7899  -44.7749 C.3       4 UNK        -0.1800 
     54 N           2.1491  -11.7404  -44.4737 N.am      4 UNK        -0.5000 
     55 C           1.6006  -10.7543  -43.7492 C.2       3 UNK         0.5000 
     56 O           1.0218  -10.9502  -42.6788 O.2       3 UNK        -0.5000 
     57 CA          1.7317   -9.3099  -44.2755 C.3       3 UNK         0.1400 
     58 CB          2.7303   -8.5177  -43.4167 C.3       3 UNK        -0.1800 
     59 N           2.1527   -9.2250  -45.6753 N.am      3 UNK        -0.5000 
     60 C           1.3505   -9.4488  -46.7224 C.2       2 UNK         0.5000 
     61 O           0.1593   -9.7444  -46.6104 O.2       2 UNK        -0.5000 
     62 CA          1.9650   -9.3376  -48.1346 C.3       2 UNK         0.1400 
     63 CB          3.4597   -8.9419  -48.1657 C.3       2 UNK        -0.1800 
     64 N           1.7210  -10.5688  -48.8889 N.am      2 UNK        -0.5000 
     65 C           2.1635  -11.7974  -48.5844 C.2       1 UNK         0.5000 
     66 O           2.9744  -12.0331  -47.6877 O.2       1 UNK        -0.5000 
     67 C          -1.3159  -23.4007  -47.8172 C.2       11 UNK         0.5000 
     68 O          -1.3313  -24.3425  -48.6141 O.2       11 UNK        -0.5000 
     69 N          -2.4246  -22.7621  -47.4156 N.am      12 UNK        -0.5000 
     70 CA         -3.7872  -23.1728  -47.7448 C.3       12 UNK         0.1400 
     71 CB         -4.7776  -22.0585  -47.3790 C.3       12 UNK        -0.1800 
     72 C          -4.1693  -24.4987  -47.0673 C.2       12 UNK         0.5000 
     73 O          -4.6641  -25.3968  -47.7461 O.2       12 UNK        -0.5000 
     74 N          -3.8853  -24.6236  -45.7620 N.am      13 UNK        -0.5000 
     75 CA         -4.1133  -25.8361  -44.9670 C.3       13 UNK         0.1400 
     76 CB         -3.8172  -25.5456  -43.4882 C.3       13 UNK        -0.1800 
     77 C          -3.3002  -27.0506  -45.4572 C.2       13 UNK         0.5000 
     78 O          -3.7973  -28.1761  -45.4103 O.2       13 UNK        -0.5000 
     79 N          -2.0875  -26.7937  -45.9651 N.am      14 UNK        -0.5000 
     80 CA         -1.2214  -27.7667  -46.6342 C.3       14 UNK         0.1400 
     81 CB          0.2007  -27.1866  -46.7073 C.3       14 UNK        -0.1800 
     82 C          -1.7074  -28.1689  -48.0443 C.2       14 UNK         0.5000 
     83 O          -1.1324  -29.0856  -48.6320 O.2       14 UNK        -0.5000 
     84 N          -2.7282  -27.4724  -48.5697 N.am      15 UNK        -0.5000 
     85 CA         -3.3338  -27.6160  -49.8982 C.3       15 UNK         0.1400 
     86 CB         -3.9492  -29.0181  -50.0866 C.3       15 UNK        -0.1800 
     87 C          -2.3951  -27.2116  -51.0541 C.2       15 UNK         0.5000 
     88 O          -2.6420  -27.5887  -52.2002 O.2       15 UNK        -0.5000 
     89 N          -1.3520  -26.4308  -50.7446 N.am      16 UNK        -0.5000 
     90 CA         -0.3839  -25.9164  -51.7094 C.3       16 UNK         0.1400 
     91 CB          0.9758  -25.7453  -51.0177 C.3       16 UNK        -0.1800 
     92 C          -0.8772  -24.6017  -52.3348 C.2       16 UNK         0.5000 
     93 O          -0.8169  -24.4527  -53.5555 O.2       16 UNK        -0.5000 
     94 N          -1.4010  -23.6976  -51.4946 N.am      17 UNK        -0.5000 
     95 CA         -2.0371  -22.4455  -51.9207 C.3       17 UNK         0.1400 
     96 CB         -1.6443  -21.3209  -50.9528 C.3       17 UNK        -0.1800 
     97 C          -3.5709  -22.5680  -52.0060 C.2       17 UNK         0.5000 
     98 O          -4.2254  -21.6153  -52.4352 O.2       17 UNK        -0.5000 
     99 N          -4.1147  -23.7156  -51.5703 N.am      18 UNK        -0.5000 
    100 CA        -5.5225  -24.1395  -51.5389 C.3       18 UNK         0.1400 
    101 CB        -6.1037  -24.2285  -52.9628 C.3       18 UNK        -0.1800 
    102 C         -6.4322  -23.3028  -50.6166 C.2       18 UNK         0.5000 
    103 O         -7.0683  -23.8567  -49.7210 O.2       18 UNK        -0.5000 
    104 N         -6.4720  -21.9904  -50.8515 N.am      19 UNK        -0.5000 
    105 CA        -7.2691  -20.9960  -50.1351 C.3       19 UNK         0.1400 
    106 CB        -8.7353  -21.0540  -50.6099 C.3       19 UNK        -0.1800 
    107 C         -6.6367  -19.6018  -50.3070 C.2       19 UNK         0.5000 
    108 O         -7.3580  -18.6142  -50.4536 O.2       19 UNK        -0.5000 
    109 N         -5.2935  -19.5593  -50.3361 N.am      20 UNK        -0.5000 
    110 CA        -4.4506  -18.4030  -50.6739 C.3       20 UNK         0.1400 
    111 CB        -4.5941  -17.2824  -49.6233 C.3       20 UNK        -0.1800 
    112 C         -4.6776  -17.9138  -52.1231 C.2       20 UNK         0.5000 
    113 O         -4.5817  -16.7166  -52.3995 O.2       20 UNK        -0.5000 
    114 N         -4.9782  -18.8577  -53.0285 N.am      21 UNK        -0.5000 
    115 CA        -5.3843  -18.6125  -54.4151 C.3       21 UNK         0.1400 
    116 CB        -5.8824  -19.9327  -55.0232 C.3       21 UNK        -0.1800 
    117 C         -4.2722  -17.9983  -55.2841 C.2       21 UNK         0.5000 
    118 O         -4.5672  -17.2730  -56.2346 O.2       21 UNK        -0.5000 
    119 N         -3.0187  -18.2862  -54.9228 N.am      22 UNK        -0.5000 
    120 CA        -1.8030  -17.6939  -55.4940 C.3       22 UNK         0.1400 
    121 C         -1.4722  -16.2614  -54.9735 C.2       22 UNK         0.5000 
    122 N         -2.2138  -15.6963  -54.0264 N.am      22 UNK        -0.7600 
    123 O         -0.5266  -15.6410  -55.4517 O.2       22 UNK        -0.5000 
    124 C124       -0.6005  -18.6640  -55.3614 C.3       23 UNK        -0.0398 
    125 S125       -0.3008  -19.2206  -53.6470 S.3       23 UNK        -0.2404 
    126 C126        1.2361  -18.3323  -53.2608 C.3       23 UNK        -0.0205 
    127 H127       -1.4360  -13.6667  -46.7412 H         1 UNK         0.0600 
    128 H128       -2.5761  -13.9874  -48.0588 H         1 UNK         0.0600 
    129 H129       -2.5201  -12.3943  -47.2921 H         1 UNK         0.0600 
    130 H130        0.5216  -14.0398  -47.8528 H         1 UNK         0.3000 
    131 H131        1.1520  -12.5372  -50.3088 H         1 UNK         0.0600 
    132 H132        1.9996  -14.6773  -50.5624 H         1 UNK         0.0800 
    133 H133        3.3785  -13.7355  -50.1253 H         1 UNK         0.0800 
    134 H134        0.5509  -16.0330  -48.7862 H         1 UNK         0.0800 
    135 H135        1.3534  -16.9600  -47.5478 H         1 UNK         0.0800 
    136 H136        0.9541  -16.5560  -51.2173 H         1 UNK         0.1150 
    137 H137        2.3067  -20.5285  -52.0669 H         1 UNK         0.1150 
    138 H138        2.5435  -18.9965  -48.0688 H         1 UNK         0.1150 
    139 H139        3.5282  -21.1542  -48.5857 H         1 UNK         0.0800 
    140 H140        3.7797  -21.6024  -50.2534 H         1 UNK         0.0800 
    141 H141       -0.0188  -21.0975  -48.4376 H         1 UNK         0.0800 
    142 H142        1.3924  -21.2647  -47.4408 H         1 UNK         0.0800 
    143 H143        0.6860  -23.7966  -47.1869 H         1 UNK         0.0600 
    144 H144        0.0683  -21.5170  -45.6236 H         1 UNK         0.3000 
    145 H145       -1.1400  -23.3316  -42.7676 H         1 UNK         0.0600 
    146 H146        1.3508  -23.2783  -42.6912 H         1 UNK         0.0600 
    147 H147        0.6578  -21.9549  -41.7654 H         1 UNK         0.0600 
    148 H148        1.3528  -21.6492  -43.3548 H         1 UNK         0.0600 
    149 H149       -0.8902  -20.5368  -43.2235 H         1 UNK         0.3000 
    150 H150       -4.2234  -20.0217  -44.4938 H         1 UNK         0.0600 
    151 H151       -2.7750  -19.2382  -41.9083 H         1 UNK         0.0600 
    152 H152       -4.3232  -20.0696  -41.9980 H         1 UNK         0.0600 
    153 H153       -4.1755  -18.4254  -42.6014 H         1 UNK         0.0600 
    154 H154       -2.1352  -18.1623  -44.0793 H         1 UNK         0.3000 
    155 H155       -0.5646  -18.4534  -47.2932 H         1 UNK         0.0600 
    156 H156       -0.9860  -15.9705  -47.0205 H         1 UNK         0.0600 
    157 H157       -2.2984  -16.3367  -45.9100 H         1 UNK         0.0600 
    158 H158       -2.3909  -16.8591  -47.5849 H         1 UNK         0.0600 
    159 H159        0.1358  -16.8706  -45.0540 H         1 UNK         0.3000 
    160 H160        2.2732  -19.2456  -43.4230 H         1 UNK         0.0600 
    161 H161        2.8052  -16.7633  -45.1354 H         1 UNK         0.0600 
    162 H162        3.6703  -18.2868  -45.1837 H         1 UNK         0.0600 
    163 H163        3.8037  -17.2602  -43.7640 H         1 UNK         0.0600 
    164 H164        1.4965  -16.5168  -42.9086 H         1 UNK         0.3000 
    165 H165       -1.2725  -17.2886  -40.7940 H         1 UNK         0.0600 
    166 H166        0.0604  -15.9412  -39.1948 H         1 UNK         0.0600 
    167 H167        0.7369  -17.5560  -39.3326 H         1 UNK         0.0600 
    168 H168        1.5239  -16.2069  -40.1429 H         1 UNK         0.0600 
    169 H169       -0.0076  -14.8291  -41.5305 H         1 UNK         0.3000 
    170 H170       -1.7931  -14.2530  -44.5439 H         1 UNK         0.0600 
    171 H171       -2.5334  -12.2136  -43.3518 H         1 UNK         0.0600 
    172 H172       -2.1429  -12.9451  -41.7953 H         1 UNK         0.0600 
    173 H173       -3.4409  -13.6065  -42.7836 H         1 UNK         0.0600 
    174 H174       -0.0101  -12.6045  -43.0314 H         1 UNK         0.3000 
    175 H175        2.4694  -13.1624  -42.9888 H         1 UNK         0.0600 
    176 H176        3.6560  -14.7701  -44.3547 H         1 UNK         0.0600 
    177 H177        3.2486  -13.9183  -45.8396 H         1 UNK         0.0600 
    178 H178        4.3412  -13.1895  -44.6667 H         1 UNK         0.0600 
    179 H179        2.5567  -11.5151  -45.3720 H         1 UNK         0.3000 
    180 H180        0.7517   -8.8384  -44.1756 H         1 UNK         0.0600 
    181 H181        3.7348   -8.9389  -43.4758 H         1 UNK         0.0600 
    182 H182        2.4343   -8.5216  -42.3667 H         1 UNK         0.0600 
    183 H183        2.7831   -7.4756  -43.7326 H         1 UNK         0.0600 
    184 H184        3.1229   -9.0025  -45.8454 H         1 UNK         0.3000 
    185 H185        1.4081   -8.5502  -48.6444 H         1 UNK         0.0600 
    186 H186        3.6159   -7.9636  -47.7095 H         1 UNK         0.0600 
    187 H187        4.0944   -9.6576  -47.6426 H         1 UNK         0.0600 
    188 H188        3.8204   -8.8740  -49.1921 H         1 UNK         0.0600 
    189 H189        0.9866  -10.5012  -49.5812 H         1 UNK         0.3000 
    190 H190       -2.3324  -21.9388  -46.8273 H         1 UNK         0.3000 
    191 H191       -3.8405  -23.3261  -48.8230 H         1 UNK         0.0600 
    192 H192       -4.5836  -21.1539  -47.9544 H         1 UNK         0.0600 
    193 H193       -5.8028  -22.3674  -47.5831 H         1 UNK         0.0600 
    194 H194       -4.7226  -21.7975  -46.3228 H         1 UNK         0.0600 
    195 H195       -3.5119  -23.8211  -45.2613 H         1 UNK         0.3000 
    196 H196       -5.1706  -26.0931  -45.0566 H         1 UNK         0.0600 
    197 H197       -4.0024  -26.4260  -42.8716 H         1 UNK         0.0600 
    198 H198       -4.4517  -24.7442  -43.1094 H         1 UNK         0.0600 
    199 H199       -2.7789  -25.2502  -43.3361 H         1 UNK         0.0600 
    200 H200       -1.7192  -25.8518  -45.8708 H         1 UNK         0.3000 
    201 H201       -1.1912  -28.6742  -46.0280 H         1 UNK         0.0600 
    202 H202        0.8949  -27.9001  -47.1527 H         1 UNK         0.0600 
    203 H203        0.5797  -26.9435  -45.7146 H         1 UNK         0.0600 
    204 H204        0.2328  -26.2786  -47.3100 H         1 UNK         0.0600 
    205 H205       -3.1419  -26.7411  -48.0020 H         1 UNK         0.3000 
    206 H206       -4.1559  -26.9007  -49.9258 H         1 UNK         0.0600 
    207 H207       -4.6040  -29.2756  -49.2541 H         1 UNK         0.0600 
    208 H208       -4.5504  -29.0622  -50.9954 H         1 UNK         0.0600 
    209 H209       -3.1849  -29.7914  -50.1657 H         1 UNK         0.0600 
    210 H210       -1.2530  -26.1097  -49.7885 H         1 UNK         0.3000 
    211 H211       -0.2539  -26.6394  -52.5177 H         1 UNK         0.0600 
    212 H212        0.8895  -25.1630  -50.1015 H         1 UNK         0.0600 
    213 H213        1.6920  -25.2414  -51.6679 H         1 UNK         0.0600 
    214 H214        1.4006  -26.7131  -50.7510 H         1 UNK         0.0600 
    215 H215       -1.3789  -23.8916  -50.4976 H         1 UNK         0.3000 
    216 H216       -1.6809  -22.1640  -52.9138 H         1 UNK         0.0600 
    217 H217       -2.0039  -20.3604  -51.3173 H         1 UNK         0.0600 
    218 H218       -0.5616  -21.2344  -50.8714 H         1 UNK         0.0600 
    219 H219       -2.0551  -21.4717  -49.9552 H         1 UNK         0.0600 
    220 H220       -3.4599  -24.4053  -51.2343 H         1 UNK         0.3000 
    221 H221       -5.5166  -25.1509  -51.1297 H         1 UNK         0.0600 
    222 H222       -6.1285  -23.2579  -53.4592 H         1 UNK         0.0600 
    223 H223       -5.5167  -24.9053  -53.5837 H         1 UNK         0.0600 
    224 H224       -7.1254  -24.6099  -52.9431 H         1 UNK         0.0600 
    225 H225       -5.8777  -21.6425  -51.5994 H         1 UNK         0.3000 
    226 H226       -7.2447  -21.2202  -49.0678 H         1 UNK         0.0600 
    227 H227       -9.1685  -22.0407  -50.4460 H         1 UNK         0.0600 
    228 H228       -8.8190  -20.8242  -51.6727 H         1 UNK         0.0600 
    229 H229       -9.3544  -20.3392  -50.0665 H         1 UNK         0.0600 
    230 H230       -4.7979  -20.4286  -50.2063 H         1 UNK         0.3000 
    231 H231       -3.4189  -18.7483  -50.6285 H         1 UNK         0.0600 
    232 H232       -5.5710  -16.8010  -49.6717 H         1 UNK         0.0600 
    233 H233       -3.8422  -16.5072  -49.7754 H         1 UNK         0.0600 
    234 H234       -4.4623  -17.6715  -48.6137 H         1 UNK         0.0600 
    235 H235       -4.9323  -19.8306  -52.7445 H         1 UNK         0.3000 
    236 H236       -6.2164  -17.9058  -54.3990 H         1 UNK         0.0600 
    237 H237       -5.0956  -20.6881  -55.0422 H         1 UNK         0.0600 
    238 H238       -6.7204  -20.3374  -54.4552 H         1 UNK         0.0600 
    239 H239       -6.2245  -19.7873  -56.0487 H         1 UNK         0.0600 
    240 H240       -2.8757  -18.8862  -54.1236 H         1 UNK         0.3000 
    241 H241       -1.9790  -17.5662  -56.5638 H         1 UNK         0.0600 
    242 H242       -1.9836  -14.7664  -53.7155 H         1 UNK         0.3800 
    243 H243       -3.0099  -16.1725  -53.6190 H         1 UNK         0.3800 
    244 H244        0.3060  -18.2253  -55.7820 H         1 UNK         0.0800 
    245 H245       -0.7935  -19.5541  -55.9616 H         1 UNK         0.0800 
    246 H246        2.0411  -18.7022  -53.8975 H         1 UNK         0.0800 
    247 H247        1.1145  -17.2734  -53.4947 H         1 UNK         0.0800 
@<TRIPOS>BOND
     1    1    2 1    
     2    1  127 1    
     3    1  128 1    
     4    1  129 1    
     5    2    3 2    
     6    2    4 am   BACKBONE|DICT|INTERRES
     7    4    5 1    
     8    4  130 1    
     9    5    6 1    
    10    5   65 1    
    11    5  131 1    
    12    6    7 1    
    13    6  132 1    
    14    6  133 1    
    15    7    8 1    
    16    8    9 1    
    17    8  134 1    
    18    8  135 1    
    19    9   10 ar   
    20    9   14 ar   
    21   10   11 ar   
    22   10  136 1    
    23   11   12 ar   
    24   11  126 1    
    25   12   13 ar   
    26   12  137 1    
    27   13   14 ar   
    28   13   15 1    
    29   14  138 1    
    30   15   16 1    
    31   15  139 1    
    32   15  140 1    
    33   16   17 1    
    34   17   18 1    
    35   17  141 1    
    36   17  142 1    
    37   18   19 1    
    38   18   67 1    
    39   18  143 1    
    40   19   20 am   BACKBONE|DICT|INTERRES
    41   19  144 1    
    42   20   21 2    
    43   20   22 1    
    44   22   23 1    
    45   22   24 1    
    46   22  145 1    
    47   23  146 1    
    48   23  147 1    
    49   23  148 1    
    50   24   25 am   BACKBONE|DICT|INTERRES
    51   24  149 1    
    52   25   26 2    
    53   25   27 1    
    54   27   28 1    
    55   27   29 1    
    56   27  150 1    
    57   28  151 1    
    58   28  152 1    
    59   28  153 1    
    60   29   30 am   BACKBONE|DICT|INTERRES
    61   29  154 1    
    62   30   31 2    
    63   30   32 1    
    64   32   33 1    
    65   32   34 1    
    66   32  155 1    
    67   33  156 1    
    68   33  157 1    
    69   33  158 1    
    70   34   35 am   BACKBONE|DICT|INTERRES
    71   34  159 1    
    72   35   36 2    
    73   35   37 1    
    74   37   38 1    
    75   37   39 1    
    76   37  160 1    
    77   38  161 1    
    78   38  162 1    
    79   38  163 1    
    80   39   40 am   BACKBONE|DICT|INTERRES
    81   39  164 1    
    82   40   41 2    
    83   40   42 1    
    84   42   43 1    
    85   42   44 1    
    86   42  165 1    
    87   43  166 1    
    88   43  167 1    
    89   43  168 1    
    90   44   45 am   BACKBONE|DICT|INTERRES
    91   44  169 1    
    92   45   46 2    
    93   45   47 1    
    94   47   48 1    
    95   47   49 1    
    96   47  170 1    
    97   48  171 1    
    98   48  172 1    
    99   48  173 1    
   100   49   50 am   BACKBONE|DICT|INTERRES
   101   49  174 1    
   102   50   51 2    
   103   50   52 1    
   104   52   53 1    
   105   52   54 1    
   106   52  175 1    
   107   53  176 1    
   108   53  177 1    
   109   53  178 1    
   110   54   55 am   BACKBONE|DICT|INTERRES
   111   54  179 1    
   112   55   56 2    
   113   55   57 1    
   114   57   58 1    
   115   57   59 1    
   116   57  180 1    
   117   58  181 1    
   118   58  182 1    
   119   58  183 1    
   120   59   60 am   BACKBONE|DICT|INTERRES
   121   59  184 1    
   122   60   61 2    
   123   60   62 1    
   124   62   63 1    
   125   62   64 1    
   126   62  185 1    
   127   63  186 1    
   128   63  187 1    
   129   63  188 1    
   130   64   65 am   BACKBONE|DICT|INTERRES
   131   64  189 1    
   132   65   66 2    
   133   67   68 2    
   134   67   69 am   BACKBONE|DICT|INTERRES
   135   69   70 1    
   136   69  190 1    
   137   70   71 1    
   138   70   72 1    
   139   70  191 1    
   140   71  192 1    
   141   71  193 1    
   142   71  194 1    
   143   72   73 2    
   144   72   74 am   BACKBONE|DICT|INTERRES
   145   74   75 1    
   146   74  195 1    
   147   75   76 1    
   148   75   77 1    
   149   75  196 1    
   150   76  197 1    
   151   76  198 1    
   152   76  199 1    
   153   77   78 2    
   154   77   79 am   BACKBONE|DICT|INTERRES
   155   79   80 1    
   156   79  200 1    
   157   80   81 1    
   158   80   82 1    
   159   80  201 1    
   160   81  202 1    
   161   81  203 1    
   162   81  204 1    
   163   82   83 2    
   164   82   84 am   BACKBONE|DICT|INTERRES
   165   84   85 1    
   166   84  205 1    
   167   85   86 1    
   168   85   87 1    
   169   85  206 1    
   170   86  207 1    
   171   86  208 1    
   172   86  209 1    
   173   87   88 2    
   174   87   89 am   BACKBONE|DICT|INTERRES
   175   89   90 1    
   176   89  210 1    
   177   90   91 1    
   178   90   92 1    
   179   90  211 1    
   180   91  212 1    
   181   91  213 1    
   182   91  214 1    
   183   92   93 2    
   184   92   94 am   BACKBONE|DICT|INTERRES
   185   94   95 1    
   186   94  215 1    
   187   95   96 1    
   188   95   97 1    
   189   95  216 1    
   190   96  217 1    
   191   96  218 1    
   192   96  219 1    
   193   97   98 2    
   194   97   99 am   BACKBONE|DICT|INTERRES
   195   99  100 1    
   196   99  220 1    
   197  100  101 1    
   198  100  102 1    
   199  100  221 1    
   200  101  222 1    
   201  101  223 1    
   202  101  224 1    
   203  102  103 2    
   204  102  104 am   BACKBONE|DICT|INTERRES
   205  104  105 1    
   206  104  225 1    
   207  105  106 1    
   208  105  107 1    
   209  105  226 1    
   210  106  227 1    
   211  106  228 1    
   212  106  229 1    
   213  107  108 2    
   214  107  109 am   BACKBONE|DICT|INTERRES
   215  109  110 1    
   216  109  230 1    
   217  110  111 1    
   218  110  112 1    
   219  110  231 1    
   220  111  232 1    
   221  111  233 1    
   222  111  234 1    
   223  112  113 2    
   224  112  114 am   BACKBONE|DICT|INTERRES
   225  114  115 1    
   226  114  235 1    
   227  115  116 1    
   228  115  117 1    
   229  115  236 1    
   230  116  237 1    
   231  116  238 1    
   232  116  239 1    
   233  117  118 2    
   234  117  119 am   BACKBONE|DICT|INTERRES
   235  119  120 1    
   236  119  240 1    
   237  120  121 1    
   238  120  124 1    
   239  120  241 1    
   240  121  122 am   BACKBONE|DICT|INTERRES
   241  121  123 2    
   242  122  242 1    
   243  122  243 1    
   244  124  125 1    
   245  124  244 1    
   246  124  245 1    
   247  125  126 1    
   248  126  246 1    
   249  126  247 1    
@<TRIPOS>SUBSTRUCTURE
     1 UNK         1 GROUP             0       ****    0 ROOT    
