@<TRIPOS>MOLECULE
3R540
247   249    1
SMALL
USER_CHARGES


@<TRIPOS>ATOM
      1 CA         -5.1760  -14.1990  -48.2863 C.3       0 UNK        -0.1800 
      2 C          -4.0556  -13.2442  -47.9008 C.2       0 UNK         0.5000 
      3 O          -3.3199  -13.5294  -46.9570 O.2       0 UNK        -0.5000 
      4 N          -3.9268  -12.1293  -48.6376 N.am      1 UNK        -0.5000 
      5 CA         -2.9242  -11.0599  -48.5022 C.3       1 UNK         0.1400 
      6 C6         -1.6063  -11.3428  -49.2912 C.3       23 UNK        -0.0398 
      7 S7         -0.5828  -12.7544  -48.7298 S.3       23 UNK        -0.2404 
      8 C8         -1.0790  -14.0444  -49.9112 C.3       23 UNK        -0.0205 
      9 C9         -0.5363  -15.4088  -49.5163 C.ar      23 UNK        -0.0193 
     10 C10         0.4920  -16.0032  -50.2521 C.ar      23 UNK        -0.1150 
     11 C11         0.9529  -17.2855  -49.9297 C.ar      23 UNK        -0.0193 
     12 C12         0.3841  -17.9648  -48.8486 C.ar      23 UNK        -0.1150 
     13 C13        -0.6309  -17.3719  -48.0936 C.ar      23 UNK        -0.0193 
     14 C14        -1.0858  -16.0945  -48.4303 C.ar      23 UNK        -0.1150 
     15 C15        -1.2390  -18.1120  -46.9169 C.3       23 UNK        -0.0205 
     16 S16        -2.7969  -18.9123  -47.3884 S.3       23 UNK        -0.2404 
     17 C17        -3.2337  -19.7577  -45.8351 C.3       23 UNK        -0.0398 
     18 CA         -3.1019  -21.2875  -45.9904 C.3       11 UNK         0.1400 
     19 N          -1.7148  -21.7505  -46.0755 N.am      11 UNK        -0.5000 
     20 C          -1.3578  -22.9368  -46.5862 C.2       10 UNK         0.5000 
     21 O          -2.1552  -23.7089  -47.1200 O.2       10 UNK        -0.5000 
     22 CA          0.1181  -23.3478  -46.4410 C.3       10 UNK         0.1400 
     23 CB          0.9459  -22.8666  -47.6418 C.3       10 UNK        -0.1800 
     24 N           0.7083  -22.8364  -45.2035 N.am      10 UNK        -0.5000 
     25 C           0.4342  -23.3285  -43.9861 C.2       9 UNK         0.5000 
     26 O          -0.3288  -24.2736  -43.7970 O.2       9 UNK        -0.5000 
     27 CA          1.0750  -22.6300  -42.7709 C.3       9 UNK         0.1400 
     28 CB          2.4297  -23.2706  -42.4367 C.3       9 UNK        -0.1800 
     29 N           1.2599  -21.1921  -42.9552 N.am      9 UNK        -0.5000 
     30 C           0.2807  -20.3090  -43.1952 C.2       8 UNK         0.5000 
     31 O          -0.9145  -20.6044  -43.2311 O.2       8 UNK        -0.5000 
     32 CA          0.7175  -18.8671  -43.5122 C.3       8 UNK         0.1400 
     33 CB          0.7228  -18.0286  -42.2269 C.3       8 UNK        -0.1800 
     34 N           2.0288  -18.7671  -44.1653 N.am      8 UNK        -0.5000 
     35 C           2.3891  -19.3848  -45.3032 C.2       7 UNK         0.5000 
     36 O           1.6446  -20.1452  -45.9220 O.2       7 UNK        -0.5000 
     37 CA          3.8215  -19.1676  -45.8317 C.3       7 UNK         0.1400 
     38 CB          3.8011  -18.4339  -47.1781 C.3       7 UNK        -0.1800 
     39 N           4.6932  -18.4496  -44.9005 N.am      7 UNK        -0.5000 
     40 C           5.2138  -18.9872  -43.7876 C.2       6 UNK         0.5000 
     41 O           5.0286  -20.1575  -43.4508 O.2       6 UNK        -0.5000 
     42 CA          6.0619  -18.0704  -42.8827 C.3       6 UNK         0.1400 
     43 CB          7.5591  -18.3194  -43.1200 C.3       6 UNK        -0.1800 
     44 N           5.7886  -16.6405  -43.0468 N.am      6 UNK        -0.5000 
     45 C           4.6228  -16.0367  -42.7789 C.2       5 UNK         0.5000 
     46 O           3.6289  -16.6359  -42.3695 O.2       5 UNK        -0.5000 
     47 CA          4.5398  -14.5149  -43.0196 C.3       5 UNK         0.1400 
     48 CB          5.9149  -13.8275  -43.1790 C.3       5 UNK        -0.1800 
     49 N           3.6742  -14.1794  -44.1537 N.am      5 UNK        -0.5000 
     50 C           3.7799  -14.6166  -45.4185 C.2       4 UNK         0.5000 
     51 O           4.6353  -15.4199  -45.7979 O.2       4 UNK        -0.5000 
     52 CA          2.7616  -14.0209  -46.4173 C.3       4 UNK         0.1400 
     53 CB          2.7103  -14.7445  -47.7774 C.3       4 UNK        -0.1800 
     54 N           1.4104  -13.8724  -45.8666 N.am      4 UNK        -0.5000 
     55 C           0.6319  -14.8304  -45.3404 C.2       3 UNK         0.5000 
     56 O           0.9799  -16.0040  -45.2300 O.2       3 UNK        -0.5000 
     57 CA         -0.7855  -14.4309  -44.8753 C.3       3 UNK         0.1400 
     58 CB         -1.0456  -14.8291  -43.4099 C.3       3 UNK        -0.1800 
     59 N          -1.1498  -13.0289  -45.1154 N.am      3 UNK        -0.5000 
     60 C          -0.6591  -11.9167  -44.5454 C.2       2 UNK         0.5000 
     61 O           0.2203  -11.9261  -43.6833 O.2       2 UNK        -0.5000 
     62 CA         -1.2022  -10.5740  -45.0806 C.3       2 UNK         0.1400 
     63 CB         -0.1938   -9.4227  -44.9153 C.3       2 UNK        -0.1800 
     64 N          -1.5353  -10.7115  -46.4979 N.am      2 UNK        -0.5000 
     65 C          -2.7511  -10.5848  -47.0370 C.2       1 UNK         0.5000 
     66 O          -3.7278  -10.1435  -46.4273 O.2       1 UNK        -0.5000 
     67 C          -3.8761  -22.0445  -44.8972 C.2       11 UNK         0.5000 
     68 O          -5.0278  -22.4108  -45.1281 O.2       11 UNK        -0.5000 
     69 N          -3.2272  -22.3168  -43.7577 N.am      12 UNK        -0.5000 
     70 CA         -3.7855  -23.1317  -42.6781 C.3       12 UNK         0.1400 
     71 CB         -2.8597  -23.0663  -41.4540 C.3       12 UNK        -0.1800 
     72 C          -4.0357  -24.5930  -43.1025 C.2       12 UNK         0.5000 
     73 O          -5.0774  -25.1535  -42.7595 O.2       12 UNK        -0.5000 
     74 N          -3.0829  -25.1769  -43.8416 N.am      13 UNK        -0.5000 
     75 CA         -3.1328  -26.5622  -44.3008 C.3       13 UNK         0.1400 
     76 CB         -1.7104  -27.0462  -44.6251 C.3       13 UNK        -0.1800 
     77 C          -4.0558  -26.7781  -45.5121 C.2       13 UNK         0.5000 
     78 O          -4.8470  -27.7224  -45.4955 O.2       13 UNK        -0.5000 
     79 N          -3.9063  -25.9485  -46.5548 N.am      14 UNK        -0.5000 
     80 CA         -4.4324  -26.2333  -47.8939 C.3       14 UNK         0.1400 
     81 CB         -3.2584  -26.6886  -48.7811 C.3       14 UNK        -0.1800 
     82 C          -5.1797  -25.0566  -48.5444 C.2       14 UNK         0.5000 
     83 O          -5.6115  -25.2023  -49.6887 O.2       14 UNK        -0.5000 
     84 N          -5.3174  -23.9203  -47.8412 N.am      15 UNK        -0.5000 
     85 CA         -5.9213  -22.6689  -48.3273 C.3       15 UNK         0.1400 
     86 CB         -7.4388  -22.8400  -48.5498 C.3       15 UNK        -0.1800 
     87 C          -5.1929  -22.1044  -49.5667 C.2       15 UNK         0.5000 
     88 O          -5.8431  -21.6368  -50.5009 O.2       15 UNK        -0.5000 
     89 N          -3.8533  -22.1869  -49.5565 N.am      16 UNK        -0.5000 
     90 CA         -2.9455  -21.9670  -50.6872 C.3       16 UNK         0.1400 
     91 CB         -1.4980  -22.0267  -50.1825 C.3       16 UNK        -0.1800 
     92 C          -3.1554  -20.6954  -51.5297 C.2       16 UNK         0.5000 
     93 O          -2.9334  -20.7471  -52.7408 O.2       16 UNK        -0.5000 
     94 N          -3.5756  -19.5929  -50.8981 N.am      17 UNK        -0.5000 
     95 CA         -3.8808  -18.3308  -51.5749 C.3       17 UNK         0.1400 
     96 CB         -3.9475  -17.2038  -50.5362 C.3       17 UNK        -0.1800 
     97 C          -5.1888  -18.3819  -52.3868 C.2       17 UNK         0.5000 
     98 O          -5.2623  -17.7757  -53.4557 O.2       17 UNK        -0.5000 
     99 N          -6.1925  -19.1027  -51.8703 N.am      18 UNK        -0.5000 
    100 CA        -7.5009  -19.2822  -52.5012 C.3       18 UNK         0.1400 
    101 CB        -8.5584  -19.5242  -51.4129 C.3       18 UNK        -0.1800 
    102 C         -7.4835  -20.4445  -53.5069 C.2       18 UNK         0.5000 
    103 O         -8.1062  -20.3488  -54.5648 O.2       18 UNK        -0.5000 
    104 N         -6.7468  -21.5104  -53.1667 N.am      19 UNK        -0.5000 
    105 CA        -6.5283  -22.6943  -53.9984 C.3       19 UNK         0.1400 
    106 CB        -5.9684  -23.8168  -53.1100 C.3       19 UNK        -0.1800 
    107 C         -5.5870  -22.4387  -55.1928 C.2       19 UNK         0.5000 
    108 O         -5.5449  -23.2612  -56.1081 O.2       19 UNK        -0.5000 
    109 N         -4.8431  -21.3223  -55.1497 N.am      20 UNK        -0.5000 
    110 CA        -3.8209  -20.8891  -56.1078 C.3       20 UNK         0.1400 
    111 CB        -4.4355  -20.6083  -57.4949 C.3       20 UNK        -0.1800 
    112 C         -2.6097  -21.8440  -56.1558 C.2       20 UNK         0.5000 
    113 O         -1.9960  -22.0217  -57.2097 O.2       20 UNK        -0.5000 
    114 N         -2.2806  -22.4310  -54.9971 N.am      21 UNK        -0.5000 
    115 CA        -1.0658  -23.2147  -54.7795 C.3       21 UNK         0.1400 
    116 CB        -1.2687  -24.1618  -53.5879 C.3       21 UNK        -0.1800 
    117 C          0.1469  -22.2941  -54.5530 C.2       21 UNK         0.5000 
    118 O          1.2594  -22.6533  -54.9401 O.2       21 UNK        -0.5000 
    119 N         -0.0945  -21.1130  -53.9649 N.am      22 UNK        -0.5000 
    120 CA         0.8565  -19.9969  -53.9448 C.3       22 UNK         0.1400 
    121 C          0.9293  -19.3322  -55.3498 C.2       22 UNK         0.5000 
    122 N          2.1186  -19.1665  -55.9122 N.am      22 UNK        -0.7600 
    123 O         -0.0881  -18.9458  -55.9210 O.2       22 UNK        -0.5000 
    124 C124        0.4955  -18.9716  -52.8395 C.3       23 UNK        -0.0398 
    125 S125        1.8684  -17.8072  -52.5225 S.3       23 UNK        -0.2404 
    126 C126        2.0883  -17.9285  -50.7172 C.3       23 UNK        -0.0205 
    127 H127       -5.9343  -14.2219  -47.5038 H         1 UNK         0.0600 
    128 H128       -4.7800  -15.2073  -48.4069 H         1 UNK         0.0600 
    129 H129       -5.6553  -13.9086  -49.2214 H         1 UNK         0.0600 
    130 H130       -4.6026  -11.9709  -49.3714 H         1 UNK         0.3000 
    131 H131       -3.3808  -10.2027  -48.9995 H         1 UNK         0.0600 
    132 H132       -1.8501  -11.4929  -50.3437 H         1 UNK         0.0800 
    133 H133       -0.9755  -10.4524  -49.2797 H         1 UNK         0.0800 
    134 H134       -0.7344  -13.7669  -50.9084 H         1 UNK         0.0800 
    135 H135       -2.1662  -14.0996  -49.9667 H         1 UNK         0.0800 
    136 H136        0.9304  -15.4700  -51.0835 H         1 UNK         0.1150 
    137 H137        0.7360  -18.9522  -48.5840 H         1 UNK         0.1150 
    138 H138       -1.8818  -15.6399  -47.8582 H         1 UNK         0.1150 
    139 H139       -1.4149  -17.4190  -46.0936 H         1 UNK         0.0800 
    140 H140       -0.5449  -18.8666  -46.5487 H         1 UNK         0.0800 
    141 H141       -4.2634  -19.4790  -45.6033 H         1 UNK         0.0800 
    142 H142       -2.6255  -19.3903  -45.0072 H         1 UNK         0.0800 
    143 H143       -3.5853  -21.5490  -46.9297 H         1 UNK         0.0600 
    144 H144       -1.0101  -21.1800  -45.6308 H         1 UNK         0.3000 
    145 H145        0.1624  -24.4386  -46.4164 H         1 UNK         0.0600 
    146 H146        0.6563  -23.3971  -48.5484 H         1 UNK         0.0600 
    147 H147        2.0094  -23.0513  -47.4899 H         1 UNK         0.0600 
    148 H148        0.8145  -21.7999  -47.8273 H         1 UNK         0.0600 
    149 H149        1.2835  -22.0046  -45.2901 H         1 UNK         0.3000 
    150 H150        0.4092  -22.7712  -41.9178 H         1 UNK         0.0600 
    151 H151        3.1522  -23.1266  -43.2413 H         1 UNK         0.0600 
    152 H152        2.3253  -24.3446  -42.2758 H         1 UNK         0.0600 
    153 H153        2.8531  -22.8462  -41.5262 H         1 UNK         0.0600 
    154 H154        2.2125  -20.8556  -42.9648 H         1 UNK         0.3000 
    155 H155       -0.0204  -18.4420  -44.1933 H         1 UNK         0.0600 
    156 H156        0.9539  -16.9851  -42.4398 H         1 UNK         0.0600 
    157 H157        1.4613  -18.3935  -41.5121 H         1 UNK         0.0600 
    158 H158       -0.2519  -18.0522  -41.7379 H         1 UNK         0.0600 
    159 H159        2.6890  -18.1316  -43.7340 H         1 UNK         0.3000 
    160 H160        4.2492  -20.1576  -46.0026 H         1 UNK         0.0600 
    161 H161        3.2275  -18.9901  -47.9201 H         1 UNK         0.0600 
    162 H162        4.8069  -18.2991  -47.5756 H         1 UNK         0.0600 
    163 H163        3.3437  -17.4529  -47.0780 H         1 UNK         0.0600 
    164 H164        4.8590  -17.4687  -45.0995 H         1 UNK         0.3000 
    165 H165        5.8309  -18.3349  -41.8488 H         1 UNK         0.0600 
    166 H166        7.8086  -19.3716  -42.9764 H         1 UNK         0.0600 
    167 H167        7.8557  -18.0470  -44.1337 H         1 UNK         0.0600 
    168 H168        8.1707  -17.7447  -42.4240 H         1 UNK         0.0600 
    169 H169        6.5428  -16.0775  -43.4120 H         1 UNK         0.3000 
    170 H170        4.0641  -14.0949  -42.1323 H         1 UNK         0.0600 
    171 H171        5.8011  -12.7450  -43.2376 H         1 UNK         0.0600 
    172 H172        6.4384  -14.1496  -44.0798 H         1 UNK         0.0600 
    173 H173        6.5604  -14.0336  -42.3242 H         1 UNK         0.0600 
    174 H174        2.9025  -13.5622  -43.9421 H         1 UNK         0.3000 
    175 H175        3.1205  -13.0097  -46.6129 H         1 UNK         0.0600 
    176 H176        2.1785  -15.6919  -47.7103 H         1 UNK         0.0600 
    177 H177        3.7065  -14.9438  -48.1731 H         1 UNK         0.0600 
    178 H178        2.1899  -14.1367  -48.5168 H         1 UNK         0.0600 
    179 H179        1.0268  -12.9402  -45.8946 H         1 UNK         0.3000 
    180 H180       -1.4719  -15.0108  -45.4927 H         1 UNK         0.0600 
    181 H181       -1.0068  -15.9118  -43.2934 H         1 UNK         0.0600 
    182 H182       -2.0335  -14.5071  -43.0810 H         1 UNK         0.0600 
    183 H183       -0.3063  -14.3986  -42.7338 H         1 UNK         0.0600 
    184 H184       -1.8715  -12.9208  -45.8251 H         1 UNK         0.3000 
    185 H185       -2.0930  -10.3393  -44.4949 H         1 UNK         0.0600 
    186 H186        0.7421   -9.6300  -45.4355 H         1 UNK         0.0600 
    187 H187       -0.5962   -8.4894  -45.3093 H         1 UNK         0.0600 
    188 H188        0.0422   -9.2538  -43.8639 H         1 UNK         0.0600 
    189 H189       -0.8164  -11.1260  -47.0777 H         1 UNK         0.3000 
    190 H190       -2.3003  -21.9277  -43.6128 H         1 UNK         0.3000 
    191 H191       -4.7472  -22.6974  -42.3968 H         1 UNK         0.0600 
    192 H192       -2.6958  -22.0364  -41.1362 H         1 UNK         0.0600 
    193 H193       -3.2935  -23.6036  -40.6098 H         1 UNK         0.0600 
    194 H194       -1.8872  -23.5126  -41.6595 H         1 UNK         0.0600 
    195 H195       -2.2170  -24.6744  -44.0122 H         1 UNK         0.3000 
    196 H196       -3.5103  -27.1807  -43.4835 H         1 UNK         0.0600 
    197 H197       -1.7165  -28.0829  -44.9642 H         1 UNK         0.0600 
    198 H198       -1.0682  -26.9966  -43.7456 H         1 UNK         0.0600 
    199 H199       -1.2485  -26.4461  -45.4102 H         1 UNK         0.0600 
    200 H200       -3.2332  -25.1889  -46.5029 H         1 UNK         0.3000 
    201 H201       -5.1571  -27.0487  -47.8552 H         1 UNK         0.0600 
    202 H202       -3.5978  -26.9625  -49.7808 H         1 UNK         0.0600 
    203 H203       -2.7617  -27.5627  -48.3599 H         1 UNK         0.0600 
    204 H204       -2.5123  -25.9005  -48.8915 H         1 UNK         0.0600 
    205 H205       -4.9657  -23.8978  -46.8930 H         1 UNK         0.3000 
    206 H206       -5.8013  -21.9234  -47.5430 H         1 UNK         0.0600 
    207 H207       -7.9237  -23.2440  -47.6613 H         1 UNK         0.0600 
    208 H208       -7.9108  -21.8814  -48.7678 H         1 UNK         0.0600 
    209 H209       -7.6569  -23.5065  -49.3848 H         1 UNK         0.0600 
    210 H210       -3.4273  -22.6210  -48.7481 H         1 UNK         0.3000 
    211 H211       -3.1026  -22.8099  -51.3607 H         1 UNK         0.0600 
    212 H212       -1.2752  -23.0134  -49.7786 H         1 UNK         0.0600 
    213 H213       -0.7843  -21.8387  -50.9859 H         1 UNK         0.0600 
    214 H214       -1.3147  -21.2878  -49.4009 H         1 UNK         0.0600 
    215 H215       -3.7085  -19.6240  -49.8975 H         1 UNK         0.3000 
    216 H216       -3.0663  -18.1051  -52.2668 H         1 UNK         0.0600 
    217 H217       -4.7264  -17.3825  -49.7941 H         1 UNK         0.0600 
    218 H218       -4.1523  -16.2421  -51.0085 H         1 UNK         0.0600 
    219 H219       -3.0002  -17.1111  -50.0108 H         1 UNK         0.0600 
    220 H220       -6.0176  -19.6540  -51.0385 H         1 UNK         0.3000 
    221 H221       -7.7716  -18.3714  -53.0398 H         1 UNK         0.0600 
    222 H222       -8.3492  -20.4276  -50.8391 H         1 UNK         0.0600 
    223 H223       -8.6041  -18.6876  -50.7156 H         1 UNK         0.0600 
    224 H224       -9.5505  -19.6367  -51.8519 H         1 UNK         0.0600 
    225 H225       -6.3213  -21.5236  -52.2415 H         1 UNK         0.3000 
    226 H226       -7.4914  -23.0175  -54.3985 H         1 UNK         0.0600 
    227 H227       -6.6391  -24.0363  -52.2787 H         1 UNK         0.0600 
    228 H228       -5.8399  -24.7398  -53.6765 H         1 UNK         0.0600 
    229 H229       -4.9976  -23.5510  -52.6913 H         1 UNK         0.0600 
    230 H230       -4.9401  -20.7384  -54.3307 H         1 UNK         0.3000 
    231 H231       -3.4361  -19.9425  -55.7248 H         1 UNK         0.0600 
    232 H232       -4.7728  -21.5223  -57.9840 H         1 UNK         0.0600 
    233 H233       -3.7069  -20.1360  -58.1549 H         1 UNK         0.0600 
    234 H234       -5.2880  -19.9333  -57.4184 H         1 UNK         0.0600 
    235 H235       -2.8065  -22.1622  -54.1737 H         1 UNK         0.3000 
    236 H236       -0.8723  -23.8221  -55.6663 H         1 UNK         0.0600 
    237 H237       -1.3682  -23.6168  -52.6513 H         1 UNK         0.0600 
    238 H238       -2.1580  -24.7790  -53.7172 H         1 UNK         0.0600 
    239 H239       -0.4172  -24.8349  -53.4812 H         1 UNK         0.0600 
    240 H240       -1.0482  -20.8917  -53.7058 H         1 UNK         0.3000 
    241 H241        1.8377  -20.4108  -53.7022 H         1 UNK         0.0600 
    242 H242        2.9646  -19.4676  -55.4538 H         1 UNK         0.3800 
    243 H243        2.1760  -18.7280  -56.8181 H         1 UNK         0.3800 
    244 H244       -0.4013  -18.4067  -53.1002 H         1 UNK         0.0800 
    245 H245        0.2593  -19.4957  -51.9123 H         1 UNK         0.0800 
    246 H246        3.0181  -17.4277  -50.4443 H         1 UNK         0.0800 
    247 H247        2.2121  -18.9774  -50.4430 H         1 UNK         0.0800 
@<TRIPOS>BOND
     1    1    2 1    
     2    1  127 1    
     3    1  128 1    
     4    1  129 1    
     5    2    3 2    
     6    2    4 am   BACKBONE|DICT|INTERRES
     7    4    5 1    
     8    4  130 1    
     9    5    6 1    
    10    5   65 1    
    11    5  131 1    
    12    6    7 1    
    13    6  132 1    
    14    6  133 1    
    15    7    8 1    
    16    8    9 1    
    17    8  134 1    
    18    8  135 1    
    19    9   10 ar   
    20    9   14 ar   
    21   10   11 ar   
    22   10  136 1    
    23   11   12 ar   
    24   11  126 1    
    25   12   13 ar   
    26   12  137 1    
    27   13   14 ar   
    28   13   15 1    
    29   14  138 1    
    30   15   16 1    
    31   15  139 1    
    32   15  140 1    
    33   16   17 1    
    34   17   18 1    
    35   17  141 1    
    36   17  142 1    
    37   18   19 1    
    38   18   67 1    
    39   18  143 1    
    40   19   20 am   BACKBONE|DICT|INTERRES
    41   19  144 1    
    42   20   21 2    
    43   20   22 1    
    44   22   23 1    
    45   22   24 1    
    46   22  145 1    
    47   23  146 1    
    48   23  147 1    
    49   23  148 1    
    50   24   25 am   BACKBONE|DICT|INTERRES
    51   24  149 1    
    52   25   26 2    
    53   25   27 1    
    54   27   28 1    
    55   27   29 1    
    56   27  150 1    
    57   28  151 1    
    58   28  152 1    
    59   28  153 1    
    60   29   30 am   BACKBONE|DICT|INTERRES
    61   29  154 1    
    62   30   31 2    
    63   30   32 1    
    64   32   33 1    
    65   32   34 1    
    66   32  155 1    
    67   33  156 1    
    68   33  157 1    
    69   33  158 1    
    70   34   35 am   BACKBONE|DICT|INTERRES
    71   34  159 1    
    72   35   36 2    
    73   35   37 1    
    74   37   38 1    
    75   37   39 1    
    76   37  160 1    
    77   38  161 1    
    78   38  162 1    
    79   38  163 1    
    80   39   40 am   BACKBONE|DICT|INTERRES
    81   39  164 1    
    82   40   41 2    
    83   40   42 1    
    84   42   43 1    
    85   42   44 1    
    86   42  165 1    
    87   43  166 1    
    88   43  167 1    
    89   43  168 1    
    90   44   45 am   BACKBONE|DICT|INTERRES
    91   44  169 1    
    92   45   46 2    
    93   45   47 1    
    94   47   48 1    
    95   47   49 1    
    96   47  170 1    
    97   48  171 1    
    98   48  172 1    
    99   48  173 1    
   100   49   50 am   BACKBONE|DICT|INTERRES
   101   49  174 1    
   102   50   51 2    
   103   50   52 1    
   104   52   53 1    
   105   52   54 1    
   106   52  175 1    
   107   53  176 1    
   108   53  177 1    
   109   53  178 1    
   110   54   55 am   BACKBONE|DICT|INTERRES
   111   54  179 1    
   112   55   56 2    
   113   55   57 1    
   114   57   58 1    
   115   57   59 1    
   116   57  180 1    
   117   58  181 1    
   118   58  182 1    
   119   58  183 1    
   120   59   60 am   BACKBONE|DICT|INTERRES
   121   59  184 1    
   122   60   61 2    
   123   60   62 1    
   124   62   63 1    
   125   62   64 1    
   126   62  185 1    
   127   63  186 1    
   128   63  187 1    
   129   63  188 1    
   130   64   65 am   BACKBONE|DICT|INTERRES
   131   64  189 1    
   132   65   66 2    
   133   67   68 2    
   134   67   69 am   BACKBONE|DICT|INTERRES
   135   69   70 1    
   136   69  190 1    
   137   70   71 1    
   138   70   72 1    
   139   70  191 1    
   140   71  192 1    
   141   71  193 1    
   142   71  194 1    
   143   72   73 2    
   144   72   74 am   BACKBONE|DICT|INTERRES
   145   74   75 1    
   146   74  195 1    
   147   75   76 1    
   148   75   77 1    
   149   75  196 1    
   150   76  197 1    
   151   76  198 1    
   152   76  199 1    
   153   77   78 2    
   154   77   79 am   BACKBONE|DICT|INTERRES
   155   79   80 1    
   156   79  200 1    
   157   80   81 1    
   158   80   82 1    
   159   80  201 1    
   160   81  202 1    
   161   81  203 1    
   162   81  204 1    
   163   82   83 2    
   164   82   84 am   BACKBONE|DICT|INTERRES
   165   84   85 1    
   166   84  205 1    
   167   85   86 1    
   168   85   87 1    
   169   85  206 1    
   170   86  207 1    
   171   86  208 1    
   172   86  209 1    
   173   87   88 2    
   174   87   89 am   BACKBONE|DICT|INTERRES
   175   89   90 1    
   176   89  210 1    
   177   90   91 1    
   178   90   92 1    
   179   90  211 1    
   180   91  212 1    
   181   91  213 1    
   182   91  214 1    
   183   92   93 2    
   184   92   94 am   BACKBONE|DICT|INTERRES
   185   94   95 1    
   186   94  215 1    
   187   95   96 1    
   188   95   97 1    
   189   95  216 1    
   190   96  217 1    
   191   96  218 1    
   192   96  219 1    
   193   97   98 2    
   194   97   99 am   BACKBONE|DICT|INTERRES
   195   99  100 1    
   196   99  220 1    
   197  100  101 1    
   198  100  102 1    
   199  100  221 1    
   200  101  222 1    
   201  101  223 1    
   202  101  224 1    
   203  102  103 2    
   204  102  104 am   BACKBONE|DICT|INTERRES
   205  104  105 1    
   206  104  225 1    
   207  105  106 1    
   208  105  107 1    
   209  105  226 1    
   210  106  227 1    
   211  106  228 1    
   212  106  229 1    
   213  107  108 2    
   214  107  109 am   BACKBONE|DICT|INTERRES
   215  109  110 1    
   216  109  230 1    
   217  110  111 1    
   218  110  112 1    
   219  110  231 1    
   220  111  232 1    
   221  111  233 1    
   222  111  234 1    
   223  112  113 2    
   224  112  114 am   BACKBONE|DICT|INTERRES
   225  114  115 1    
   226  114  235 1    
   227  115  116 1    
   228  115  117 1    
   229  115  236 1    
   230  116  237 1    
   231  116  238 1    
   232  116  239 1    
   233  117  118 2    
   234  117  119 am   BACKBONE|DICT|INTERRES
   235  119  120 1    
   236  119  240 1    
   237  120  121 1    
   238  120  124 1    
   239  120  241 1    
   240  121  122 am   BACKBONE|DICT|INTERRES
   241  121  123 2    
   242  122  242 1    
   243  122  243 1    
   244  124  125 1    
   245  124  244 1    
   246  124  245 1    
   247  125  126 1    
   248  126  246 1    
   249  126  247 1    
@<TRIPOS>SUBSTRUCTURE
     1 UNK         1 GROUP             0       ****    0 ROOT    
