@<TRIPOS>MOLECULE
3R540
247   249    1
SMALL
USER_CHARGES


@<TRIPOS>ATOM
      1 CA         -7.8706  -13.5638  -51.4656 C.3       0 UNK        -0.1800 
      2 C          -6.3850  -13.2364  -51.5210 C.2       0 UNK         0.5000 
      3 O          -6.0039  -12.2089  -52.0824 O.2       0 UNK        -0.5000 
      4 N          -5.5475  -14.1092  -50.9502 N.am      1 UNK        -0.5000 
      5 CA         -4.0979  -13.9316  -50.8409 C.3       1 UNK         0.1400 
      6 C6         -3.3828  -15.2861  -50.5884 C.3       23 UNK        -0.0398 
      7 S7         -3.8803  -16.1422  -49.0468 S.3       23 UNK        -0.2404 
      8 C8         -3.2513  -17.8401  -49.3060 C.3       23 UNK        -0.0205 
      9 C9         -1.7402  -18.0516  -49.1614 C.ar      23 UNK        -0.0193 
     10 C10        -0.8333  -17.0052  -48.9494 C.ar      23 UNK        -0.1150 
     11 C11         0.5400  -17.2500  -48.8700 C.ar      23 UNK        -0.0193 
     12 C12         1.0113  -18.5604  -48.9613 C.ar      23 UNK        -0.1150 
     13 C13         0.1206  -19.6241  -49.1200 C.ar      23 UNK        -0.0193 
     14 C14        -1.2475  -19.3590  -49.2382 C.ar      23 UNK        -0.1150 
     15 C15         0.6347  -21.0553  -49.1756 C.3       23 UNK        -0.0205 
     16 S16         1.5266  -21.5171  -47.6556 S.3       23 UNK        -0.2404 
     17 C17         1.4895  -23.3364  -47.7503 C.3       23 UNK        -0.0398 
     18 CA          0.4335  -24.0077  -46.8377 C.3       11 UNK         0.1400 
     19 N           0.5853  -23.6850  -45.4156 N.am      11 UNK        -0.5000 
     20 C           0.0291  -24.4106  -44.4342 C.2       10 UNK         0.5000 
     21 O          -0.6577  -25.4139  -44.6320 O.2       10 UNK        -0.5000 
     22 CA          0.2372  -23.9109  -42.9964 C.3       10 UNK         0.1400 
     23 CB          1.6835  -24.1379  -42.5303 C.3       10 UNK        -0.1800 
     24 N          -0.1169  -22.5011  -42.8501 N.am      10 UNK        -0.5000 
     25 C          -1.3671  -22.0240  -42.9368 C.2       9 UNK         0.5000 
     26 O          -2.3527  -22.7239  -43.1673 O.2       9 UNK        -0.5000 
     27 CA         -1.5467  -20.5053  -42.7601 C.3       9 UNK         0.1400 
     28 CB         -1.7393  -20.1526  -41.2780 C.3       9 UNK        -0.1800 
     29 N          -0.4318  -19.7287  -43.3003 N.am      9 UNK        -0.5000 
     30 C          -0.0975  -19.6929  -44.5983 C.2       8 UNK         0.5000 
     31 O          -0.6951  -20.3217  -45.4688 O.2       8 UNK        -0.5000 
     32 CA          1.1256  -18.8410  -44.9794 C.3       8 UNK         0.1400 
     33 CB          0.6799  -17.4111  -45.3074 C.3       8 UNK        -0.1800 
     34 N           2.1568  -18.8080  -43.9390 N.am      8 UNK        -0.5000 
     35 C           2.8189  -19.8854  -43.4857 C.2       7 UNK         0.5000 
     36 O           2.6381  -21.0243  -43.9184 O.2       7 UNK        -0.5000 
     37 CA          3.8321  -19.6773  -42.3403 C.3       7 UNK         0.1400 
     38 CB          5.2648  -19.6489  -42.8936 C.3       7 UNK        -0.1800 
     39 N           3.6071  -18.4638  -41.5527 N.am      7 UNK        -0.5000 
     40 C           2.5226  -18.2073  -40.8077 C.2       6 UNK         0.5000 
     41 O           1.5965  -19.0047  -40.6550 O.2       6 UNK        -0.5000 
     42 CA          2.4365  -16.8073  -40.1619 C.3       6 UNK         0.1400 
     43 CB          2.9017  -16.8646  -38.6990 C.3       6 UNK        -0.1800 
     44 N           3.1887  -15.7555  -40.8627 N.am      6 UNK        -0.5000 
     45 C           3.0055  -15.3974  -42.1411 C.2       5 UNK         0.5000 
     46 O           2.2213  -15.9712  -42.8984 O.2       5 UNK        -0.5000 
     47 CA          3.8758  -14.2495  -42.6726 C.3       5 UNK         0.1400 
     48 CB          5.3101  -14.7419  -42.9465 C.3       5 UNK        -0.1800 
     49 N           3.2763  -13.7409  -43.9021 N.am      5 UNK        -0.5000 
     50 C           3.5550  -12.5876  -44.5160 C.2       4 UNK         0.5000 
     51 O           4.3612  -11.7630  -44.0831 O.2       4 UNK        -0.5000 
     52 CA          2.8182  -12.3014  -45.8420 C.3       4 UNK         0.1400 
     53 CB          3.1479  -13.3591  -46.9138 C.3       4 UNK        -0.1800 
     54 N           1.3675  -12.1171  -45.7044 N.am      4 UNK        -0.5000 
     55 C           0.4476  -13.0036  -45.2955 C.2       3 UNK         0.5000 
     56 O           0.6968  -14.1588  -44.9598 O.2       3 UNK        -0.5000 
     57 CA         -1.0131  -12.5178  -45.2854 C.3       3 UNK         0.1400 
     58 CB         -1.2878  -11.6412  -44.0534 C.3       3 UNK        -0.1800 
     59 N          -1.3941  -11.7917  -46.5003 N.am      3 UNK        -0.5000 
     60 C          -1.4311  -12.3410  -47.7216 C.2       2 UNK         0.5000 
     61 O          -1.0865  -13.4997  -47.9617 O.2       2 UNK        -0.5000 
     62 CA         -1.9288  -11.4429  -48.8710 C.3       2 UNK         0.1400 
     63 CB         -0.7604  -10.6501  -49.4760 C.3       2 UNK        -0.1800 
     64 N          -2.5605  -12.2452  -49.9207 N.am      2 UNK        -0.5000 
     65 C          -3.7326  -12.8779  -49.7697 C.2       1 UNK         0.5000 
     66 O          -4.4899  -12.6805  -48.8143 O.2       1 UNK        -0.5000 
     67 C          -1.0102  -23.7839  -47.3291 C.2       11 UNK         0.5000 
     68 O          -1.4979  -24.5864  -48.1245 O.2       11 UNK        -0.5000 
     69 N          -1.6898  -22.7431  -46.8215 N.am      12 UNK        -0.5000 
     70 CA         -3.0933  -22.4697  -47.1239 C.3       12 UNK         0.1400 
     71 CB         -3.5158  -21.1096  -46.5519 C.3       12 UNK        -0.1800 
     72 C          -4.0391  -23.5792  -46.6355 C.2       12 UNK         0.5000 
     73 O          -4.9617  -23.9387  -47.3663 O.2       12 UNK        -0.5000 
     74 N          -3.7825  -24.1245  -45.4391 N.am      13 UNK        -0.5000 
     75 CA         -4.5166  -25.2659  -44.8950 C.3       13 UNK         0.1400 
     76 CB         -4.1831  -25.4343  -43.4050 C.3       13 UNK        -0.1800 
     77 C          -4.2324  -26.5664  -45.6678 C.2       13 UNK         0.5000 
     78 O          -5.1665  -27.3143  -45.9590 O.2       13 UNK        -0.5000 
     79 N          -2.9538  -26.8100  -45.9864 N.am      14 UNK        -0.5000 
     80 CA         -2.4897  -28.0216  -46.6609 C.3       14 UNK         0.1400 
     81 CB         -0.9604  -28.1133  -46.5471 C.3       14 UNK        -0.1800 
     82 C          -2.9230  -28.1180  -48.1349 C.2       14 UNK         0.5000 
     83 O          -3.3291  -29.1955  -48.5721 O.2       14 UNK        -0.5000 
     84 N          -2.8086  -27.0080  -48.8753 N.am      15 UNK        -0.5000 
     85 CA         -2.9720  -26.9614  -50.3303 C.3       15 UNK         0.1400 
     86 CB         -1.6946  -26.3649  -50.9471 C.3       15 UNK        -0.1800 
     87 C          -4.2294  -26.1920  -50.7760 C.2       15 UNK         0.5000 
     88 O          -4.3121  -25.8222  -51.9476 O.2       15 UNK        -0.5000 
     89 N          -5.1795  -25.9563  -49.8570 N.am      16 UNK        -0.5000 
     90 CA         -6.4782  -25.2989  -50.0738 C.3       16 UNK         0.1400 
     91 CB         -7.4063  -26.2052  -50.9087 C.3       16 UNK        -0.1800 
     92 C          -6.3224  -23.8857  -50.6746 C.2       16 UNK         0.5000 
     93 O          -6.7174  -23.6354  -51.8145 O.2       16 UNK        -0.5000 
     94 N          -5.6645  -23.0151  -49.8993 N.am      17 UNK        -0.5000 
     95 CA         -5.2169  -21.6532  -50.2225 C.3       17 UNK         0.1400 
     96 CB         -6.3848  -20.7522  -50.6723 C.3       17 UNK        -0.1800 
     97 C          -4.0384  -21.5949  -51.2159 C.2       17 UNK         0.5000 
     98 O          -3.5859  -20.4949  -51.5321 O.2       17 UNK        -0.5000 
     99 N          -3.5572  -22.7524  -51.6974 N.am      18 UNK        -0.5000 
    100 CA        -2.4523  -22.9245  -52.6502 C.3       18 UNK         0.1400 
    101 CB        -1.1129  -22.5556  -51.9813 C.3       18 UNK        -0.1800 
    102 C         -2.6821  -22.1803  -53.9844 C.2       18 UNK         0.5000 
    103 O         -1.7329  -21.6667  -54.5776 O.2       18 UNK        -0.5000 
    104 N         -3.9565  -22.1043  -54.4017 N.am      19 UNK        -0.5000 
    105 CA        -4.4748  -21.3260  -55.5340 C.3       19 UNK         0.1400 
    106 CB        -3.9521  -21.8863  -56.8737 C.3       19 UNK        -0.1800 
    107 C         -4.2445  -19.8036  -55.3820 C.2       19 UNK         0.5000 
    108 O         -4.0853  -19.1057  -56.3847 O.2       19 UNK        -0.5000 
    109 N         -4.2389  -19.3267  -54.1263 N.am      20 UNK        -0.5000 
    110 CA        -3.9475  -17.9631  -53.6798 C.3       20 UNK         0.1400 
    111 CB        -5.0045  -16.9599  -54.1869 C.3       20 UNK        -0.1800 
    112 C         -2.5007  -17.5617  -54.0219 C.2       20 UNK         0.5000 
    113 O         -2.2806  -16.6154  -54.7798 O.2       20 UNK        -0.5000 
    114 N         -1.5390  -18.3113  -53.4631 N.am      21 UNK        -0.5000 
    115 CA        -0.1022  -18.2085  -53.7511 C.3       21 UNK         0.1400 
    116 CB         0.6611  -19.2492  -52.9202 C.3       21 UNK        -0.1800 
    117 C          0.5072  -16.8056  -53.5522 C.2       21 UNK         0.5000 
    118 O          1.3482  -16.3981  -54.3549 O.2       21 UNK        -0.5000 
    119 N          0.0468  -16.0878  -52.5205 N.am      22 UNK        -0.5000 
    120 CA         0.3830  -14.6754  -52.2638 C.3       22 UNK         0.1400 
    121 C         -0.7384  -13.6979  -52.7300 C.2       22 UNK         0.5000 
    122 N         -1.6499  -14.0850  -53.6130 N.am      22 UNK        -0.7600 
    123 O         -0.8134  -12.5656  -52.2632 O.2       22 UNK        -0.5000 
    124 C124        0.7947  -14.4154  -50.7898 C.3       23 UNK        -0.0398 
    125 S125        2.1779  -15.4567  -50.2127 S.3       23 UNK        -0.2404 
    126 C126        1.5160  -16.1066  -48.6465 C.3       23 UNK        -0.0205 
    127 H127       -8.0593  -14.5058  -50.9500 H         1 UNK         0.0600 
    128 H128       -8.2757  -13.6418  -52.4746 H         1 UNK         0.0600 
    129 H129       -8.4092  -12.7750  -50.9404 H         1 UNK         0.0600 
    130 H130       -5.9198  -14.9096  -50.4596 H         1 UNK         0.3000 
    131 H131       -3.7452  -13.5493  -51.8005 H         1 UNK         0.0600 
    132 H132       -3.5771  -15.9500  -51.4292 H         1 UNK         0.0800 
    133 H133       -2.3049  -15.1384  -50.5783 H         1 UNK         0.0800 
    134 H134       -3.5651  -18.1831  -50.2905 H         1 UNK         0.0800 
    135 H135       -3.7548  -18.4870  -48.5866 H         1 UNK         0.0800 
    136 H136       -1.1825  -15.9924  -48.8314 H         1 UNK         0.1150 
    137 H137        2.0714  -18.7568  -48.8848 H         1 UNK         0.1150 
    138 H138       -1.9373  -20.1779  -49.3823 H         1 UNK         0.1150 
    139 H139       -0.1998  -21.7411  -49.3166 H         1 UNK         0.0800 
    140 H140        1.2918  -21.1749  -50.0380 H         1 UNK         0.0800 
    141 H141        1.3557  -23.6498  -48.7874 H         1 UNK         0.0800 
    142 H142        2.4803  -23.6941  -47.4675 H         1 UNK         0.0800 
    143 H143        0.6106  -25.0815  -46.9283 H         1 UNK         0.0600 
    144 H144        1.1056  -22.8478  -45.1881 H         1 UNK         0.3000 
    145 H145       -0.4194  -24.4918  -42.3450 H         1 UNK         0.0600 
    146 H146        1.8160  -23.8309  -41.4927 H         1 UNK         0.0600 
    147 H147        2.3997  -23.5837  -43.1373 H         1 UNK         0.0600 
    148 H148        1.9502  -25.1936  -42.5932 H         1 UNK         0.0600 
    149 H149        0.6440  -21.8487  -42.7220 H         1 UNK         0.3000 
    150 H150       -2.4496  -20.2135  -43.3001 H         1 UNK         0.0600 
    151 H151       -2.5879  -20.6922  -40.8557 H         1 UNK         0.0600 
    152 H152       -1.9333  -19.0879  -41.1472 H         1 UNK         0.0600 
    153 H153       -0.8595  -20.4083  -40.6860 H         1 UNK         0.0600 
    154 H154        0.1328  -19.2140  -42.6378 H         1 UNK         0.3000 
    155 H155        1.5719  -19.2699  -45.8765 H         1 UNK         0.0600 
    156 H156       -0.0703  -17.4073  -46.0983 H         1 UNK         0.0600 
    157 H157        1.5173  -16.8013  -45.6457 H         1 UNK         0.0600 
    158 H158        0.2361  -16.9193  -44.4413 H         1 UNK         0.0600 
    159 H159        2.3359  -17.9016  -43.5184 H         1 UNK         0.3000 
    160 H160        3.7405  -20.5327  -41.6678 H         1 UNK         0.0600 
    161 H161        5.4229  -18.7961  -43.5551 H         1 UNK         0.0600 
    162 H162        5.4813  -20.5526  -43.4652 H         1 UNK         0.0600 
    163 H163        5.9984  -19.5920  -42.0891 H         1 UNK         0.0600 
    164 H164        4.3102  -17.7438  -41.6240 H         1 UNK         0.3000 
    165 H165        1.3842  -16.5162  -40.1733 H         1 UNK         0.0600 
    166 H166        2.7458  -15.9097  -38.1967 H         1 UNK         0.0600 
    167 H167        2.3446  -17.6179  -38.1402 H         1 UNK         0.0600 
    168 H168        3.9603  -17.1163  -38.6237 H         1 UNK         0.0600 
    169 H169        3.8670  -15.2515  -40.3096 H         1 UNK         0.3000 
    170 H170        3.8910  -13.4517  -41.9276 H         1 UNK         0.0600 
    171 H171        5.3246  -15.5296  -43.7010 H         1 UNK         0.0600 
    172 H172        5.9503  -13.9326  -43.2973 H         1 UNK         0.0600 
    173 H173        5.7699  -15.1433  -42.0427 H         1 UNK         0.0600 
    174 H174        2.5132  -14.3109  -44.2656 H         1 UNK         0.3000 
    175 H175        3.1991  -11.3471  -46.2094 H         1 UNK         0.0600 
    176 H176        2.8222  -14.3562  -46.6182 H         1 UNK         0.0600 
    177 H177        2.6703  -13.1199  -47.8642 H         1 UNK         0.0600 
    178 H178        4.2225  -13.4097  -47.0925 H         1 UNK         0.0600 
    179 H179        1.0344  -11.1940  -45.9424 H         1 UNK         0.3000 
    180 H180       -1.6501  -13.4025  -45.2166 H         1 UNK         0.0600 
    181 H181       -0.7150  -10.7135  -44.0798 H         1 UNK         0.0600 
    182 H182       -1.0210  -12.1657  -43.1348 H         1 UNK         0.0600 
    183 H183       -2.3443  -11.3817  -43.9821 H         1 UNK         0.0600 
    184 H184       -1.6857  -10.8323  -46.3819 H         1 UNK         0.3000 
    185 H185       -2.6657  -10.7385  -48.4794 H         1 UNK         0.0600 
    186 H186        0.0196  -11.3102  -49.8567 H         1 UNK         0.0600 
    187 H187       -1.0955  -10.0194  -50.2997 H         1 UNK         0.0600 
    188 H188       -0.3025   -9.9977  -48.7317 H         1 UNK         0.0600 
    189 H189       -1.9875  -12.4265  -50.7399 H         1 UNK         0.3000 
    190 H190       -1.2161  -22.0779  -46.2159 H         1 UNK         0.3000 
    191 H191       -3.1754  -22.4221  -48.2102 H         1 UNK         0.0600 
    192 H192       -2.9173  -20.3014  -46.9711 H         1 UNK         0.0600 
    193 H193       -3.4054  -21.0803  -45.4677 H         1 UNK         0.0600 
    194 H194       -4.5597  -20.8925  -46.7811 H         1 UNK         0.0600 
    195 H195       -3.0355  -23.7463  -44.8665 H         1 UNK         0.3000 
    196 H196       -5.5849  -25.0552  -44.9788 H         1 UNK         0.0600 
    197 H197       -4.4731  -24.5512  -42.8357 H         1 UNK         0.0600 
    198 H198       -3.1165  -25.5981  -43.2459 H         1 UNK         0.0600 
    199 H199       -4.7150  -26.2854  -42.9780 H         1 UNK         0.0600 
    200 H200       -2.2384  -26.1616  -45.6730 H         1 UNK         0.3000 
    201 H201       -2.9148  -28.8797  -46.1359 H         1 UNK         0.0600 
    202 H202       -0.6428  -28.1330  -45.5044 H         1 UNK         0.0600 
    203 H203       -0.4705  -27.2676  -47.0303 H         1 UNK         0.0600 
    204 H204       -0.5862  -29.0231  -47.0181 H         1 UNK         0.0600 
    205 H205       -2.4503  -26.1576  -48.4447 H         1 UNK         0.3000 
    206 H206       -3.0813  -27.9708  -50.7313 H         1 UNK         0.0600 
    207 H207       -0.8090  -26.9150  -50.6288 H         1 UNK         0.0600 
    208 H208       -1.5619  -25.3237  -50.6584 H         1 UNK         0.0600 
    209 H209       -1.7234  -26.4039  -52.0366 H         1 UNK         0.0600 
    210 H210       -4.9933  -26.2564  -48.9098 H         1 UNK         0.3000 
    211 H211       -6.9362  -25.1754  -49.0911 H         1 UNK         0.0600 
    212 H212       -7.0142  -26.3781  -51.9115 H         1 UNK         0.0600 
    213 H213       -8.3940  -25.7557  -51.0173 H         1 UNK         0.0600 
    214 H214       -7.5417  -27.1754  -50.4309 H         1 UNK         0.0600 
    215 H215       -5.3895  -23.3536  -48.9771 H         1 UNK         0.3000 
    216 H216       -4.8413  -21.2327  -49.2905 H         1 UNK         0.0600 
    217 H217       -6.0713  -19.7089  -50.7284 H         1 UNK         0.0600 
    218 H218       -7.2156  -20.8018  -49.9685 H         1 UNK         0.0600 
    219 H219       -6.7603  -21.0276  -51.6579 H         1 UNK         0.0600 
    220 H220       -4.0307  -23.6063  -51.4327 H         1 UNK         0.3000 
    221 H221       -2.4179  -23.9856  -52.8994 H         1 UNK         0.0600 
    222 H222       -1.0690  -21.4968  -51.7269 H         1 UNK         0.0600 
    223 H223       -0.9621  -23.1242  -51.0651 H         1 UNK         0.0600 
    224 H224       -0.2697  -22.7730  -52.6376 H         1 UNK         0.0600 
    225 H225       -4.6559  -22.5671  -53.8365 H         1 UNK         0.3000 
    226 H226       -5.5567  -21.4648  -55.5234 H         1 UNK         0.0600 
    227 H227       -4.1302  -22.9589  -56.9491 H         1 UNK         0.0600 
    228 H228       -4.4569  -21.4153  -57.7179 H         1 UNK         0.0600 
    229 H229       -2.8826  -21.7137  -56.9968 H         1 UNK         0.0600 
    230 H230       -4.3017  -20.0002  -53.3717 H         1 UNK         0.3000 
    231 H231       -4.0189  -17.9813  -52.5929 H         1 UNK         0.0600 
    232 H232       -4.8302  -15.9679  -53.7681 H         1 UNK         0.0600 
    233 H233       -6.0086  -17.2644  -53.8919 H         1 UNK         0.0600 
    234 H234       -4.9895  -16.8606  -55.2724 H         1 UNK         0.0600 
    235 H235       -1.8206  -19.0802  -52.8698 H         1 UNK         0.3000 
    236 H236        0.0265  -18.4642  -54.8047 H         1 UNK         0.0600 
    237 H237        0.4805  -19.1182  -51.8543 H         1 UNK         0.0600 
    238 H238        0.3671  -20.2616  -53.1946 H         1 UNK         0.0600 
    239 H239        1.7369  -19.1721  -53.0829 H         1 UNK         0.0600 
    240 H240       -0.6294  -16.5115  -51.9041 H         1 UNK         0.3000 
    241 H241        1.2478  -14.4003  -52.8693 H         1 UNK         0.0600 
    242 H242       -2.3435  -13.4217  -53.9173 H         1 UNK         0.3800 
    243 H243       -1.6387  -15.0109  -54.0326 H         1 UNK         0.3800 
    244 H244       -0.0628  -14.5383  -50.1331 H         1 UNK         0.0800 
    245 H245        1.1128  -13.3794  -50.6647 H         1 UNK         0.0800 
    246 H246        1.0406  -15.3045  -48.0789 H         1 UNK         0.0800 
    247 H247        2.3495  -16.4546  -48.0350 H         1 UNK         0.0800 
@<TRIPOS>BOND
     1    1    2 1    
     2    1  127 1    
     3    1  128 1    
     4    1  129 1    
     5    2    3 2    
     6    2    4 am   BACKBONE|DICT|INTERRES
     7    4    5 1    
     8    4  130 1    
     9    5    6 1    
    10    5   65 1    
    11    5  131 1    
    12    6    7 1    
    13    6  132 1    
    14    6  133 1    
    15    7    8 1    
    16    8    9 1    
    17    8  134 1    
    18    8  135 1    
    19    9   10 ar   
    20    9   14 ar   
    21   10   11 ar   
    22   10  136 1    
    23   11   12 ar   
    24   11  126 1    
    25   12   13 ar   
    26   12  137 1    
    27   13   14 ar   
    28   13   15 1    
    29   14  138 1    
    30   15   16 1    
    31   15  139 1    
    32   15  140 1    
    33   16   17 1    
    34   17   18 1    
    35   17  141 1    
    36   17  142 1    
    37   18   19 1    
    38   18   67 1    
    39   18  143 1    
    40   19   20 am   BACKBONE|DICT|INTERRES
    41   19  144 1    
    42   20   21 2    
    43   20   22 1    
    44   22   23 1    
    45   22   24 1    
    46   22  145 1    
    47   23  146 1    
    48   23  147 1    
    49   23  148 1    
    50   24   25 am   BACKBONE|DICT|INTERRES
    51   24  149 1    
    52   25   26 2    
    53   25   27 1    
    54   27   28 1    
    55   27   29 1    
    56   27  150 1    
    57   28  151 1    
    58   28  152 1    
    59   28  153 1    
    60   29   30 am   BACKBONE|DICT|INTERRES
    61   29  154 1    
    62   30   31 2    
    63   30   32 1    
    64   32   33 1    
    65   32   34 1    
    66   32  155 1    
    67   33  156 1    
    68   33  157 1    
    69   33  158 1    
    70   34   35 am   BACKBONE|DICT|INTERRES
    71   34  159 1    
    72   35   36 2    
    73   35   37 1    
    74   37   38 1    
    75   37   39 1    
    76   37  160 1    
    77   38  161 1    
    78   38  162 1    
    79   38  163 1    
    80   39   40 am   BACKBONE|DICT|INTERRES
    81   39  164 1    
    82   40   41 2    
    83   40   42 1    
    84   42   43 1    
    85   42   44 1    
    86   42  165 1    
    87   43  166 1    
    88   43  167 1    
    89   43  168 1    
    90   44   45 am   BACKBONE|DICT|INTERRES
    91   44  169 1    
    92   45   46 2    
    93   45   47 1    
    94   47   48 1    
    95   47   49 1    
    96   47  170 1    
    97   48  171 1    
    98   48  172 1    
    99   48  173 1    
   100   49   50 am   BACKBONE|DICT|INTERRES
   101   49  174 1    
   102   50   51 2    
   103   50   52 1    
   104   52   53 1    
   105   52   54 1    
   106   52  175 1    
   107   53  176 1    
   108   53  177 1    
   109   53  178 1    
   110   54   55 am   BACKBONE|DICT|INTERRES
   111   54  179 1    
   112   55   56 2    
   113   55   57 1    
   114   57   58 1    
   115   57   59 1    
   116   57  180 1    
   117   58  181 1    
   118   58  182 1    
   119   58  183 1    
   120   59   60 am   BACKBONE|DICT|INTERRES
   121   59  184 1    
   122   60   61 2    
   123   60   62 1    
   124   62   63 1    
   125   62   64 1    
   126   62  185 1    
   127   63  186 1    
   128   63  187 1    
   129   63  188 1    
   130   64   65 am   BACKBONE|DICT|INTERRES
   131   64  189 1    
   132   65   66 2    
   133   67   68 2    
   134   67   69 am   BACKBONE|DICT|INTERRES
   135   69   70 1    
   136   69  190 1    
   137   70   71 1    
   138   70   72 1    
   139   70  191 1    
   140   71  192 1    
   141   71  193 1    
   142   71  194 1    
   143   72   73 2    
   144   72   74 am   BACKBONE|DICT|INTERRES
   145   74   75 1    
   146   74  195 1    
   147   75   76 1    
   148   75   77 1    
   149   75  196 1    
   150   76  197 1    
   151   76  198 1    
   152   76  199 1    
   153   77   78 2    
   154   77   79 am   BACKBONE|DICT|INTERRES
   155   79   80 1    
   156   79  200 1    
   157   80   81 1    
   158   80   82 1    
   159   80  201 1    
   160   81  202 1    
   161   81  203 1    
   162   81  204 1    
   163   82   83 2    
   164   82   84 am   BACKBONE|DICT|INTERRES
   165   84   85 1    
   166   84  205 1    
   167   85   86 1    
   168   85   87 1    
   169   85  206 1    
   170   86  207 1    
   171   86  208 1    
   172   86  209 1    
   173   87   88 2    
   174   87   89 am   BACKBONE|DICT|INTERRES
   175   89   90 1    
   176   89  210 1    
   177   90   91 1    
   178   90   92 1    
   179   90  211 1    
   180   91  212 1    
   181   91  213 1    
   182   91  214 1    
   183   92   93 2    
   184   92   94 am   BACKBONE|DICT|INTERRES
   185   94   95 1    
   186   94  215 1    
   187   95   96 1    
   188   95   97 1    
   189   95  216 1    
   190   96  217 1    
   191   96  218 1    
   192   96  219 1    
   193   97   98 2    
   194   97   99 am   BACKBONE|DICT|INTERRES
   195   99  100 1    
   196   99  220 1    
   197  100  101 1    
   198  100  102 1    
   199  100  221 1    
   200  101  222 1    
   201  101  223 1    
   202  101  224 1    
   203  102  103 2    
   204  102  104 am   BACKBONE|DICT|INTERRES
   205  104  105 1    
   206  104  225 1    
   207  105  106 1    
   208  105  107 1    
   209  105  226 1    
   210  106  227 1    
   211  106  228 1    
   212  106  229 1    
   213  107  108 2    
   214  107  109 am   BACKBONE|DICT|INTERRES
   215  109  110 1    
   216  109  230 1    
   217  110  111 1    
   218  110  112 1    
   219  110  231 1    
   220  111  232 1    
   221  111  233 1    
   222  111  234 1    
   223  112  113 2    
   224  112  114 am   BACKBONE|DICT|INTERRES
   225  114  115 1    
   226  114  235 1    
   227  115  116 1    
   228  115  117 1    
   229  115  236 1    
   230  116  237 1    
   231  116  238 1    
   232  116  239 1    
   233  117  118 2    
   234  117  119 am   BACKBONE|DICT|INTERRES
   235  119  120 1    
   236  119  240 1    
   237  120  121 1    
   238  120  124 1    
   239  120  241 1    
   240  121  122 am   BACKBONE|DICT|INTERRES
   241  121  123 2    
   242  122  242 1    
   243  122  243 1    
   244  124  125 1    
   245  124  244 1    
   246  124  245 1    
   247  125  126 1    
   248  126  246 1    
   249  126  247 1    
@<TRIPOS>SUBSTRUCTURE
     1 UNK         1 GROUP             0       ****    0 ROOT    
