@<TRIPOS>MOLECULE
3R540
247   249    1
SMALL
USER_CHARGES


@<TRIPOS>ATOM
      1 CA          7.3573  -17.6684  -49.1800 C.3       0 UNK        -0.1800 
      2 C           6.6460  -17.4748  -47.8482 C.2       0 UNK         0.5000 
      3 O           7.1451  -17.9199  -46.8143 O.2       0 UNK        -0.5000 
      4 N           5.4806  -16.8197  -47.8730 N.am      1 UNK        -0.5000 
      5 CA          4.6781  -16.4911  -46.6957 C.3       1 UNK         0.1400 
      6 C6          3.1827  -16.3017  -47.0587 C.3       23 UNK        -0.0398 
      7 S7          2.7732  -14.8739  -48.1342 S.3       23 UNK        -0.2404 
      8 C8          3.0203  -15.4959  -49.8333 C.3       23 UNK        -0.0205 
      9 C9          2.2189  -16.7542  -50.1274 C.ar      23 UNK        -0.0193 
     10 C10         0.8537  -16.6728  -50.4126 C.ar      23 UNK        -0.1150 
     11 C11         0.1052  -17.8303  -50.6651 C.ar      23 UNK        -0.0193 
     12 C12         0.7395  -19.0747  -50.5992 C.ar      23 UNK        -0.1150 
     13 C13         2.1033  -19.1689  -50.3093 C.ar      23 UNK        -0.0193 
     14 C14         2.8428  -18.0033  -50.1025 C.ar      23 UNK        -0.1150 
     15 C15         2.7663  -20.5316  -50.1672 C.3       23 UNK        -0.0205 
     16 S16         3.4635  -20.8037  -48.4998 S.3       23 UNK        -0.2404 
     17 C17         2.0611  -20.3984  -47.3985 C.3       23 UNK        -0.0398 
     18 CA          1.2629  -21.6269  -46.9083 C.3       11 UNK         0.1400 
     19 N           0.4025  -21.2774  -45.7766 N.am      11 UNK        -0.5000 
     20 C          -0.2749  -22.1524  -45.0224 C.2       10 UNK         0.5000 
     21 O          -0.2095  -23.3728  -45.1652 O.2       10 UNK        -0.5000 
     22 CA         -1.2172  -21.5622  -43.9576 C.3       10 UNK         0.1400 
     23 CB         -0.4331  -21.1437  -42.7052 C.3       10 UNK        -0.1800 
     24 N          -1.9920  -20.4257  -44.4600 N.am      10 UNK        -0.5000 
     25 C          -2.8989  -20.5081  -45.4444 C.2       9 UNK         0.5000 
     26 O          -3.2098  -21.5617  -45.9986 O.2       9 UNK        -0.5000 
     27 CA         -3.5366  -19.1917  -45.9234 C.3       9 UNK         0.1400 
     28 CB         -4.6644  -18.7556  -44.9766 C.3       9 UNK        -0.1800 
     29 N          -2.5667  -18.1065  -46.0728 N.am      9 UNK        -0.5000 
     30 C          -1.5297  -18.1266  -46.9224 C.2       8 UNK         0.5000 
     31 O          -1.2974  -19.0574  -47.6914 O.2       8 UNK        -0.5000 
     32 CA         -0.5516  -16.9407  -46.8570 C.3       8 UNK         0.1400 
     33 CB         -1.1313  -15.6994  -47.5504 C.3       8 UNK        -0.1800 
     34 N          -0.1804  -16.6079  -45.4819 N.am      8 UNK        -0.5000 
     35 C           0.4467  -17.4389  -44.6378 C.2       7 UNK         0.5000 
     36 O           0.8578  -18.5541  -44.9539 O.2       7 UNK        -0.5000 
     37 CA          0.6047  -16.9600  -43.1862 C.3       7 UNK         0.1400 
     38 CB          1.8155  -16.0257  -43.0397 C.3       7 UNK        -0.1800 
     39 N          -0.6046  -16.2945  -42.7033 N.am      7 UNK        -0.5000 
     40 C          -1.7613  -16.9259  -42.4542 C.2       6 UNK         0.5000 
     41 O          -1.9154  -18.1414  -42.5708 O.2       6 UNK        -0.5000 
     42 CA         -2.9557  -16.0446  -42.0457 C.3       6 UNK         0.1400 
     43 CB         -2.9140  -15.7388  -40.5413 C.3       6 UNK        -0.1800 
     44 N          -3.0055  -14.7888  -42.7953 N.am      6 UNK        -0.5000 
     45 C          -3.2453  -14.7028  -44.1115 C.2       5 UNK         0.5000 
     46 O          -3.4996  -15.6727  -44.8238 O.2       5 UNK        -0.5000 
     47 CA         -3.1296  -13.3044  -44.7462 C.3       5 UNK         0.1400 
     48 CB         -4.4667  -12.5552  -44.6497 C.3       5 UNK        -0.1800 
     49 N          -2.0681  -12.4866  -44.1515 N.am      5 UNK        -0.5000 
     50 C          -0.7656  -12.7984  -44.1745 C.2       4 UNK         0.5000 
     51 O          -0.3181  -13.8298  -44.6809 O.2       4 UNK        -0.5000 
     52 CA          0.1782  -11.8299  -43.4409 C.3       4 UNK         0.1400 
     53 CB          0.3211  -12.2499  -41.9695 C.3       4 UNK        -0.1800 
     54 N           1.5100  -11.7776  -44.0395 N.am      4 UNK        -0.5000 
     55 C           1.8066  -11.3251  -45.2623 C.2       3 UNK         0.5000 
     56 O           0.9654  -10.8689  -46.0382 O.2       3 UNK        -0.5000 
     57 CA          3.2872  -11.3583  -45.7009 C.3       3 UNK         0.1400 
     58 CB          3.9756  -10.0161  -45.3893 C.3       3 UNK        -0.1800 
     59 N           4.0925  -12.4834  -45.2007 N.am      3 UNK        -0.5000 
     60 C           4.4461  -12.8076  -43.9486 C.2       2 UNK         0.5000 
     61 O           4.0681  -12.1864  -42.9543 O.2       2 UNK        -0.5000 
     62 CA          5.3533  -14.0501  -43.7814 C.3       2 UNK         0.1400 
     63 CB          5.3937  -14.5580  -42.3283 C.3       2 UNK        -0.1800 
     64 N           4.9655  -15.1632  -44.6542 N.am      2 UNK        -0.5000 
     65 C           5.2584  -15.2681  -45.9560 C.2       1 UNK         0.5000 
     66 O           5.9049  -14.4170  -46.5725 O.2       1 UNK        -0.5000 
     67 C           0.4620  -22.2980  -48.0443 C.2       11 UNK         0.5000 
     68 O           0.8961  -23.3279  -48.5605 O.2       11 UNK        -0.5000 
     69 N          -0.7122  -21.7414  -48.3800 N.am      12 UNK        -0.5000 
     70 CA         -1.6529  -22.3147  -49.3431 C.3       12 UNK         0.1400 
     71 CB         -2.8300  -21.3549  -49.5756 C.3       12 UNK        -0.1800 
     72 C          -2.1501  -23.7051  -48.9138 C.2       12 UNK         0.5000 
     73 O          -2.1079  -24.6305  -49.7221 O.2       12 UNK        -0.5000 
     74 N          -2.5475  -23.8447  -47.6409 N.am      13 UNK        -0.5000 
     75 CA         -2.9765  -25.1093  -47.0420 C.3       13 UNK         0.1400 
     76 CB         -3.4976  -24.8608  -45.6190 C.3       13 UNK        -0.1800 
     77 C          -1.8718  -26.1827  -47.0448 C.2       13 UNK         0.5000 
     78 O          -2.1527  -27.3345  -47.3765 O.2       13 UNK        -0.5000 
     79 N          -0.6299  -25.7841  -46.7328 N.am      14 UNK        -0.5000 
     80 CA          0.5614  -26.6363  -46.7994 C.3       14 UNK         0.1400 
     81 CB          1.7542  -25.9023  -46.1685 C.3       14 UNK        -0.1800 
     82 C           0.8977  -27.0953  -48.2328 C.2       14 UNK         0.5000 
     83 O           1.3540  -28.2237  -48.4185 O.2       14 UNK        -0.5000 
     84 N           0.6267  -26.2320  -49.2203 N.am      15 UNK        -0.5000 
     85 CA          0.7368  -26.5170  -50.6527 C.3       15 UNK         0.1400 
     86 CB          0.9179  -25.1880  -51.4060 C.3       15 UNK        -0.1800 
     87 C          -0.4612  -27.3142  -51.2183 C.2       15 UNK         0.5000 
     88 O          -0.4478  -27.6455  -52.4046 O.2       15 UNK        -0.5000 
     89 N          -1.4674  -27.6025  -50.3777 N.am      16 UNK        -0.5000 
     90 CA         -2.7256  -28.2946  -50.6776 C.3       16 UNK         0.1400 
     91 CB         -2.4702  -29.7463  -51.1349 C.3       16 UNK        -0.1800 
     92 C          -3.6499  -27.5074  -51.6322 C.2       16 UNK         0.5000 
     93 O          -4.4205  -28.1108  -52.3817 O.2       16 UNK        -0.5000 
     94 N          -3.5736  -26.1741  -51.5711 N.am      17 UNK        -0.5000 
     95 CA         -4.4404  -25.2342  -52.2736 C.3       17 UNK         0.1400 
     96 CB         -3.5573  -24.1522  -52.9188 C.3       17 UNK        -0.1800 
     97 C          -5.4283  -24.5957  -51.2821 C.2       17 UNK         0.5000 
     98 O          -5.2367  -24.6743  -50.0658 O.2       17 UNK        -0.5000 
     99 N          -6.4643  -23.9451  -51.8207 N.am      18 UNK        -0.5000 
    100 CA        -7.3710  -23.0948  -51.0530 C.3       18 UNK         0.1400 
    101 CB        -8.6880  -22.9369  -51.8292 C.3       18 UNK        -0.1800 
    102 C         -6.7261  -21.7188  -50.8220 C.2       18 UNK         0.5000 
    103 O         -6.0605  -21.2025  -51.7218 O.2       18 UNK        -0.5000 
    104 N         -6.9852  -21.1099  -49.6581 N.am      19 UNK        -0.5000 
    105 CA        -6.5336  -19.7524  -49.3279 C.3       19 UNK         0.1400 
    106 CB        -6.8476  -19.4586  -47.8542 C.3       19 UNK        -0.1800 
    107 C         -7.1534  -18.6763  -50.2433 C.2       19 UNK         0.5000 
    108 O         -6.5061  -17.6714  -50.5344 O.2       19 UNK        -0.5000 
    109 N         -8.3767  -18.9379  -50.7247 N.am      20 UNK        -0.5000 
    110 CA        -9.1069  -18.1093  -51.6846 C.3       20 UNK         0.1400 
    111 CB       -10.5673  -18.5851  -51.7305 C.3       20 UNK        -0.1800 
    112 C         -8.4979  -18.1085  -53.1027 C.2       20 UNK         0.5000 
    113 O         -8.8037  -17.2050  -53.8812 O.2       20 UNK        -0.5000 
    114 N         -7.6555  -19.1034  -53.4218 N.am      21 UNK        -0.5000 
    115 CA        -6.9595  -19.2147  -54.7064 C.3       21 UNK         0.1400 
    116 CB        -6.6551  -20.6953  -54.9899 C.3       21 UNK        -0.1800 
    117 C         -5.6709  -18.3685  -54.7668 C.2       21 UNK         0.5000 
    118 O         -5.0865  -18.2485  -55.8446 O.2       21 UNK        -0.5000 
    119 N         -5.2401  -17.8113  -53.6262 N.am      22 UNK        -0.5000 
    120 CA        -4.0803  -16.9178  -53.5075 C.3       22 UNK         0.1400 
    121 C         -4.2706  -15.5803  -54.2805 C.2       22 UNK         0.5000 
    122 N         -3.2435  -15.0963  -54.9656 N.am      22 UNK        -0.7600 
    123 O         -5.3317  -14.9615  -54.2356 O.2       22 UNK        -0.5000 
    124 C124       -3.7348  -16.6653  -52.0178 C.3       23 UNK        -0.0398 
    125 S125       -1.9726  -16.2627  -51.7734 S.3       23 UNK        -0.2404 
    126 C126       -1.3933  -17.7874  -50.9582 C.3       23 UNK        -0.0205 
    127 H127        8.3408  -17.1994  -49.1520 H         1 UNK         0.0600 
    128 H128        6.7959  -17.2329  -50.0071 H         1 UNK         0.0600 
    129 H129        7.4900  -18.7311  -49.3828 H         1 UNK         0.0600 
    130 H130        5.1563  -16.4182  -48.7386 H         1 UNK         0.3000 
    131 H131        4.7339  -17.3401  -46.0104 H         1 UNK         0.0600 
    132 H132        2.7910  -17.2203  -47.4930 H         1 UNK         0.0800 
    133 H133        2.6107  -16.1669  -46.1411 H         1 UNK         0.0800 
    134 H134        4.0817  -15.6632  -50.0156 H         1 UNK         0.0800 
    135 H135        2.7229  -14.7130  -50.5324 H         1 UNK         0.0800 
    136 H136        0.3789  -15.7024  -50.4219 H         1 UNK         0.1150 
    137 H137        0.1624  -19.9759  -50.7523 H         1 UNK         0.1150 
    138 H138        3.8965  -18.0790  -49.8758 H         1 UNK         0.1150 
    139 H139        2.0607  -21.3326  -50.3922 H         1 UNK         0.0800 
    140 H140        3.5673  -20.6155  -50.9026 H         1 UNK         0.0800 
    141 H141        1.3982  -19.6590  -47.8466 H         1 UNK         0.0800 
    142 H142        2.5033  -19.8965  -46.5373 H         1 UNK         0.0800 
    143 H143        1.9794  -22.3638  -46.5391 H         1 UNK         0.0600 
    144 H144        0.3261  -20.2872  -45.5598 H         1 UNK         0.3000 
    145 H145       -1.9222  -22.3444  -43.6691 H         1 UNK         0.0600 
    146 H146        0.1381  -21.9817  -42.3040 H         1 UNK         0.0600 
    147 H147        0.2701  -20.3386  -42.9191 H         1 UNK         0.0600 
    148 H148       -1.1040  -20.8005  -41.9175 H         1 UNK         0.0600 
    149 H149       -1.8274  -19.5283  -44.0150 H         1 UNK         0.3000 
    150 H150       -3.9714  -19.3771  -46.9072 H         1 UNK         0.0600 
    151 H151       -5.4052  -19.5472  -44.8588 H         1 UNK         0.0600 
    152 H152       -5.1842  -17.8782  -45.3615 H         1 UNK         0.0600 
    153 H153       -4.2852  -18.5101  -43.9845 H         1 UNK         0.0600 
    154 H154       -2.7198  -17.2795  -45.5018 H         1 UNK         0.3000 
    155 H155        0.3548  -17.2326  -47.3900 H         1 UNK         0.0600 
    156 H156       -2.0332  -15.3429  -47.0551 H         1 UNK         0.0600 
    157 H157       -0.4094  -14.8825  -47.5607 H         1 UNK         0.0600 
    158 H158       -1.3938  -15.9149  -48.5857 H         1 UNK         0.0600 
    159 H159       -0.4254  -15.6769  -45.1547 H         1 UNK         0.3000 
    160 H160        0.7803  -17.8383  -42.5612 H         1 UNK         0.0600 
    161 H161        1.7382  -15.1456  -43.6787 H         1 UNK         0.0600 
    162 H162        2.7337  -16.5480  -43.3078 H         1 UNK         0.0600 
    163 H163        1.9270  -15.6838  -42.0107 H         1 UNK         0.0600 
    164 H164       -0.5774  -15.2880  -42.6442 H         1 UNK         0.3000 
    165 H165       -3.8701  -16.6035  -42.2560 H         1 UNK         0.0600 
    166 H166       -3.7953  -15.1785  -40.2285 H         1 UNK         0.0600 
    167 H167       -2.8915  -16.6597  -39.9570 H         1 UNK         0.0600 
    168 H168       -2.0321  -15.1566  -40.2708 H         1 UNK         0.0600 
    169 H169       -2.8113  -13.9408  -42.2841 H         1 UNK         0.3000 
    170 H170       -2.8913  -13.4398  -45.8029 H         1 UNK         0.0600 
    171 H171       -5.2718  -13.1346  -45.1038 H         1 UNK         0.0600 
    172 H172       -4.7466  -12.3600  -43.6138 H         1 UNK         0.0600 
    173 H173       -4.4221  -11.5994  -45.1721 H         1 UNK         0.0600 
    174 H174       -2.3596  -11.6291  -43.7046 H         1 UNK         0.3000 
    175 H175       -0.2479  -10.8255  -43.4823 H         1 UNK         0.0600 
    176 H176        0.7715  -13.2388  -41.8754 H         1 UNK         0.0600 
    177 H177        0.9460  -11.5464  -41.4189 H         1 UNK         0.0600 
    178 H178       -0.6484  -12.2799  -41.4706 H         1 UNK         0.0600 
    179 H179        2.2873  -12.0881  -43.4642 H         1 UNK         0.3000 
    180 H180        3.2772  -11.4752  -46.7859 H         1 UNK         0.0600 
    181 H181        4.0228   -9.8228  -44.3171 H         1 UNK         0.0600 
    182 H182        3.4355   -9.1857  -45.8459 H         1 UNK         0.0600 
    183 H183        4.9931   -9.9948  -45.7797 H         1 UNK         0.0600 
    184 H184        4.4762  -13.0766  -45.9282 H         1 UNK         0.3000 
    185 H185        6.3651  -13.7362  -44.0462 H         1 UNK         0.0600 
    186 H186        5.7668  -13.7869  -41.6531 H         1 UNK         0.0600 
    187 H187        4.4048  -14.8521  -41.9757 H         1 UNK         0.0600 
    188 H188        6.0560  -15.4181  -42.2285 H         1 UNK         0.0600 
    189 H189        4.4221  -15.8912  -44.2160 H         1 UNK         0.3000 
    190 H190       -0.9839  -20.8605  -47.9483 H         1 UNK         0.3000 
    191 H191       -1.1222  -22.4306  -50.2902 H         1 UNK         0.0600 
    192 H192       -3.3946  -21.1767  -48.6609 H         1 UNK         0.0600 
    193 H193       -3.5234  -21.7602  -50.3137 H         1 UNK         0.0600 
    194 H194       -2.4856  -20.3912  -49.9477 H         1 UNK         0.0600 
    195 H195       -2.5868  -23.0220  -47.0446 H         1 UNK         0.3000 
    196 H196       -3.8051  -25.4890  -47.6436 H         1 UNK         0.0600 
    197 H197       -3.8442  -25.7884  -45.1621 H         1 UNK         0.0600 
    198 H198       -4.3380  -24.1664  -45.6240 H         1 UNK         0.0600 
    199 H199       -2.7245  -24.4445  -44.9731 H         1 UNK         0.0600 
    200 H200       -0.4881  -24.8282  -46.4174 H         1 UNK         0.3000 
    201 H201        0.3624  -27.5310  -46.2059 H         1 UNK         0.0600 
    202 H202        1.5515  -25.6413  -45.1297 H         1 UNK         0.0600 
    203 H203        1.9905  -24.9827  -46.7040 H         1 UNK         0.0600 
    204 H204        2.6478  -26.5275  -46.1787 H         1 UNK         0.0600 
    205 H205        0.3029  -25.3025  -48.9736 H         1 UNK         0.3000 
    206 H206        1.6311  -27.1209  -50.8187 H         1 UNK         0.0600 
    207 H207        1.7804  -24.6364  -51.0314 H         1 UNK         0.0600 
    208 H208        1.0795  -25.3583  -52.4710 H         1 UNK         0.0600 
    209 H209        0.0430  -24.5456  -51.3068 H         1 UNK         0.0600 
    210 H210       -1.3897  -27.2619  -49.4274 H         1 UNK         0.3000 
    211 H211       -3.2636  -28.3470  -49.7303 H         1 UNK         0.0600 
    212 H212       -2.0074  -29.7872  -52.1211 H         1 UNK         0.0600 
    213 H213       -3.4034  -30.3079  -51.1904 H         1 UNK         0.0600 
    214 H214       -1.8192  -30.2709  -50.4355 H         1 UNK         0.0600 
    215 H215       -2.9649  -25.7495  -50.8724 H         1 UNK         0.3000 
    216 H216       -5.0090  -25.7411  -53.0557 H         1 UNK         0.0600 
    217 H217       -4.1566  -23.4342  -53.4801 H         1 UNK         0.0600 
    218 H218       -2.8422  -24.5924  -53.6140 H         1 UNK         0.0600 
    219 H219       -2.9933  -23.5933  -52.1711 H         1 UNK         0.0600 
    220 H220       -6.5369  -23.8822  -52.8255 H         1 UNK         0.3000 
    221 H221       -7.5863  -23.5620  -50.0894 H         1 UNK         0.0600 
    222 H222       -8.5329  -22.4594  -52.7977 H         1 UNK         0.0600 
    223 H223       -9.1595  -23.9040  -52.0048 H         1 UNK         0.0600 
    224 H224       -9.4001  -22.3260  -51.2730 H         1 UNK         0.0600 
    225 H225       -7.5407  -21.5857  -48.9615 H         1 UNK         0.3000 
    226 H226       -5.4504  -19.7140  -49.4616 H         1 UNK         0.0600 
    227 H227       -6.3704  -20.1863  -47.1975 H         1 UNK         0.0600 
    228 H228       -6.4826  -18.4714  -47.5676 H         1 UNK         0.0600 
    229 H229       -7.9201  -19.4820  -47.6574 H         1 UNK         0.0600 
    230 H230       -8.8317  -19.7883  -50.4282 H         1 UNK         0.3000 
    231 H231       -9.0924  -17.0789  -51.3231 H         1 UNK         0.0600 
    232 H232      -11.1584  -17.9707  -52.4112 H         1 UNK         0.0600 
    233 H233      -11.0354  -18.5196  -50.7482 H         1 UNK         0.0600 
    234 H234      -10.6430  -19.6184  -52.0718 H         1 UNK         0.0600 
    235 H235       -7.4117  -19.7934  -52.7224 H         1 UNK         0.3000 
    236 H236       -7.6202  -18.8560  -55.4984 H         1 UNK         0.0600 
    237 H237       -7.5546  -21.3068  -54.9196 H         1 UNK         0.0600 
    238 H238       -6.2555  -20.8226  -55.9966 H         1 UNK         0.0600 
    239 H239       -5.9163  -21.0982  -54.2974 H         1 UNK         0.0600 
    240 H240       -5.7977  -17.9317  -52.7920 H         1 UNK         0.3000 
    241 H241       -3.2463  -17.4557  -53.9633 H         1 UNK         0.0600 
    242 H242       -2.3569  -15.5761  -54.9927 H         1 UNK         0.3800 
    243 H243       -3.3498  -14.2244  -55.4604 H         1 UNK         0.3800 
    244 H244       -4.3501  -15.8692  -51.5944 H         1 UNK         0.0800 
    245 H245       -3.9631  -17.5519  -51.4247 H         1 UNK         0.0800 
    246 H246       -1.9352  -17.9142  -50.0212 H         1 UNK         0.0800 
    247 H247       -1.6631  -18.6329  -51.5932 H         1 UNK         0.0800 
@<TRIPOS>BOND
     1    1    2 1    
     2    1  127 1    
     3    1  128 1    
     4    1  129 1    
     5    2    3 2    
     6    2    4 am   BACKBONE|DICT|INTERRES
     7    4    5 1    
     8    4  130 1    
     9    5    6 1    
    10    5   65 1    
    11    5  131 1    
    12    6    7 1    
    13    6  132 1    
    14    6  133 1    
    15    7    8 1    
    16    8    9 1    
    17    8  134 1    
    18    8  135 1    
    19    9   10 ar   
    20    9   14 ar   
    21   10   11 ar   
    22   10  136 1    
    23   11   12 ar   
    24   11  126 1    
    25   12   13 ar   
    26   12  137 1    
    27   13   14 ar   
    28   13   15 1    
    29   14  138 1    
    30   15   16 1    
    31   15  139 1    
    32   15  140 1    
    33   16   17 1    
    34   17   18 1    
    35   17  141 1    
    36   17  142 1    
    37   18   19 1    
    38   18   67 1    
    39   18  143 1    
    40   19   20 am   BACKBONE|DICT|INTERRES
    41   19  144 1    
    42   20   21 2    
    43   20   22 1    
    44   22   23 1    
    45   22   24 1    
    46   22  145 1    
    47   23  146 1    
    48   23  147 1    
    49   23  148 1    
    50   24   25 am   BACKBONE|DICT|INTERRES
    51   24  149 1    
    52   25   26 2    
    53   25   27 1    
    54   27   28 1    
    55   27   29 1    
    56   27  150 1    
    57   28  151 1    
    58   28  152 1    
    59   28  153 1    
    60   29   30 am   BACKBONE|DICT|INTERRES
    61   29  154 1    
    62   30   31 2    
    63   30   32 1    
    64   32   33 1    
    65   32   34 1    
    66   32  155 1    
    67   33  156 1    
    68   33  157 1    
    69   33  158 1    
    70   34   35 am   BACKBONE|DICT|INTERRES
    71   34  159 1    
    72   35   36 2    
    73   35   37 1    
    74   37   38 1    
    75   37   39 1    
    76   37  160 1    
    77   38  161 1    
    78   38  162 1    
    79   38  163 1    
    80   39   40 am   BACKBONE|DICT|INTERRES
    81   39  164 1    
    82   40   41 2    
    83   40   42 1    
    84   42   43 1    
    85   42   44 1    
    86   42  165 1    
    87   43  166 1    
    88   43  167 1    
    89   43  168 1    
    90   44   45 am   BACKBONE|DICT|INTERRES
    91   44  169 1    
    92   45   46 2    
    93   45   47 1    
    94   47   48 1    
    95   47   49 1    
    96   47  170 1    
    97   48  171 1    
    98   48  172 1    
    99   48  173 1    
   100   49   50 am   BACKBONE|DICT|INTERRES
   101   49  174 1    
   102   50   51 2    
   103   50   52 1    
   104   52   53 1    
   105   52   54 1    
   106   52  175 1    
   107   53  176 1    
   108   53  177 1    
   109   53  178 1    
   110   54   55 am   BACKBONE|DICT|INTERRES
   111   54  179 1    
   112   55   56 2    
   113   55   57 1    
   114   57   58 1    
   115   57   59 1    
   116   57  180 1    
   117   58  181 1    
   118   58  182 1    
   119   58  183 1    
   120   59   60 am   BACKBONE|DICT|INTERRES
   121   59  184 1    
   122   60   61 2    
   123   60   62 1    
   124   62   63 1    
   125   62   64 1    
   126   62  185 1    
   127   63  186 1    
   128   63  187 1    
   129   63  188 1    
   130   64   65 am   BACKBONE|DICT|INTERRES
   131   64  189 1    
   132   65   66 2    
   133   67   68 2    
   134   67   69 am   BACKBONE|DICT|INTERRES
   135   69   70 1    
   136   69  190 1    
   137   70   71 1    
   138   70   72 1    
   139   70  191 1    
   140   71  192 1    
   141   71  193 1    
   142   71  194 1    
   143   72   73 2    
   144   72   74 am   BACKBONE|DICT|INTERRES
   145   74   75 1    
   146   74  195 1    
   147   75   76 1    
   148   75   77 1    
   149   75  196 1    
   150   76  197 1    
   151   76  198 1    
   152   76  199 1    
   153   77   78 2    
   154   77   79 am   BACKBONE|DICT|INTERRES
   155   79   80 1    
   156   79  200 1    
   157   80   81 1    
   158   80   82 1    
   159   80  201 1    
   160   81  202 1    
   161   81  203 1    
   162   81  204 1    
   163   82   83 2    
   164   82   84 am   BACKBONE|DICT|INTERRES
   165   84   85 1    
   166   84  205 1    
   167   85   86 1    
   168   85   87 1    
   169   85  206 1    
   170   86  207 1    
   171   86  208 1    
   172   86  209 1    
   173   87   88 2    
   174   87   89 am   BACKBONE|DICT|INTERRES
   175   89   90 1    
   176   89  210 1    
   177   90   91 1    
   178   90   92 1    
   179   90  211 1    
   180   91  212 1    
   181   91  213 1    
   182   91  214 1    
   183   92   93 2    
   184   92   94 am   BACKBONE|DICT|INTERRES
   185   94   95 1    
   186   94  215 1    
   187   95   96 1    
   188   95   97 1    
   189   95  216 1    
   190   96  217 1    
   191   96  218 1    
   192   96  219 1    
   193   97   98 2    
   194   97   99 am   BACKBONE|DICT|INTERRES
   195   99  100 1    
   196   99  220 1    
   197  100  101 1    
   198  100  102 1    
   199  100  221 1    
   200  101  222 1    
   201  101  223 1    
   202  101  224 1    
   203  102  103 2    
   204  102  104 am   BACKBONE|DICT|INTERRES
   205  104  105 1    
   206  104  225 1    
   207  105  106 1    
   208  105  107 1    
   209  105  226 1    
   210  106  227 1    
   211  106  228 1    
   212  106  229 1    
   213  107  108 2    
   214  107  109 am   BACKBONE|DICT|INTERRES
   215  109  110 1    
   216  109  230 1    
   217  110  111 1    
   218  110  112 1    
   219  110  231 1    
   220  111  232 1    
   221  111  233 1    
   222  111  234 1    
   223  112  113 2    
   224  112  114 am   BACKBONE|DICT|INTERRES
   225  114  115 1    
   226  114  235 1    
   227  115  116 1    
   228  115  117 1    
   229  115  236 1    
   230  116  237 1    
   231  116  238 1    
   232  116  239 1    
   233  117  118 2    
   234  117  119 am   BACKBONE|DICT|INTERRES
   235  119  120 1    
   236  119  240 1    
   237  120  121 1    
   238  120  124 1    
   239  120  241 1    
   240  121  122 am   BACKBONE|DICT|INTERRES
   241  121  123 2    
   242  122  242 1    
   243  122  243 1    
   244  124  125 1    
   245  124  244 1    
   246  124  245 1    
   247  125  126 1    
   248  126  246 1    
   249  126  247 1    
@<TRIPOS>SUBSTRUCTURE
     1 UNK         1 GROUP             0       ****    0 ROOT    
