@<TRIPOS>MOLECULE
3R540
247   249    1
SMALL
USER_CHARGES


@<TRIPOS>ATOM
      1 CA         -2.4499  -15.3455  -52.1627 C.3       0 UNK        -0.1800 
      2 C          -1.3616  -15.0019  -51.1572 C.2       0 UNK         0.5000 
      3 O          -1.5576  -14.1334  -50.3063 O.2       0 UNK        -0.5000 
      4 N          -0.2069  -15.6656  -51.2988 N.am      1 UNK        -0.5000 
      5 CA          1.0567  -15.4492  -50.5841 C.3       1 UNK         0.1400 
      6 C6          2.0978  -16.5415  -50.9326 C.3       23 UNK        -0.0398 
      7 S7          2.5348  -16.5419  -52.7051 S.3       23 UNK        -0.2404 
      8 C8          1.7850  -18.1068  -53.2794 C.3       23 UNK        -0.0205 
      9 C9          2.4318  -19.3942  -52.7621 C.ar      23 UNK        -0.0193 
     10 C10         1.7232  -20.5906  -52.9025 C.ar      23 UNK        -0.1150 
     11 C11         2.2685  -21.8041  -52.4759 C.ar      23 UNK        -0.0193 
     12 C12         3.5379  -21.8189  -51.8914 C.ar      23 UNK        -0.1150 
     13 C13         4.2525  -20.6310  -51.7195 C.ar      23 UNK        -0.0193 
     14 C14         3.7029  -19.4277  -52.1727 C.ar      23 UNK        -0.1150 
     15 C15         5.6110  -20.6340  -51.0265 C.3       23 UNK        -0.0205 
     16 S16         5.5506  -21.2210  -49.2947 S.3       23 UNK        -0.2404 
     17 C17         4.1049  -20.3433  -48.6049 C.3       23 UNK        -0.0398 
     18 CA          2.9933  -21.3490  -48.2116 C.3       11 UNK         0.1400 
     19 N           3.2504  -21.9714  -46.9074 N.am      11 UNK        -0.5000 
     20 C           2.5484  -22.9935  -46.3983 C.2       10 UNK         0.5000 
     21 O           1.6247  -23.5512  -46.9888 O.2       10 UNK        -0.5000 
     22 CA          2.9094  -23.4412  -44.9710 C.3       10 UNK         0.1400 
     23 CB          4.0819  -24.4328  -44.9977 C.3       10 UNK        -0.1800 
     24 N           3.2308  -22.3312  -44.0699 N.am      10 UNK        -0.5000 
     25 C           2.3782  -21.3628  -43.7089 C.2       9 UNK         0.5000 
     26 O           1.2342  -21.2507  -44.1540 O.2       9 UNK        -0.5000 
     27 CA          2.9056  -20.3280  -42.7030 C.3       9 UNK         0.1400 
     28 CB          3.0225  -18.9400  -43.3512 C.3       9 UNK        -0.1800 
     29 N           2.0400  -20.2482  -41.5269 N.am      9 UNK        -0.5000 
     30 C           2.0643  -21.1314  -40.5197 C.2       8 UNK         0.5000 
     31 O           2.8009  -22.1190  -40.5082 O.2       8 UNK        -0.5000 
     32 CA          1.1525  -20.8742  -39.3077 C.3       8 UNK         0.1400 
     33 CB          1.8251  -19.9074  -38.3185 C.3       8 UNK        -0.1800 
     34 N          -0.1710  -20.3599  -39.6668 N.am      8 UNK        -0.5000 
     35 C          -1.3074  -20.7145  -39.0454 C.2       7 UNK         0.5000 
     36 O          -1.3514  -21.5401  -38.1318 O.2       7 UNK        -0.5000 
     37 CA         -2.6246  -20.0373  -39.4865 C.3       7 UNK         0.1400 
     38 CB         -3.0269  -18.9459  -38.4824 C.3       7 UNK        -0.1800 
     39 N          -2.5678  -19.4422  -40.8192 N.am      7 UNK        -0.5000 
     40 C          -2.4425  -20.1268  -41.9623 C.2       6 UNK         0.5000 
     41 O          -2.5010  -21.3545  -42.0276 O.2       6 UNK        -0.5000 
     42 CA         -2.1816  -19.3139  -43.2458 C.3       6 UNK         0.1400 
     43 CB         -3.4455  -19.2787  -44.1177 C.3       6 UNK        -0.1800 
     44 N          -1.7152  -17.9329  -43.0517 N.am      6 UNK        -0.5000 
     45 C          -0.6612  -17.5195  -42.3290 C.2       5 UNK         0.5000 
     46 O           0.0695  -18.2849  -41.7002 O.2       5 UNK        -0.5000 
     47 CA         -0.3738  -16.0036  -42.2682 C.3       5 UNK         0.1400 
     48 CB          0.9288  -15.6832  -43.0128 C.3       5 UNK        -0.1800 
     49 N          -1.4473  -15.1600  -42.8011 N.am      5 UNK        -0.5000 
     50 C          -2.6803  -15.0581  -42.2831 C.2       4 UNK         0.5000 
     51 O          -3.0210  -15.6209  -41.2416 O.2       4 UNK        -0.5000 
     52 CA         -3.7236  -14.2269  -43.0599 C.3       4 UNK         0.1400 
     53 CB         -4.0431  -12.9268  -42.3057 C.3       4 UNK        -0.1800 
     54 N          -3.3596  -13.8879  -44.4392 N.am      4 UNK        -0.5000 
     55 C          -3.1118  -14.7469  -45.4385 C.2       3 UNK         0.5000 
     56 O          -3.1159  -15.9699  -45.3006 O.2       3 UNK        -0.5000 
     57 CA         -2.7905  -14.1323  -46.8200 C.3       3 UNK         0.1400 
     58 CB         -3.3501  -12.7064  -47.0027 C.3       3 UNK        -0.1800 
     59 N          -1.3678  -14.1423  -47.1757 N.am      3 UNK        -0.5000 
     60 C          -0.3076  -13.8420  -46.4084 C.2       2 UNK         0.5000 
     61 O          -0.3856  -13.5701  -45.2092 O.2       2 UNK        -0.5000 
     62 CA          1.0776  -13.7694  -47.0929 C.3       2 UNK         0.1400 
     63 CB          2.1660  -14.5236  -46.3027 C.3       2 UNK        -0.1800 
     64 N           1.1114  -14.1441  -48.5134 N.am      2 UNK        -0.5000 
     65 C           0.8823  -15.3486  -49.0559 C.2       1 UNK         0.5000 
     66 O           0.5434  -16.3430  -48.4188 O.2       1 UNK        -0.5000 
     67 C           1.6019  -20.6921  -48.2598 C.2       11 UNK         0.5000 
     68 O           0.8701  -20.8974  -49.2258 O.2       11 UNK        -0.5000 
     69 N           1.2413  -19.9625  -47.1964 N.am      12 UNK        -0.5000 
     70 CA         -0.0654  -19.3231  -47.0573 C.3       12 UNK         0.1400 
     71 CB         -0.0127  -18.3107  -45.9093 C.3       12 UNK        -0.1800 
     72 C          -1.1968  -20.3439  -46.8502 C.2       12 UNK         0.5000 
     73 O          -2.2841  -20.1623  -47.3960 O.2       12 UNK        -0.5000 
     74 N          -0.9198  -21.4169  -46.0961 N.am      13 UNK        -0.5000 
     75 CA         -1.8358  -22.5383  -45.8917 C.3       13 UNK         0.1400 
     76 CB         -1.2733  -23.4816  -44.8187 C.3       13 UNK        -0.1800 
     77 C          -2.1301  -23.2934  -47.2008 C.2       13 UNK         0.5000 
     78 O          -3.2960  -23.5421  -47.5062 O.2       13 UNK        -0.5000 
     79 N          -1.0790  -23.5944  -47.9765 N.am      14 UNK        -0.5000 
     80 CA         -1.1689  -24.2309  -49.2925 C.3       14 UNK         0.1400 
     81 CB          0.2310  -24.6715  -49.7371 C.3       14 UNK        -0.1800 
     82 C          -1.8293  -23.3309  -50.3546 C.2       14 UNK         0.5000 
     83 O          -2.5594  -23.8323  -51.2102 O.2       14 UNK        -0.5000 
     84 N          -1.6044  -22.0129  -50.2624 N.am      15 UNK        -0.5000 
     85 CA         -2.2908  -20.9911  -51.0556 C.3       15 UNK         0.1400 
     86 CB         -1.5429  -19.6539  -50.9312 C.3       15 UNK        -0.1800 
     87 C          -3.7743  -20.8080  -50.6740 C.2       15 UNK         0.5000 
     88 O          -4.4865  -20.1243  -51.4083 O.2       15 UNK        -0.5000 
     89 N          -4.2159  -21.4144  -49.5608 N.am      16 UNK        -0.5000 
     90 CA         -5.5466  -21.3033  -48.9585 C.3       16 UNK         0.1400 
     91 CB         -6.6160  -21.9714  -49.8466 C.3       16 UNK        -0.1800 
     92 C          -5.8638  -19.8452  -48.5749 C.2       16 UNK         0.5000 
     93 O          -6.9170  -19.3106  -48.9273 O.2       16 UNK        -0.5000 
     94 N          -4.8981  -19.2252  -47.8843 N.am      17 UNK        -0.5000 
     95 CA         -4.8211  -17.8107  -47.5402 C.3       17 UNK         0.1400 
     96 CB         -5.9379  -17.4086  -46.5495 C.3       17 UNK        -0.1800 
     97 C          -4.7318  -16.9479  -48.8117 C.2       17 UNK         0.5000 
     98 O          -3.8507  -17.1861  -49.6364 O.2       17 UNK        -0.5000 
     99 N          -5.6244  -15.9613  -48.9508 N.am      18 UNK        -0.5000 
    100 CA        -5.6519  -15.0058  -50.0589 C.3       18 UNK         0.1400 
    101 CB        -6.4718  -13.7819  -49.6194 C.3       18 UNK        -0.1800 
    102 C         -6.1916  -15.5807  -51.3878 C.2       18 UNK         0.5000 
    103 O         -6.1728  -14.8674  -52.3914 O.2       18 UNK        -0.5000 
    104 N         -6.6828  -16.8296  -51.3849 N.am      19 UNK        -0.5000 
    105 CA        -7.2902  -17.4908  -52.5446 C.3       19 UNK         0.1400 
    106 CB        -7.9721  -18.7858  -52.0843 C.3       19 UNK        -0.1800 
    107 C         -6.3090  -17.7875  -53.6965 C.2       19 UNK         0.5000 
    108 O         -6.7445  -17.8477  -54.8471 O.2       19 UNK        -0.5000 
    109 N         -5.0200  -17.9630  -53.3684 N.am      20 UNK        -0.5000 
    110 CA        -3.9090  -18.2745  -54.2751 C.3       20 UNK         0.1400 
    111 CB        -3.6682  -17.1155  -55.2668 C.3       20 UNK        -0.1800 
    112 C         -4.0795  -19.6420  -54.9730 C.2       20 UNK         0.5000 
    113 O         -3.9093  -19.7404  -56.1890 O.2       20 UNK        -0.5000 
    114 N         -4.4368  -20.6641  -54.1826 N.am      21 UNK        -0.5000 
    115 CA        -4.6590  -22.0457  -54.6109 C.3       21 UNK         0.1400 
    116 CB        -5.3883  -22.8135  -53.4919 C.3       21 UNK        -0.1800 
    117 C         -3.3562  -22.7368  -55.0680 C.2       21 UNK         0.5000 
    118 O         -3.0409  -22.7005  -56.2578 O.2       21 UNK        -0.5000 
    119 N         -2.6274  -23.3642  -54.1320 N.am      22 UNK        -0.5000 
    120 CA        -1.3783  -24.1088  -54.3822 C.3       22 UNK         0.1400 
    121 C         -1.5537  -25.4048  -55.2380 C.2       22 UNK         0.5000 
    122 N         -2.7412  -25.9969  -55.2899 N.am      22 UNK        -0.7600 
    123 O         -0.6097  -25.8996  -55.8475 O.2       22 UNK        -0.5000 
    124 C124       -0.2264  -23.1767  -54.8639 C.3       23 UNK        -0.0398 
    125 S125        1.4251  -23.7271  -54.3076 S.3       23 UNK        -0.2404 
    126 C126        1.4732  -23.0930  -52.6030 C.3       23 UNK        -0.0205 
    127 H127       -3.1601  -14.5245  -52.2600 H         1 UNK         0.0600 
    128 H128       -2.9924  -16.2375  -51.8557 H         1 UNK         0.0600 
    129 H129       -2.0168  -15.5301  -53.1454 H         1 UNK         0.0600 
    130 H130       -0.1513  -16.3624  -52.0251 H         1 UNK         0.3000 
    131 H131        1.4488  -14.4941  -50.9394 H         1 UNK         0.0600 
    132 H132        3.0218  -16.3815  -50.3738 H         1 UNK         0.0800 
    133 H133        1.7346  -17.5284  -50.6376 H         1 UNK         0.0800 
    134 H134        1.8316  -18.1220  -54.3691 H         1 UNK         0.0800 
    135 H135        0.7259  -18.1021  -53.0188 H         1 UNK         0.0800 
    136 H136        0.7389  -20.5747  -53.3457 H         1 UNK         0.1150 
    137 H137        3.9620  -22.7502  -51.5431 H         1 UNK         0.1150 
    138 H138        4.2720  -18.5180  -52.0524 H         1 UNK         0.1150 
    139 H139        6.2958  -21.2688  -51.5902 H         1 UNK         0.0800 
    140 H140        6.0478  -19.6342  -51.0348 H         1 UNK         0.0800 
    141 H141        3.7482  -19.6096  -49.3288 H         1 UNK         0.0800 
    142 H142        4.4250  -19.7590  -47.7410 H         1 UNK         0.0800 
    143 H143        2.9690  -22.1492  -48.9552 H         1 UNK         0.0600 
    144 H144        4.0038  -21.5848  -46.3587 H         1 UNK         0.3000 
    145 H145        2.0402  -23.9575  -44.5590 H         1 UNK         0.0600 
    146 H146        4.2847  -24.8309  -44.0033 H         1 UNK         0.0600 
    147 H147        3.8605  -25.2814  -45.6466 H         1 UNK         0.0600 
    148 H148        4.9966  -23.9673  -45.3669 H         1 UNK         0.0600 
    149 H149        4.1502  -22.3485  -43.6526 H         1 UNK         0.3000 
    150 H150        3.9063  -20.6241  -42.3805 H         1 UNK         0.0600 
    151 H151        3.6556  -18.9719  -44.2386 H         1 UNK         0.0600 
    152 H152        3.4660  -18.2222  -42.6611 H         1 UNK         0.0600 
    153 H153        2.0517  -18.5513  -43.6533 H         1 UNK         0.0600 
    154 H154        1.3744  -19.4788  -41.5147 H         1 UNK         0.3000 
    155 H155        1.0435  -21.8401  -38.8097 H         1 UNK         0.0600 
    156 H156        1.9346  -18.9101  -38.7462 H         1 UNK         0.0600 
    157 H157        2.8196  -20.2588  -38.0403 H         1 UNK         0.0600 
    158 H158        1.2447  -19.8162  -37.4003 H         1 UNK         0.0600 
    159 H159       -0.2097  -19.6739  -40.4150 H         1 UNK         0.3000 
    160 H160       -3.4020  -20.8040  -39.4903 H         1 UNK         0.0600 
    161 H161       -2.2916  -18.1408  -38.4490 H         1 UNK         0.0600 
    162 H162       -3.1142  -19.3535  -37.4743 H         1 UNK         0.0600 
    163 H163       -3.9920  -18.5088  -38.7394 H         1 UNK         0.0600 
    164 H164       -2.5178  -18.4342  -40.8633 H         1 UNK         0.3000 
    165 H165       -1.4032  -19.8531  -43.7846 H         1 UNK         0.0600 
    166 H166       -3.2402  -18.8224  -45.0845 H         1 UNK         0.0600 
    167 H167       -3.8259  -20.2824  -44.3094 H         1 UNK         0.0600 
    168 H168       -4.2443  -18.7081  -43.6426 H         1 UNK         0.0600 
    169 H169       -2.2368  -17.2235  -43.5517 H         1 UNK         0.3000 
    170 H170       -0.2383  -15.7441  -41.2166 H         1 UNK         0.0600 
    171 H171        1.7718  -16.2239  -42.5815 H         1 UNK         0.0600 
    172 H172        0.8613  -15.9612  -44.0645 H         1 UNK         0.0600 
    173 H173        1.1649  -14.6203  -42.9590 H         1 UNK         0.0600 
    174 H174       -1.2392  -14.6514  -43.6550 H         1 UNK         0.3000 
    175 H175       -4.6339  -14.8280  -43.1044 H         1 UNK         0.0600 
    176 H176       -3.1741  -12.2696  -42.2548 H         1 UNK         0.0600 
    177 H177       -4.8527  -12.3784  -42.7879 H         1 UNK         0.0600 
    178 H178       -4.3591  -13.1332  -41.2822 H         1 UNK         0.0600 
    179 H179       -3.2828  -12.9023  -44.6429 H         1 UNK         0.3000 
    180 H180       -3.2850  -14.7682  -47.5532 H         1 UNK         0.0600 
    181 H181       -2.8217  -11.9761  -46.3888 H         1 UNK         0.0600 
    182 H182       -4.4096  -12.6592  -46.7471 H         1 UNK         0.0600 
    183 H183       -3.2589  -12.3878  -48.0415 H         1 UNK         0.0600 
    184 H184       -1.1802  -14.3521  -48.1495 H         1 UNK         0.3000 
    185 H185        1.3461  -12.7124  -47.0698 H         1 UNK         0.0600 
    186 H186        1.9650  -15.5923  -46.2494 H         1 UNK         0.0600 
    187 H187        3.1460  -14.3921  -46.7611 H         1 UNK         0.0600 
    188 H188        2.2391  -14.1516  -45.2804 H         1 UNK         0.0600 
    189 H189        1.3313  -13.3830  -49.1411 H         1 UNK         0.3000 
    190 H190        1.8712  -19.8872  -46.4125 H         1 UNK         0.3000 
    191 H191       -0.2789  -18.7792  -47.9786 H         1 UNK         0.0600 
    192 H192       -0.9595  -17.7780  -45.8141 H         1 UNK         0.0600 
    193 H193        0.7623  -17.5656  -46.0770 H         1 UNK         0.0600 
    194 H194        0.2026  -18.7979  -44.9615 H         1 UNK         0.0600 
    195 H195       -0.0240  -21.4646  -45.6194 H         1 UNK         0.3000 
    196 H196       -2.7794  -22.1336  -45.5214 H         1 UNK         0.0600 
    197 H197       -1.9745  -24.2888  -44.6045 H         1 UNK         0.0600 
    198 H198       -1.0919  -22.9511  -43.8836 H         1 UNK         0.0600 
    199 H199       -0.3345  -23.9372  -45.1315 H         1 UNK         0.0600 
    200 H200       -0.1419  -23.3900  -47.6369 H         1 UNK         0.3000 
    201 H201       -1.7883  -25.1245  -49.1922 H         1 UNK         0.0600 
    202 H202        0.6527  -25.3971  -49.0415 H         1 UNK         0.0600 
    203 H203        0.9166  -23.8249  -49.7872 H         1 UNK         0.0600 
    204 H204        0.2006  -25.1435  -50.7198 H         1 UNK         0.0600 
    205 H205       -0.9186  -21.6752  -49.5936 H         1 UNK         0.3000 
    206 H206       -2.2584  -21.2957  -52.1029 H         1 UNK         0.0600 
    207 H207       -0.5040  -19.7463  -51.2447 H         1 UNK         0.0600 
    208 H208       -2.0021  -18.8833  -51.5501 H         1 UNK         0.0600 
    209 H209       -1.5526  -19.2855  -49.9060 H         1 UNK         0.0600 
    210 H210       -3.5487  -21.9515  -49.0218 H         1 UNK         0.3000 
    211 H211       -5.5088  -21.8601  -48.0212 H         1 UNK         0.0600 
    212 H212       -6.6904  -21.5024  -50.8258 H         1 UNK         0.0600 
    213 H213       -7.6007  -21.9184  -49.3812 H         1 UNK         0.0600 
    214 H214       -6.3871  -23.0254  -50.0037 H         1 UNK         0.0600 
    215 H215       -4.0293  -19.7334  -47.7256 H         1 UNK         0.3000 
    216 H216       -3.8632  -17.6862  -47.0376 H         1 UNK         0.0600 
    217 H217       -5.8080  -16.3824  -46.2044 H         1 UNK         0.0600 
    218 H218       -5.9139  -18.0439  -45.6642 H         1 UNK         0.0600 
    219 H219       -6.9332  -17.4914  -46.9864 H         1 UNK         0.0600 
    220 H220       -6.3410  -15.8558  -48.2474 H         1 UNK         0.3000 
    221 H221       -4.6292  -14.6721  -50.2447 H         1 UNK         0.0600 
    222 H222       -7.5099  -14.0462  -49.4147 H         1 UNK         0.0600 
    223 H223       -6.0552  -13.3298  -48.7192 H         1 UNK         0.0600 
    224 H224       -6.4753  -13.0124  -50.3925 H         1 UNK         0.0600 
    225 H225       -6.6538  -17.3618  -50.5253 H         1 UNK         0.3000 
    226 H226       -8.0613  -16.8250  -52.9378 H         1 UNK         0.0600 
    227 H227       -7.2433  -19.4899  -51.6861 H         1 UNK         0.0600 
    228 H228       -8.7126  -18.5929  -51.3080 H         1 UNK         0.0600 
    229 H229       -8.4850  -19.2767  -52.9122 H         1 UNK         0.0600 
    230 H230       -4.7957  -17.9772  -52.3814 H         1 UNK         0.3000 
    231 H231       -3.0203  -18.3580  -53.6494 H         1 UNK         0.0600 
    232 H232       -2.7266  -17.2498  -55.8002 H         1 UNK         0.0600 
    233 H233       -3.6215  -16.1551  -54.7555 H         1 UNK         0.0600 
    234 H234       -4.4591  -17.0495  -56.0146 H         1 UNK         0.0600 
    235 H235       -4.5703  -20.4689  -53.1924 H         1 UNK         0.3000 
    236 H236       -5.3259  -22.0211  -55.4752 H         1 UNK         0.0600 
    237 H237       -6.3603  -22.3657  -53.2837 H         1 UNK         0.0600 
    238 H238       -5.5668  -23.8500  -53.7801 H         1 UNK         0.0600 
    239 H239       -4.8264  -22.8231  -52.5584 H         1 UNK         0.0600 
    240 H240       -2.9516  -23.3920  -53.1710 H         1 UNK         0.3000 
    241 H241       -1.0984  -24.4854  -53.3985 H         1 UNK         0.0600 
    242 H242       -3.5278  -25.6193  -54.7869 H         1 UNK         0.3800 
    243 H243       -2.8523  -26.8361  -55.8374 H         1 UNK         0.3800 
    244 H244       -0.2253  -23.0944  -55.9519 H         1 UNK         0.0800 
    245 H245       -0.3828  -22.1626  -54.4980 H         1 UNK         0.0800 
    246 H246        1.9183  -23.8648  -51.9747 H         1 UNK         0.0800 
    247 H247        0.4632  -22.9344  -52.2257 H         1 UNK         0.0800 
@<TRIPOS>BOND
     1    1    2 1    
     2    1  127 1    
     3    1  128 1    
     4    1  129 1    
     5    2    3 2    
     6    2    4 am   BACKBONE|DICT|INTERRES
     7    4    5 1    
     8    4  130 1    
     9    5    6 1    
    10    5   65 1    
    11    5  131 1    
    12    6    7 1    
    13    6  132 1    
    14    6  133 1    
    15    7    8 1    
    16    8    9 1    
    17    8  134 1    
    18    8  135 1    
    19    9   10 ar   
    20    9   14 ar   
    21   10   11 ar   
    22   10  136 1    
    23   11   12 ar   
    24   11  126 1    
    25   12   13 ar   
    26   12  137 1    
    27   13   14 ar   
    28   13   15 1    
    29   14  138 1    
    30   15   16 1    
    31   15  139 1    
    32   15  140 1    
    33   16   17 1    
    34   17   18 1    
    35   17  141 1    
    36   17  142 1    
    37   18   19 1    
    38   18   67 1    
    39   18  143 1    
    40   19   20 am   BACKBONE|DICT|INTERRES
    41   19  144 1    
    42   20   21 2    
    43   20   22 1    
    44   22   23 1    
    45   22   24 1    
    46   22  145 1    
    47   23  146 1    
    48   23  147 1    
    49   23  148 1    
    50   24   25 am   BACKBONE|DICT|INTERRES
    51   24  149 1    
    52   25   26 2    
    53   25   27 1    
    54   27   28 1    
    55   27   29 1    
    56   27  150 1    
    57   28  151 1    
    58   28  152 1    
    59   28  153 1    
    60   29   30 am   BACKBONE|DICT|INTERRES
    61   29  154 1    
    62   30   31 2    
    63   30   32 1    
    64   32   33 1    
    65   32   34 1    
    66   32  155 1    
    67   33  156 1    
    68   33  157 1    
    69   33  158 1    
    70   34   35 am   BACKBONE|DICT|INTERRES
    71   34  159 1    
    72   35   36 2    
    73   35   37 1    
    74   37   38 1    
    75   37   39 1    
    76   37  160 1    
    77   38  161 1    
    78   38  162 1    
    79   38  163 1    
    80   39   40 am   BACKBONE|DICT|INTERRES
    81   39  164 1    
    82   40   41 2    
    83   40   42 1    
    84   42   43 1    
    85   42   44 1    
    86   42  165 1    
    87   43  166 1    
    88   43  167 1    
    89   43  168 1    
    90   44   45 am   BACKBONE|DICT|INTERRES
    91   44  169 1    
    92   45   46 2    
    93   45   47 1    
    94   47   48 1    
    95   47   49 1    
    96   47  170 1    
    97   48  171 1    
    98   48  172 1    
    99   48  173 1    
   100   49   50 am   BACKBONE|DICT|INTERRES
   101   49  174 1    
   102   50   51 2    
   103   50   52 1    
   104   52   53 1    
   105   52   54 1    
   106   52  175 1    
   107   53  176 1    
   108   53  177 1    
   109   53  178 1    
   110   54   55 am   BACKBONE|DICT|INTERRES
   111   54  179 1    
   112   55   56 2    
   113   55   57 1    
   114   57   58 1    
   115   57   59 1    
   116   57  180 1    
   117   58  181 1    
   118   58  182 1    
   119   58  183 1    
   120   59   60 am   BACKBONE|DICT|INTERRES
   121   59  184 1    
   122   60   61 2    
   123   60   62 1    
   124   62   63 1    
   125   62   64 1    
   126   62  185 1    
   127   63  186 1    
   128   63  187 1    
   129   63  188 1    
   130   64   65 am   BACKBONE|DICT|INTERRES
   131   64  189 1    
   132   65   66 2    
   133   67   68 2    
   134   67   69 am   BACKBONE|DICT|INTERRES
   135   69   70 1    
   136   69  190 1    
   137   70   71 1    
   138   70   72 1    
   139   70  191 1    
   140   71  192 1    
   141   71  193 1    
   142   71  194 1    
   143   72   73 2    
   144   72   74 am   BACKBONE|DICT|INTERRES
   145   74   75 1    
   146   74  195 1    
   147   75   76 1    
   148   75   77 1    
   149   75  196 1    
   150   76  197 1    
   151   76  198 1    
   152   76  199 1    
   153   77   78 2    
   154   77   79 am   BACKBONE|DICT|INTERRES
   155   79   80 1    
   156   79  200 1    
   157   80   81 1    
   158   80   82 1    
   159   80  201 1    
   160   81  202 1    
   161   81  203 1    
   162   81  204 1    
   163   82   83 2    
   164   82   84 am   BACKBONE|DICT|INTERRES
   165   84   85 1    
   166   84  205 1    
   167   85   86 1    
   168   85   87 1    
   169   85  206 1    
   170   86  207 1    
   171   86  208 1    
   172   86  209 1    
   173   87   88 2    
   174   87   89 am   BACKBONE|DICT|INTERRES
   175   89   90 1    
   176   89  210 1    
   177   90   91 1    
   178   90   92 1    
   179   90  211 1    
   180   91  212 1    
   181   91  213 1    
   182   91  214 1    
   183   92   93 2    
   184   92   94 am   BACKBONE|DICT|INTERRES
   185   94   95 1    
   186   94  215 1    
   187   95   96 1    
   188   95   97 1    
   189   95  216 1    
   190   96  217 1    
   191   96  218 1    
   192   96  219 1    
   193   97   98 2    
   194   97   99 am   BACKBONE|DICT|INTERRES
   195   99  100 1    
   196   99  220 1    
   197  100  101 1    
   198  100  102 1    
   199  100  221 1    
   200  101  222 1    
   201  101  223 1    
   202  101  224 1    
   203  102  103 2    
   204  102  104 am   BACKBONE|DICT|INTERRES
   205  104  105 1    
   206  104  225 1    
   207  105  106 1    
   208  105  107 1    
   209  105  226 1    
   210  106  227 1    
   211  106  228 1    
   212  106  229 1    
   213  107  108 2    
   214  107  109 am   BACKBONE|DICT|INTERRES
   215  109  110 1    
   216  109  230 1    
   217  110  111 1    
   218  110  112 1    
   219  110  231 1    
   220  111  232 1    
   221  111  233 1    
   222  111  234 1    
   223  112  113 2    
   224  112  114 am   BACKBONE|DICT|INTERRES
   225  114  115 1    
   226  114  235 1    
   227  115  116 1    
   228  115  117 1    
   229  115  236 1    
   230  116  237 1    
   231  116  238 1    
   232  116  239 1    
   233  117  118 2    
   234  117  119 am   BACKBONE|DICT|INTERRES
   235  119  120 1    
   236  119  240 1    
   237  120  121 1    
   238  120  124 1    
   239  120  241 1    
   240  121  122 am   BACKBONE|DICT|INTERRES
   241  121  123 2    
   242  122  242 1    
   243  122  243 1    
   244  124  125 1    
   245  124  244 1    
   246  124  245 1    
   247  125  126 1    
   248  126  246 1    
   249  126  247 1    
@<TRIPOS>SUBSTRUCTURE
     1 UNK         1 GROUP             0       ****    0 ROOT    
