@<TRIPOS>MOLECULE
3R540
247   249    1
SMALL
USER_CHARGES


@<TRIPOS>ATOM
      1 CA         -7.5189  -15.2292  -47.8168 C.3       0 UNK        -0.1800 
      2 C          -6.1242  -14.9505  -48.3566 C.2       0 UNK         0.5000 
      3 O          -5.9715  -14.1223  -49.2545 O.2       0 UNK        -0.5000 
      4 N          -5.1121  -15.6437  -47.8221 N.am      1 UNK        -0.5000 
      5 CA         -3.7000  -15.4701  -48.1674 C.3       1 UNK         0.1400 
      6 C6         -2.8309  -16.5831  -47.5383 C.3       23 UNK        -0.0398 
      7 S7         -1.1423  -16.6477  -48.2312 S.3       23 UNK        -0.2404 
      8 C8         -1.1803  -18.2685  -49.0582 C.3       23 UNK        -0.0205 
      9 C9          0.1613  -18.6832  -49.6515 C.ar      23 UNK        -0.0193 
     10 C10         0.1925  -19.2557  -50.9254 C.ar      23 UNK        -0.1150 
     11 C11         1.3928  -19.7083  -51.4782 C.ar      23 UNK        -0.0193 
     12 C12         2.5747  -19.5824  -50.7454 C.ar      23 UNK        -0.1150 
     13 C13         2.5653  -19.0085  -49.4709 C.ar      23 UNK        -0.0193 
     14 C14         1.3549  -18.5626  -48.9272 C.ar      23 UNK        -0.1150 
     15 C15         3.8743  -18.8586  -48.7031 C.3       23 UNK        -0.0205 
     16 S16         3.9081  -19.7772  -47.1299 S.3       23 UNK        -0.2404 
     17 C17         3.3684  -21.4488  -47.6227 C.3       23 UNK        -0.0398 
     18 CA          4.0612  -22.6026  -46.8497 C.3       11 UNK         0.1400 
     19 N           3.9939  -22.4375  -45.3898 N.am      11 UNK        -0.5000 
     20 C           4.6803  -23.1701  -44.4993 C.2       10 UNK         0.5000 
     21 O           5.5248  -24.0092  -44.8138 O.2       10 UNK        -0.5000 
     22 CA          4.3365  -22.9683  -43.0119 C.3       10 UNK         0.1400 
     23 CB          5.2265  -21.8860  -42.3810 C.3       10 UNK        -0.1800 
     24 N           2.9258  -22.6242  -42.8212 N.am      10 UNK        -0.5000 
     25 C           1.9220  -23.5135  -42.8236 C.2       9 UNK         0.5000 
     26 O           2.0900  -24.7284  -42.9299 O.2       9 UNK        -0.5000 
     27 CA          0.4858  -22.9594  -42.7234 C.3       9 UNK         0.1400 
     28 CB          0.0712  -22.8012  -41.2532 C.3       9 UNK        -0.1800 
     29 N           0.3061  -21.6806  -43.4095 N.am      9 UNK        -0.5000 
     30 C           0.4600  -21.4874  -44.7260 C.2       8 UNK         0.5000 
     31 O           0.6982  -22.3902  -45.5282 O.2       8 UNK        -0.5000 
     32 CA          0.3884  -20.0332  -45.2265 C.3       8 UNK         0.1400 
     33 CB         -1.0591  -19.6678  -45.5563 C.3       8 UNK        -0.1800 
     34 N           0.9332  -19.0466  -44.2898 N.am      8 UNK        -0.5000 
     35 C           2.1767  -19.0663  -43.7861 C.2       7 UNK         0.5000 
     36 O           2.9905  -19.9607  -44.0053 O.2       7 UNK        -0.5000 
     37 CA          2.5588  -17.9222  -42.8395 C.3       7 UNK         0.1400 
     38 CB          2.8282  -16.6380  -43.6313 C.3       7 UNK        -0.1800 
     39 N           1.5039  -17.6938  -41.8557 N.am      7 UNK        -0.5000 
     40 C           1.3274  -18.4542  -40.7659 C.2       6 UNK         0.5000 
     41 O           2.0903  -19.3615  -40.4322 O.2       6 UNK        -0.5000 
     42 CA          0.0718  -18.1743  -39.9193 C.3       6 UNK         0.1400 
     43 CB          0.3528  -17.0784  -38.8802 C.3       6 UNK        -0.1800 
     44 N          -1.0889  -17.7890  -40.7232 N.am      6 UNK        -0.5000 
     45 C          -1.6960  -18.5807  -41.6184 C.2       5 UNK         0.5000 
     46 O          -1.3508  -19.7376  -41.8584 O.2       5 UNK        -0.5000 
     47 CA         -2.8647  -17.9592  -42.4049 C.3       5 UNK         0.1400 
     48 CB         -4.1951  -18.2008  -41.6774 C.3       5 UNK        -0.1800 
     49 N          -2.7111  -16.5271  -42.6733 N.am      5 UNK        -0.5000 
     50 C          -1.7224  -15.9793  -43.3927 C.2       4 UNK         0.5000 
     51 O          -0.7774  -16.6262  -43.8540 O.2       4 UNK        -0.5000 
     52 CA         -1.8421  -14.4613  -43.6250 C.3       4 UNK         0.1400 
     53 CB         -1.5820  -13.6614  -42.3318 C.3       4 UNK        -0.1800 
     54 N          -1.0210  -13.9963  -44.7469 N.am      4 UNK        -0.5000 
     55 C           0.3076  -13.8111  -44.8059 C.2       3 UNK         0.5000 
     56 O           1.0582  -13.8695  -43.8323 O.2       3 UNK        -0.5000 
     57 CA          0.9151  -13.5080  -46.1936 C.3       3 UNK         0.1400 
     58 CB          1.8082  -14.6702  -46.6598 C.3       3 UNK        -0.1800 
     59 N          -0.0970  -13.2594  -47.2222 N.am      3 UNK        -0.5000 
     60 C          -0.7430  -12.0982  -47.3981 C.2       2 UNK         0.5000 
     61 O          -0.5014  -11.0771  -46.7542 O.2       2 UNK        -0.5000 
     62 CA         -1.8696  -12.0839  -48.4514 C.3       2 UNK         0.1400 
     63 CB         -1.3457  -11.5495  -49.7930 C.3       2 UNK        -0.1800 
     64 N          -2.4833  -13.3976  -48.6696 N.am      2 UNK        -0.5000 
     65 C          -3.1955  -14.0716  -47.7562 C.2       1 UNK         0.5000 
     66 O          -3.4126  -13.6570  -46.6155 O.2       1 UNK        -0.5000 
     67 C           3.4506  -23.9456  -47.3159 C.2       11 UNK         0.5000 
     68 O           3.7750  -24.4043  -48.4116 O.2       11 UNK        -0.5000 
     69 N           2.5543  -24.5157  -46.4935 N.am      12 UNK        -0.5000 
     70 CA          1.6575  -25.6415  -46.7758 C.3       12 UNK         0.1400 
     71 CB          2.4444  -26.9378  -47.0600 C.3       12 UNK        -0.1800 
     72 C           0.6314  -25.2850  -47.8730 C.2       12 UNK         0.5000 
     73 O           0.3082  -26.1159  -48.7243 O.2       12 UNK        -0.5000 
     74 N           0.1572  -24.0347  -47.8327 N.am      13 UNK        -0.5000 
     75 CA         -0.7981  -23.4522  -48.7671 C.3       13 UNK         0.1400 
     76 CB         -0.3798  -21.9970  -49.0210 C.3       13 UNK        -0.1800 
     77 C          -2.2367  -23.5347  -48.2234 C.2       13 UNK         0.5000 
     78 O          -2.4602  -24.0009  -47.1036 O.2       13 UNK        -0.5000 
     79 N          -3.1929  -23.0760  -49.0425 N.am      14 UNK        -0.5000 
     80 CA         -4.6328  -23.1100  -48.7713 C.3       14 UNK         0.1400 
     81 CB         -5.3825  -22.6982  -50.0476 C.3       14 UNK        -0.1800 
     82 C          -5.0887  -22.2328  -47.5893 C.2       14 UNK         0.5000 
     83 O          -6.1116  -22.5440  -46.9784 O.2       14 UNK        -0.5000 
     84 N          -4.3500  -21.1464  -47.3107 N.am      15 UNK        -0.5000 
     85 CA         -4.5447  -20.1423  -46.2501 C.3       15 UNK         0.1400 
     86 CB         -4.5078  -20.7854  -44.8503 C.3       15 UNK        -0.1800 
     87 C          -5.7925  -19.2545  -46.4201 C.2       15 UNK         0.5000 
     88 O          -5.6935  -18.0348  -46.2835 O.2       15 UNK        -0.5000 
     89 N          -6.9291  -19.8730  -46.7501 N.am      16 UNK        -0.5000 
     90 CA         -8.2160  -19.2361  -47.0271 C.3       16 UNK         0.1400 
     91 CB         -9.3286  -20.2573  -46.7379 C.3       16 UNK        -0.1800 
     92 C          -8.3305  -18.6908  -48.4667 C.2       16 UNK         0.5000 
     93 O          -9.3851  -18.1656  -48.8260 O.2       16 UNK        -0.5000 
     94 N          -7.2662  -18.8225  -49.2664 N.am      17 UNK        -0.5000 
     95 CA         -7.1699  -18.3455  -50.6398 C.3       17 UNK         0.1400 
     96 CB         -7.4793  -19.5052  -51.6003 C.3       17 UNK        -0.1800 
     97 C          -5.7673  -17.7720  -50.8870 C.2       17 UNK         0.5000 
     98 O          -4.8311  -18.0810  -50.1438 O.2       17 UNK        -0.5000 
     99 N          -5.6678  -16.9389  -51.9290 N.am      18 UNK        -0.5000 
    100 CA        -4.4502  -16.2677  -52.3828 C.3       18 UNK         0.1400 
    101 CB        -4.8602  -15.1432  -53.3502 C.3       18 UNK        -0.1800 
    102 C         -3.4393  -17.2264  -53.0446 C.2       18 UNK         0.5000 
    103 O         -3.7271  -18.4101  -53.2320 O.2       18 UNK        -0.5000 
    104 N         -2.2776  -16.6771  -53.4297 N.am      19 UNK        -0.5000 
    105 CA        -1.1363  -17.3831  -54.0264 C.3       19 UNK         0.1400 
    106 CB        -0.0083  -16.3774  -54.2977 C.3       19 UNK        -0.1800 
    107 C         -1.4436  -18.2090  -55.2924 C.2       19 UNK         0.5000 
    108 O         -0.7307  -19.1735  -55.5708 O.2       19 UNK        -0.5000 
    109 N         -2.5222  -17.8582  -56.0062 N.am      20 UNK        -0.5000 
    110 CA        -3.0686  -18.6113  -57.1373 C.3       20 UNK         0.1400 
    111 CB        -4.2569  -17.8348  -57.7240 C.3       20 UNK        -0.1800 
    112 C         -3.4905  -20.0534  -56.7818 C.2       20 UNK         0.5000 
    113 O         -3.4595  -20.9206  -57.6564 O.2       20 UNK        -0.5000 
    114 N         -3.8324  -20.3029  -55.5072 N.am      21 UNK        -0.5000 
    115 CA        -4.1851  -21.6223  -54.9762 C.3       21 UNK         0.1400 
    116 CB        -4.7180  -21.4661  -53.5449 C.3       21 UNK        -0.1800 
    117 C         -3.0271  -22.6402  -55.0112 C.2       21 UNK         0.5000 
    118 O         -3.2902  -23.8436  -55.0100 O.2       21 UNK        -0.5000 
    119 N         -1.7795  -22.1538  -55.0667 N.am      22 UNK        -0.5000 
    120 CA        -0.5776  -22.9775  -55.2735 C.3       22 UNK         0.1400 
    121 C         -0.3597  -23.4135  -56.7548 C.2       22 UNK         0.5000 
    122 N         -1.1406  -22.9443  -57.7228 N.am      22 UNK        -0.7600 
    123 O          0.5347  -24.2076  -57.0333 O.2       22 UNK        -0.5000 
    124 C124        0.6986  -22.3072  -54.7029 C.3       23 UNK        -0.0398 
    125 S125        0.5798  -21.9344  -52.9187 S.3       23 UNK        -0.2404 
    126 C126        1.4131  -20.3183  -52.8707 C.3       23 UNK        -0.0205 
    127 H127       -7.9446  -14.3202  -47.3921 H         1 UNK         0.0600 
    128 H128       -7.5070  -15.9931  -47.0393 H         1 UNK         0.0600 
    129 H129       -8.1714  -15.5682  -48.6212 H         1 UNK         0.0600 
    130 H130       -5.3113  -16.3445  -47.1131 H         1 UNK         0.3000 
    131 H131       -3.6292  -15.5621  -49.2518 H         1 UNK         0.0600 
    132 H132       -2.7663  -16.4705  -46.4543 H         1 UNK         0.0800 
    133 H133       -3.3109  -17.5468  -47.7085 H         1 UNK         0.0800 
    134 H134       -1.4905  -19.0339  -48.3489 H         1 UNK         0.0800 
    135 H135       -1.9484  -18.2369  -49.8334 H         1 UNK         0.0800 
    136 H136       -0.7274  -19.3822  -51.4777 H         1 UNK         0.1150 
    137 H137        3.5060  -19.9283  -51.1714 H         1 UNK         0.1150 
    138 H138        1.3438  -18.1303  -47.9366 H         1 UNK         0.1150 
    139 H139        4.7192  -19.1845  -49.3116 H         1 UNK         0.0800 
    140 H140        4.0404  -17.8011  -48.4938 H         1 UNK         0.0800 
    141 H141        2.2861  -21.4925  -47.4977 H         1 UNK         0.0800 
    142 H142        3.5500  -21.5693  -48.6922 H         1 UNK         0.0800 
    143 H143        5.1164  -22.6099  -47.1304 H         1 UNK         0.0600 
    144 H144        3.3895  -21.6997  -45.0439 H         1 UNK         0.3000 
    145 H145        4.5397  -23.9076  -42.4932 H         1 UNK         0.0600 
    146 H146        4.9834  -21.7391  -41.3285 H         1 UNK         0.0600 
    147 H147        5.1238  -20.9256  -42.8858 H         1 UNK         0.0600 
    148 H148        6.2780  -22.1701  -42.4360 H         1 UNK         0.0600 
    149 H149        2.7064  -21.6349  -42.8115 H         1 UNK         0.3000 
    150 H150       -0.1820  -23.6848  -43.1926 H         1 UNK         0.0600 
    151 H151        0.1863  -23.7397  -40.7094 H         1 UNK         0.0600 
    152 H152       -0.9741  -22.5028  -41.1692 H         1 UNK         0.0600 
    153 H153        0.6750  -22.0480  -40.7450 H         1 UNK         0.0600 
    154 H154        0.0380  -20.8892  -42.8334 H         1 UNK         0.3000 
    155 H155        0.9746  -19.9662  -46.1438 H         1 UNK         0.0600 
    156 H156       -1.4602  -20.3311  -46.3217 H         1 UNK         0.0600 
    157 H157       -1.1400  -18.6439  -45.9195 H         1 UNK         0.0600 
    158 H158       -1.6940  -19.7669  -44.6789 H         1 UNK         0.0600 
    159 H159        0.3326  -18.2595  -44.0630 H         1 UNK         0.3000 
    160 H160        3.4799  -18.1981  -42.3214 H         1 UNK         0.0600 
    161 H161        1.9543  -16.3415  -44.2100 H         1 UNK         0.0600 
    162 H162        3.6522  -16.7775  -44.3322 H         1 UNK         0.0600 
    163 H163        3.0929  -15.8111  -42.9723 H         1 UNK         0.0600 
    164 H164        0.8067  -17.0007  -42.0906 H         1 UNK         0.3000 
    165 H165       -0.1798  -19.0946  -39.3878 H         1 UNK         0.0600 
    166 H166       -0.5031  -16.9302  -38.2215 H         1 UNK         0.0600 
    167 H167        1.2029  -17.3461  -38.2512 H         1 UNK         0.0600 
    168 H168        0.5826  -16.1231  -39.3539 H         1 UNK         0.0600 
    169 H169       -1.4397  -16.8511  -40.5981 H         1 UNK         0.3000 
    170 H170       -2.9168  -18.4603  -43.3704 H         1 UNK         0.0600 
    171 H171       -4.3459  -19.2634  -41.4817 H         1 UNK         0.0600 
    172 H172       -4.2303  -17.6821  -40.7186 H         1 UNK         0.0600 
    173 H173       -5.0399  -17.8602  -42.2765 H         1 UNK         0.0600 
    174 H174       -3.4471  -15.9298  -42.3248 H         1 UNK         0.3000 
    175 H175       -2.8719  -14.2688  -43.9297 H         1 UNK         0.0600 
    176 H176       -0.6244  -13.9157  -41.8769 H         1 UNK         0.0600 
    177 H177       -1.5903  -12.5882  -42.5224 H         1 UNK         0.0600 
    178 H178       -2.3526  -13.8621  -41.5870 H         1 UNK         0.0600 
    179 H179       -1.5373  -13.8890  -45.6107 H         1 UNK         0.3000 
    180 H180        1.5409  -12.6188  -46.0928 H         1 UNK         0.0600 
    181 H181        2.6617  -14.7946  -45.9930 H         1 UNK         0.0600 
    182 H182        2.2053  -14.4918  -47.6592 H         1 UNK         0.0600 
    183 H183        1.2651  -15.6159  -46.6770 H         1 UNK         0.0600 
    184 H184       -0.3565  -14.0487  -47.7969 H         1 UNK         0.3000 
    185 H185       -2.6463  -11.4058  -48.0917 H         1 UNK         0.0600 
    186 H186       -0.9054  -10.5586  -49.6735 H         1 UNK         0.0600 
    187 H187       -0.5788  -12.2007  -50.2143 H         1 UNK         0.0600 
    188 H188       -2.1499  -11.4595  -50.5236 H         1 UNK         0.0600 
    189 H189       -2.3381  -13.8094  -49.5797 H         1 UNK         0.3000 
    190 H190        2.3428  -24.0097  -45.6434 H         1 UNK         0.3000 
    191 H191        1.0813  -25.8019  -45.8633 H         1 UNK         0.0600 
    192 H192        1.7727  -27.7954  -47.1121 H         1 UNK         0.0600 
    193 H193        3.1681  -27.1400  -46.2704 H         1 UNK         0.0600 
    194 H194        2.9832  -26.8903  -48.0064 H         1 UNK         0.0600 
    195 H195        0.4112  -23.4506  -47.0395 H         1 UNK         0.3000 
    196 H196       -0.7659  -23.9906  -49.7167 H         1 UNK         0.0600 
    197 H197       -0.3745  -21.4100  -48.1035 H         1 UNK         0.0600 
    198 H198        0.6220  -21.9489  -49.4490 H         1 UNK         0.0600 
    199 H199       -1.0495  -21.5069  -49.7273 H         1 UNK         0.0600 
    200 H200       -2.9227  -22.7201  -49.9477 H         1 UNK         0.3000 
    201 H201       -4.9032  -24.1406  -48.5323 H         1 UNK         0.0600 
    202 H202       -6.4621  -22.6999  -49.8902 H         1 UNK         0.0600 
    203 H203       -5.1752  -23.3889  -50.8648 H         1 UNK         0.0600 
    204 H204       -5.0992  -21.6963  -50.3724 H         1 UNK         0.0600 
    205 H205       -3.5560  -20.9841  -47.9120 H         1 UNK         0.3000 
    206 H206       -3.6924  -19.4686  -46.3210 H         1 UNK         0.0600 
    207 H207       -3.5855  -21.3456  -44.6959 H         1 UNK         0.0600 
    208 H208       -4.5656  -20.0263  -44.0709 H         1 UNK         0.0600 
    209 H209       -5.3418  -21.4689  -44.6906 H         1 UNK         0.0600 
    210 H210       -6.8917  -20.8861  -46.8399 H         1 UNK         0.3000 
    211 H211       -8.3438  -18.3901  -46.3489 H         1 UNK         0.0600 
    212 H212       -9.2584  -21.1235  -47.3972 H         1 UNK         0.0600 
    213 H213      -10.3163  -19.8161  -46.8772 H         1 UNK         0.0600 
    214 H214       -9.2776  -20.6144  -45.7091 H         1 UNK         0.0600 
    215 H215       -6.4055  -19.1893  -48.8844 H         1 UNK         0.3000 
    216 H216       -7.8895  -17.5404  -50.8044 H         1 UNK         0.0600 
    217 H217       -8.4921  -19.8795  -51.4507 H         1 UNK         0.0600 
    218 H218       -6.7919  -20.3381  -51.4550 H         1 UNK         0.0600 
    219 H219       -7.4004  -19.1891  -52.6410 H         1 UNK         0.0600 
    220 H220       -6.4880  -16.7797  -52.4947 H         1 UNK         0.3000 
    221 H221       -3.9630  -15.8201  -51.5160 H         1 UNK         0.0600 
    222 H222       -4.0033  -14.5436  -53.6586 H         1 UNK         0.0600 
    223 H223       -5.3262  -15.5398  -54.2533 H         1 UNK         0.0600 
    224 H224       -5.5694  -14.4612  -52.8800 H         1 UNK         0.0600 
    225 H225       -2.1359  -15.6919  -53.2616 H         1 UNK         0.3000 
    226 H226       -0.7819  -18.0875  -53.2780 H         1 UNK         0.0600 
    227 H227        0.3089  -15.8828  -53.3793 H         1 UNK         0.0600 
    228 H228        0.8687  -16.8753  -54.7139 H         1 UNK         0.0600 
    229 H229       -0.3177  -15.6086  -55.0067 H         1 UNK         0.0600 
    230 H230       -3.0530  -17.0575  -55.6982 H         1 UNK         0.3000 
    231 H231       -2.2894  -18.6774  -57.8992 H         1 UNK         0.0600 
    232 H232       -4.6757  -18.3544  -58.5869 H         1 UNK         0.0600 
    233 H233       -3.9539  -16.8428  -58.0597 H         1 UNK         0.0600 
    234 H234       -5.0575  -17.7134  -56.9931 H         1 UNK         0.0600 
    235 H235       -3.8056  -19.5448  -54.8306 H         1 UNK         0.3000 
    236 H236       -4.9898  -22.0225  -55.5962 H         1 UNK         0.0600 
    237 H237       -5.5507  -20.7646  -53.5128 H         1 UNK         0.0600 
    238 H238       -5.0790  -22.4192  -53.1576 H         1 UNK         0.0600 
    239 H239       -3.9465  -21.1037  -52.8642 H         1 UNK         0.0600 
    240 H240       -1.6385  -21.1515  -55.0818 H         1 UNK         0.3000 
    241 H241       -0.7169  -23.9068  -54.7179 H         1 UNK         0.0600 
    242 H242       -1.8937  -22.2956  -57.5280 H         1 UNK         0.3800 
    243 H243       -0.9819  -23.2468  -58.6710 H         1 UNK         0.3800 
    244 H244        0.9140  -21.3922  -55.2571 H         1 UNK         0.0800 
    245 H245        1.5660  -22.9552  -54.8402 H         1 UNK         0.0800 
    246 H246        0.9327  -19.6347  -53.5684 H         1 UNK         0.0800 
    247 H247        2.4390  -20.4400  -53.2217 H         1 UNK         0.0800 
@<TRIPOS>BOND
     1    1    2 1    
     2    1  127 1    
     3    1  128 1    
     4    1  129 1    
     5    2    3 2    
     6    2    4 am   BACKBONE|DICT|INTERRES
     7    4    5 1    
     8    4  130 1    
     9    5    6 1    
    10    5   65 1    
    11    5  131 1    
    12    6    7 1    
    13    6  132 1    
    14    6  133 1    
    15    7    8 1    
    16    8    9 1    
    17    8  134 1    
    18    8  135 1    
    19    9   10 ar   
    20    9   14 ar   
    21   10   11 ar   
    22   10  136 1    
    23   11   12 ar   
    24   11  126 1    
    25   12   13 ar   
    26   12  137 1    
    27   13   14 ar   
    28   13   15 1    
    29   14  138 1    
    30   15   16 1    
    31   15  139 1    
    32   15  140 1    
    33   16   17 1    
    34   17   18 1    
    35   17  141 1    
    36   17  142 1    
    37   18   19 1    
    38   18   67 1    
    39   18  143 1    
    40   19   20 am   BACKBONE|DICT|INTERRES
    41   19  144 1    
    42   20   21 2    
    43   20   22 1    
    44   22   23 1    
    45   22   24 1    
    46   22  145 1    
    47   23  146 1    
    48   23  147 1    
    49   23  148 1    
    50   24   25 am   BACKBONE|DICT|INTERRES
    51   24  149 1    
    52   25   26 2    
    53   25   27 1    
    54   27   28 1    
    55   27   29 1    
    56   27  150 1    
    57   28  151 1    
    58   28  152 1    
    59   28  153 1    
    60   29   30 am   BACKBONE|DICT|INTERRES
    61   29  154 1    
    62   30   31 2    
    63   30   32 1    
    64   32   33 1    
    65   32   34 1    
    66   32  155 1    
    67   33  156 1    
    68   33  157 1    
    69   33  158 1    
    70   34   35 am   BACKBONE|DICT|INTERRES
    71   34  159 1    
    72   35   36 2    
    73   35   37 1    
    74   37   38 1    
    75   37   39 1    
    76   37  160 1    
    77   38  161 1    
    78   38  162 1    
    79   38  163 1    
    80   39   40 am   BACKBONE|DICT|INTERRES
    81   39  164 1    
    82   40   41 2    
    83   40   42 1    
    84   42   43 1    
    85   42   44 1    
    86   42  165 1    
    87   43  166 1    
    88   43  167 1    
    89   43  168 1    
    90   44   45 am   BACKBONE|DICT|INTERRES
    91   44  169 1    
    92   45   46 2    
    93   45   47 1    
    94   47   48 1    
    95   47   49 1    
    96   47  170 1    
    97   48  171 1    
    98   48  172 1    
    99   48  173 1    
   100   49   50 am   BACKBONE|DICT|INTERRES
   101   49  174 1    
   102   50   51 2    
   103   50   52 1    
   104   52   53 1    
   105   52   54 1    
   106   52  175 1    
   107   53  176 1    
   108   53  177 1    
   109   53  178 1    
   110   54   55 am   BACKBONE|DICT|INTERRES
   111   54  179 1    
   112   55   56 2    
   113   55   57 1    
   114   57   58 1    
   115   57   59 1    
   116   57  180 1    
   117   58  181 1    
   118   58  182 1    
   119   58  183 1    
   120   59   60 am   BACKBONE|DICT|INTERRES
   121   59  184 1    
   122   60   61 2    
   123   60   62 1    
   124   62   63 1    
   125   62   64 1    
   126   62  185 1    
   127   63  186 1    
   128   63  187 1    
   129   63  188 1    
   130   64   65 am   BACKBONE|DICT|INTERRES
   131   64  189 1    
   132   65   66 2    
   133   67   68 2    
   134   67   69 am   BACKBONE|DICT|INTERRES
   135   69   70 1    
   136   69  190 1    
   137   70   71 1    
   138   70   72 1    
   139   70  191 1    
   140   71  192 1    
   141   71  193 1    
   142   71  194 1    
   143   72   73 2    
   144   72   74 am   BACKBONE|DICT|INTERRES
   145   74   75 1    
   146   74  195 1    
   147   75   76 1    
   148   75   77 1    
   149   75  196 1    
   150   76  197 1    
   151   76  198 1    
   152   76  199 1    
   153   77   78 2    
   154   77   79 am   BACKBONE|DICT|INTERRES
   155   79   80 1    
   156   79  200 1    
   157   80   81 1    
   158   80   82 1    
   159   80  201 1    
   160   81  202 1    
   161   81  203 1    
   162   81  204 1    
   163   82   83 2    
   164   82   84 am   BACKBONE|DICT|INTERRES
   165   84   85 1    
   166   84  205 1    
   167   85   86 1    
   168   85   87 1    
   169   85  206 1    
   170   86  207 1    
   171   86  208 1    
   172   86  209 1    
   173   87   88 2    
   174   87   89 am   BACKBONE|DICT|INTERRES
   175   89   90 1    
   176   89  210 1    
   177   90   91 1    
   178   90   92 1    
   179   90  211 1    
   180   91  212 1    
   181   91  213 1    
   182   91  214 1    
   183   92   93 2    
   184   92   94 am   BACKBONE|DICT|INTERRES
   185   94   95 1    
   186   94  215 1    
   187   95   96 1    
   188   95   97 1    
   189   95  216 1    
   190   96  217 1    
   191   96  218 1    
   192   96  219 1    
   193   97   98 2    
   194   97   99 am   BACKBONE|DICT|INTERRES
   195   99  100 1    
   196   99  220 1    
   197  100  101 1    
   198  100  102 1    
   199  100  221 1    
   200  101  222 1    
   201  101  223 1    
   202  101  224 1    
   203  102  103 2    
   204  102  104 am   BACKBONE|DICT|INTERRES
   205  104  105 1    
   206  104  225 1    
   207  105  106 1    
   208  105  107 1    
   209  105  226 1    
   210  106  227 1    
   211  106  228 1    
   212  106  229 1    
   213  107  108 2    
   214  107  109 am   BACKBONE|DICT|INTERRES
   215  109  110 1    
   216  109  230 1    
   217  110  111 1    
   218  110  112 1    
   219  110  231 1    
   220  111  232 1    
   221  111  233 1    
   222  111  234 1    
   223  112  113 2    
   224  112  114 am   BACKBONE|DICT|INTERRES
   225  114  115 1    
   226  114  235 1    
   227  115  116 1    
   228  115  117 1    
   229  115  236 1    
   230  116  237 1    
   231  116  238 1    
   232  116  239 1    
   233  117  118 2    
   234  117  119 am   BACKBONE|DICT|INTERRES
   235  119  120 1    
   236  119  240 1    
   237  120  121 1    
   238  120  124 1    
   239  120  241 1    
   240  121  122 am   BACKBONE|DICT|INTERRES
   241  121  123 2    
   242  122  242 1    
   243  122  243 1    
   244  124  125 1    
   245  124  244 1    
   246  124  245 1    
   247  125  126 1    
   248  126  246 1    
   249  126  247 1    
@<TRIPOS>SUBSTRUCTURE
     1 UNK         1 GROUP             0       ****    0 ROOT    
