@<TRIPOS>MOLECULE
3R540
247   249    1
SMALL
USER_CHARGES


@<TRIPOS>ATOM
      1 CA          2.8121  -10.4079  -46.6779 C.3       0 UNK        -0.1800 
      2 C           1.6317  -10.2410  -45.7226 C.2       0 UNK         0.5000 
      3 O           1.3370   -9.1189  -45.3171 O.2       0 UNK        -0.5000 
      4 N           0.9296  -11.3145  -45.3327 N.am      1 UNK        -0.5000 
      5 CA          1.1629  -12.7153  -45.7211 C.3       1 UNK         0.1400 
      6 C6         -0.1395  -13.5589  -45.7211 C.3       23 UNK        -0.0398 
      7 S7         -1.5515  -12.7434  -46.5494 S.3       23 UNK        -0.2404 
      8 C8         -1.1232  -12.8814  -48.3127 C.3       23 UNK        -0.0205 
      9 C9         -1.5169  -14.2294  -48.8938 C.ar      23 UNK        -0.0193 
     10 C10        -2.8209  -14.4412  -49.3503 C.ar      23 UNK        -0.1150 
     11 C11        -3.1835  -15.6640  -49.9220 C.ar      23 UNK        -0.0193 
     12 C12        -2.2360  -16.6875  -50.0130 C.ar      23 UNK        -0.1150 
     13 C13        -0.9314  -16.4930  -49.5496 C.ar      23 UNK        -0.0193 
     14 C14        -0.5744  -15.2538  -49.0059 C.ar      23 UNK        -0.1150 
     15 C15         0.0828  -17.6261  -49.6521 C.3       23 UNK        -0.0205 
     16 S16         1.0688  -17.8606  -48.1363 S.3       23 UNK        -0.2404 
     17 C17        -0.2173  -18.1361  -46.8748 C.3       23 UNK        -0.0398 
     18 CA         -0.4335  -19.6428  -46.5954 C.3       11 UNK         0.1400 
     19 N          -0.6810  -19.9137  -45.1797 N.am      11 UNK        -0.5000 
     20 C          -0.7312  -21.1351  -44.6313 C.2       10 UNK         0.5000 
     21 O          -0.5180  -22.1758  -45.2518 O.2       10 UNK        -0.5000 
     22 CA         -1.1455  -21.2027  -43.1518 C.3       10 UNK         0.1400 
     23 CB          0.0603  -20.9578  -42.2305 C.3       10 UNK        -0.1800 
     24 N          -2.2111  -20.2453  -42.8480 N.am      10 UNK        -0.5000 
     25 C          -3.4657  -20.3468  -43.3118 C.2       9 UNK         0.5000 
     26 O          -3.8664  -21.2896  -43.9936 O.2       9 UNK        -0.5000 
     27 CA         -4.4190  -19.1788  -42.9986 C.3       9 UNK         0.1400 
     28 CB         -5.0428  -19.3487  -41.6055 C.3       9 UNK        -0.1800 
     29 N          -3.7608  -17.8737  -43.0790 N.am      9 UNK        -0.5000 
     30 C          -3.2769  -17.3318  -44.2065 C.2       8 UNK         0.5000 
     31 O          -3.3591  -17.8638  -45.3116 O.2       8 UNK        -0.5000 
     32 CA         -2.5125  -16.0027  -44.0589 C.3       8 UNK         0.1400 
     33 CB         -3.4868  -14.8160  -44.0717 C.3       8 UNK        -0.1800 
     34 N          -1.6930  -15.9511  -42.8428 N.am      8 UNK        -0.5000 
     35 C          -0.6898  -16.7977  -42.5777 C.2       7 UNK         0.5000 
     36 O          -0.3239  -17.6837  -43.3556 O.2       7 UNK        -0.5000 
     37 CA         -0.0329  -16.6837  -41.1962 C.3       7 UNK         0.1400 
     38 CB         -0.9696  -17.2350  -40.1037 C.3       7 UNK        -0.1800 
     39 N           1.2037  -17.4523  -41.2287 N.am      7 UNK        -0.5000 
     40 C           2.2146  -17.3872  -40.3575 C.2       6 UNK         0.5000 
     41 O           2.2134  -16.6661  -39.3590 O.2       6 UNK        -0.5000 
     42 CA          3.4424  -18.2766  -40.6522 C.3       6 UNK         0.1400 
     43 CB          3.3627  -19.5770  -39.8374 C.3       6 UNK        -0.1800 
     44 N           3.6231  -18.6186  -42.0693 N.am      6 UNK        -0.5000 
     45 C           3.8492  -17.7304  -43.0465 C.2       5 UNK         0.5000 
     46 O           3.9089  -16.5163  -42.8555 O.2       5 UNK        -0.5000 
     47 CA          4.0222  -18.2885  -44.4669 C.3       5 UNK         0.1400 
     48 CB          2.7823  -19.0840  -44.9145 C.3       5 UNK        -0.1800 
     49 N           4.2646  -17.1779  -45.3850 N.am      5 UNK        -0.5000 
     50 C           4.8997  -17.2600  -46.5590 C.2       4 UNK         0.5000 
     51 O           5.3344  -18.3137  -47.0260 O.2       4 UNK        -0.5000 
     52 CA          5.1122  -15.9497  -47.3370 C.3       4 UNK         0.1400 
     53 CB          3.9070  -15.6484  -48.2414 C.3       4 UNK        -0.1800 
     54 N           5.3338  -14.8076  -46.4492 N.am      4 UNK        -0.5000 
     55 C           6.5388  -14.3140  -46.1294 C.2       3 UNK         0.5000 
     56 O           7.6000  -14.8116  -46.5081 O.2       3 UNK        -0.5000 
     57 CA          6.5811  -13.0327  -45.2712 C.3       3 UNK         0.1400 
     58 CB          6.8313  -11.8051  -46.1617 C.3       3 UNK        -0.1800 
     59 N           5.3490  -12.8156  -44.5148 N.am      3 UNK        -0.5000 
     60 C           5.0645  -13.3929  -43.3408 C.2       2 UNK         0.5000 
     61 O           5.8714  -14.0763  -42.7101 O.2       2 UNK        -0.5000 
     62 CA          3.6477  -13.1595  -42.7699 C.3       2 UNK         0.1400 
     63 CB          3.6969  -12.1342  -41.6266 C.3       2 UNK        -0.1800 
     64 N           2.6501  -12.7152  -43.7518 N.am      2 UNK        -0.5000 
     65 C           2.2430  -13.3859  -44.8414 C.2       1 UNK         0.5000 
     66 O           2.7126  -14.4700  -45.1849 O.2       1 UNK        -0.5000 
     67 C          -1.5442  -20.2289  -47.4889 C.2       11 UNK         0.5000 
     68 O          -1.2389  -20.9086  -48.4670 O.2       11 UNK        -0.5000 
     69 N          -2.8093  -20.0040  -47.1055 N.am      12 UNK        -0.5000 
     70 CA         -3.9932  -20.5583  -47.7617 C.3       12 UNK         0.1400 
     71 CB         -5.2604  -19.9813  -47.1141 C.3       12 UNK        -0.1800 
     72 C          -4.0226  -22.0967  -47.7327 C.2       12 UNK         0.5000 
     73 O          -4.3601  -22.7085  -48.7433 O.2       12 UNK        -0.5000 
     74 N          -3.6355  -22.6941  -46.5964 N.am      13 UNK        -0.5000 
     75 CA         -3.5057  -24.1420  -46.4286 C.3       13 UNK         0.1400 
     76 CB         -3.2937  -24.4754  -44.9445 C.3       13 UNK        -0.1800 
     77 C          -2.3843  -24.7482  -47.2936 C.2       13 UNK         0.5000 
     78 O          -2.5747  -25.8246  -47.8578 O.2       13 UNK        -0.5000 
     79 N          -1.2492  -24.0452  -47.4084 N.am      14 UNK        -0.5000 
     80 CA         -0.1261  -24.4270  -48.2676 C.3       14 UNK         0.1400 
     81 CB          1.1041  -23.5794  -47.9081 C.3       14 UNK        -0.1800 
     82 C          -0.4587  -24.3027  -49.7675 C.2       14 UNK         0.5000 
     83 O          -0.0608  -25.1609  -50.5553 O.2       14 UNK        -0.5000 
     84 N          -1.1954  -23.2451  -50.1286 N.am      15 UNK        -0.5000 
     85 CA         -1.6462  -22.9470  -51.4877 C.3       15 UNK         0.1400 
     86 CB         -1.9317  -21.4392  -51.5838 C.3       15 UNK        -0.1800 
     87 C          -2.8723  -23.7665  -51.9383 C.2       15 UNK         0.5000 
     88 O          -3.2646  -23.6589  -53.1029 O.2       15 UNK        -0.5000 
     89 N          -3.4891  -24.5387  -51.0325 N.am      16 UNK        -0.5000 
     90 CA         -4.6578  -25.3797  -51.2983 C.3       16 UNK         0.1400 
     91 CB         -5.1180  -26.0561  -50.0001 C.3       16 UNK        -0.1800 
     92 C          -4.3680  -26.4247  -52.3893 C.2       16 UNK         0.5000 
     93 O          -3.3312  -27.0895  -52.3360 O.2       16 UNK        -0.5000 
     94 N          -5.2631  -26.5027  -53.3836 N.am      17 UNK        -0.5000 
     95 CA         -5.1964  -27.2943  -54.6226 C.3       17 UNK         0.1400 
     96 CB         -5.1179  -28.8043  -54.3278 C.3       17 UNK        -0.1800 
     97 C          -4.0877  -26.8600  -55.6072 C.2       17 UNK         0.5000 
     98 O          -4.3301  -26.8530  -56.8140 O.2       17 UNK        -0.5000 
     99 N          -2.9109  -26.4873  -55.0892 N.am      18 UNK        -0.5000 
    100 CA        -1.7441  -26.0264  -55.8422 C.3       18 UNK         0.1400 
    101 CB        -0.5433  -25.9219  -54.8888 C.3       18 UNK        -0.1800 
    102 C         -1.9796  -24.6872  -56.5639 C.2       18 UNK         0.5000 
    103 O         -1.5851  -24.5434  -57.7218 O.2       18 UNK        -0.5000 
    104 N         -2.6271  -23.7436  -55.8708 N.am      19 UNK        -0.5000 
    105 CA        -2.9735  -22.4123  -56.3707 C.3       19 UNK         0.1400 
    106 CB        -1.9150  -21.4017  -55.8937 C.3       19 UNK        -0.1800 
    107 C         -4.4046  -22.0119  -55.9599 C.2       19 UNK         0.5000 
    108 O         -4.7378  -20.8270  -55.9932 O.2       19 UNK        -0.5000 
    109 N         -5.2250  -23.0092  -55.5911 N.am      20 UNK        -0.5000 
    110 CA        -6.6246  -22.9027  -55.1606 C.3       20 UNK         0.1400 
    111 CB        -7.5212  -22.4270  -56.3229 C.3       20 UNK        -0.1800 
    112 C         -6.8140  -22.0713  -53.8727 C.2       20 UNK         0.5000 
    113 O         -7.8153  -21.3634  -53.7364 O.2       20 UNK        -0.5000 
    114 N         -5.8528  -22.1876  -52.9431 N.am      21 UNK        -0.5000 
    115 CA        -5.7902  -21.4928  -51.6534 C.3       21 UNK         0.1400 
    116 CB        -6.9037  -21.9933  -50.7035 C.3       21 UNK        -0.1800 
    117 C         -5.7599  -19.9648  -51.8523 C.2       21 UNK         0.5000 
    118 O         -4.7703  -19.4485  -52.3727 O.2       21 UNK        -0.5000 
    119 N         -6.8456  -19.2877  -51.4685 N.am      22 UNK        -0.5000 
    120 CA        -7.1060  -17.8668  -51.7388 C.3       22 UNK         0.1400 
    121 C         -8.3868  -17.6619  -52.6024 C.2       22 UNK         0.5000 
    122 N         -8.9169  -18.6831  -53.2677 N.am      22 UNK        -0.7600 
    123 O         -8.9086  -16.5535  -52.6889 O.2       22 UNK        -0.5000 
    124 C124       -7.1270  -17.0192  -50.4367 C.3       23 UNK        -0.0398 
    125 S125       -5.5506  -17.0606  -49.5160 S.3       23 UNK        -0.2404 
    126 C126       -4.5818  -15.8644  -50.4851 C.3       23 UNK        -0.0205 
    127 H127        2.4619  -10.6934  -47.6699 H         1 UNK         0.0600 
    128 H128        3.3598   -9.4702  -46.7751 H         1 UNK         0.0600 
    129 H129        3.5125  -11.1615  -46.3225 H         1 UNK         0.0600 
    130 H130        0.1310  -11.1687  -44.7313 H         1 UNK         0.3000 
    131 H131        1.5487  -12.7349  -46.7411 H         1 UNK         0.0600 
    132 H132        0.0317  -14.5312  -46.1868 H         1 UNK         0.0800 
    133 H133       -0.4504  -13.7676  -44.6960 H         1 UNK         0.0800 
    134 H134       -0.0601  -12.6915  -48.4621 H         1 UNK         0.0800 
    135 H135       -1.6441  -12.0915  -48.8558 H         1 UNK         0.0800 
    136 H136       -3.5479  -13.6445  -49.2757 H         1 UNK         0.1150 
    137 H137       -2.5194  -17.6349  -50.4512 H         1 UNK         0.1150 
    138 H138        0.4372  -15.0898  -48.6622 H         1 UNK         0.1150 
    139 H139       -0.4135  -18.5679  -49.8919 H         1 UNK         0.0800 
    140 H140        0.7596  -17.4145  -50.4805 H         1 UNK         0.0800 
    141 H141       -1.1467  -17.6268  -47.1347 H         1 UNK         0.0800 
    142 H142        0.1316  -17.6247  -45.9784 H         1 UNK         0.0800 
    143 H143        0.4870  -20.1789  -46.8380 H         1 UNK         0.0600 
    144 H144       -0.8175  -19.1077  -44.5779 H         1 UNK         0.3000 
    145 H145       -1.5247  -22.2075  -42.9537 H         1 UNK         0.0600 
    146 H146       -0.2282  -20.9976  -41.1801 H         1 UNK         0.0600 
    147 H147        0.8258  -21.7188  -42.3864 H         1 UNK         0.0600 
    148 H148        0.5248  -19.9906  -42.4150 H         1 UNK         0.0600 
    149 H149       -1.9490  -19.4195  -42.3326 H         1 UNK         0.3000 
    150 H150       -5.2226  -19.1982  -43.7378 H         1 UNK         0.0600 
    151 H151       -5.5550  -20.3083  -41.5222 H         1 UNK         0.0600 
    152 H152       -5.7795  -18.5704  -41.4060 H         1 UNK         0.0600 
    153 H153       -4.2897  -19.3088  -40.8174 H         1 UNK         0.0600 
    154 H154       -3.6498  -17.3654  -42.2146 H         1 UNK         0.3000 
    155 H155       -1.8464  -15.9101  -44.9191 H         1 UNK         0.0600 
    156 H156       -4.0638  -14.7980  -44.9974 H         1 UNK         0.0600 
    157 H157       -4.1942  -14.8637  -43.2431 H         1 UNK         0.0600 
    158 H158       -2.9566  -13.8663  -44.0038 H         1 UNK         0.0600 
    159 H159       -1.9470  -15.2556  -42.1559 H         1 UNK         0.3000 
    160 H160        0.1987  -15.6343  -41.0033 H         1 UNK         0.0600 
    161 H161       -1.2015  -18.2881  -40.2675 H         1 UNK         0.0600 
    162 H162       -1.9132  -16.6892  -40.0767 H         1 UNK         0.0600 
    163 H163       -0.5222  -17.1448  -39.1139 H         1 UNK         0.0600 
    164 H164        1.3005  -18.0260  -42.0565 H         1 UNK         0.3000 
    165 H165        4.3270  -17.7236  -40.3296 H         1 UNK         0.0600 
    166 H166        4.2651  -20.1763  -39.9591 H         1 UNK         0.0600 
    167 H167        3.2567  -19.3657  -38.7724 H         1 UNK         0.0600 
    168 H168        2.5094  -20.1871  -40.1371 H         1 UNK         0.0600 
    169 H169        3.5936  -19.6013  -42.2982 H         1 UNK         0.3000 
    170 H170        4.8948  -18.9446  -44.4614 H         1 UNK         0.0600 
    171 H171        2.6442  -19.9840  -44.3151 H         1 UNK         0.0600 
    172 H172        1.8798  -18.4839  -44.8150 H         1 UNK         0.0600 
    173 H173        2.8621  -19.4018  -45.9540 H         1 UNK         0.0600 
    174 H174        3.9505  -16.2750  -45.0426 H         1 UNK         0.3000 
    175 H175        5.9801  -16.0893  -47.9850 H         1 UNK         0.0600 
    176 H176        2.9924  -15.5088  -47.6646 H         1 UNK         0.0600 
    177 H177        4.0716  -14.7465  -48.8309 H         1 UNK         0.0600 
    178 H178        3.7322  -16.4663  -48.9414 H         1 UNK         0.0600 
    179 H179        4.5034  -14.4014  -46.0340 H         1 UNK         0.3000 
    180 H180        7.4193  -13.1246  -44.5770 H         1 UNK         0.0600 
    181 H181        6.0323  -11.6651  -46.8909 H         1 UNK         0.0600 
    182 H182        7.7654  -11.9086  -46.7154 H         1 UNK         0.0600 
    183 H183        6.9074  -10.8947  -45.5668 H         1 UNK         0.0600 
    184 H184        4.6452  -12.2365  -44.9442 H         1 UNK         0.3000 
    185 H185        3.2983  -14.1052  -42.3550 H         1 UNK         0.0600 
    186 H186        4.4010  -12.4438  -40.8530 H         1 UNK         0.0600 
    187 H187        4.0099  -11.1514  -41.9814 H         1 UNK         0.0600 
    188 H188        2.7224  -12.0262  -41.1500 H         1 UNK         0.0600 
    189 H189        2.2114  -11.8252  -43.5632 H         1 UNK         0.3000 
    190 H190       -2.9801  -19.3809  -46.3195 H         1 UNK         0.3000 
    191 H191       -3.9700  -20.2409  -48.8063 H         1 UNK         0.0600 
    192 H192       -5.3560  -20.2859  -46.0720 H         1 UNK         0.0600 
    193 H193       -6.1551  -20.3172  -47.6388 H         1 UNK         0.0600 
    194 H194       -5.2571  -18.8919  -47.1413 H         1 UNK         0.0600 
    195 H195       -3.4324  -22.1201  -45.7846 H         1 UNK         0.3000 
    196 H196       -4.4467  -24.5977  -46.7440 H         1 UNK         0.0600 
    197 H197       -3.2256  -25.5533  -44.7926 H         1 UNK         0.0600 
    198 H198       -4.1231  -24.1131  -44.3369 H         1 UNK         0.0600 
    199 H199       -2.3768  -24.0311  -44.5575 H         1 UNK         0.0600 
    200 H200       -1.1399  -23.1964  -46.8622 H         1 UNK         0.3000 
    201 H201        0.1144  -25.4730  -48.0660 H         1 UNK         0.0600 
    202 H202        1.3837  -23.7149  -46.8631 H         1 UNK         0.0600 
    203 H203        0.9240  -22.5162  -48.0690 H         1 UNK         0.0600 
    204 H204        1.9646  -23.8625  -48.5153 H         1 UNK         0.0600 
    205 H205       -1.4173  -22.5485  -49.4214 H         1 UNK         0.3000 
    206 H206       -0.8393  -23.1815  -52.1848 H         1 UNK         0.0600 
    207 H207       -2.3505  -21.1663  -52.5522 H         1 UNK         0.0600 
    208 H208       -2.6402  -21.1149  -50.8220 H         1 UNK         0.0600 
    209 H209       -1.0186  -20.8592  -51.4498 H         1 UNK         0.0600 
    210 H210       -3.1256  -24.5552  -50.0901 H         1 UNK         0.3000 
    211 H211       -5.4593  -24.7240  -51.6407 H         1 UNK         0.0600 
    212 H212       -4.3659  -26.7488  -49.6213 H         1 UNK         0.0600 
    213 H213       -6.0347  -26.6245  -50.1606 H         1 UNK         0.0600 
    214 H214       -5.3223  -25.3210  -49.2215 H         1 UNK         0.0600 
    215 H215       -6.0786  -25.9110  -53.3166 H         1 UNK         0.3000 
    216 H216       -6.1448  -27.1149  -55.1317 H         1 UNK         0.0600 
    217 H217       -5.1973  -29.3830  -55.2489 H         1 UNK         0.0600 
    218 H218       -5.9304  -29.1213  -53.6741 H         1 UNK         0.0600 
    219 H219       -4.1767  -29.0817  -53.8528 H         1 UNK         0.0600 
    220 H220       -2.8074  -26.5633  -54.0812 H         1 UNK         0.3000 
    221 H221       -1.5156  -26.7784  -56.6003 H         1 UNK         0.0600 
    222 H222       -0.7306  -25.2144  -54.0799 H         1 UNK         0.0600 
    223 H223       -0.3123  -26.8878  -54.4394 H         1 UNK         0.0600 
    224 H224        0.3498  -25.5879  -55.4187 H         1 UNK         0.0600 
    225 H225       -2.8721  -23.9207  -54.8984 H         1 UNK         0.3000 
    226 H226       -2.9723  -22.4163  -57.4624 H         1 UNK         0.0600 
    227 H227       -0.9208  -21.6795  -56.2439 H         1 UNK         0.0600 
    228 H228       -2.1222  -20.4003  -56.2725 H         1 UNK         0.0600 
    229 H229       -1.8816  -21.3442  -54.8066 H         1 UNK         0.0600 
    230 H230       -4.8449  -23.9436  -55.6215 H         1 UNK         0.3000 
    231 H231       -6.9382  -23.9159  -54.9060 H         1 UNK         0.0600 
    232 H232       -8.5763  -22.4897  -56.0542 H         1 UNK         0.0600 
    233 H233       -7.3772  -23.0433  -57.2102 H         1 UNK         0.0600 
    234 H234       -7.3160  -21.3915  -56.5960 H         1 UNK         0.0600 
    235 H235       -5.0291  -22.7310  -53.1797 H         1 UNK         0.3000 
    236 H236       -4.8381  -21.7574  -51.1987 H         1 UNK         0.0600 
    237 H237       -6.8000  -23.0612  -50.5139 H         1 UNK         0.0600 
    238 H238       -6.8425  -21.4969  -49.7346 H         1 UNK         0.0600 
    239 H239       -7.9048  -21.8265  -51.1012 H         1 UNK         0.0600 
    240 H240       -7.6206  -19.8035  -51.0778 H         1 UNK         0.3000 
    241 H241       -6.3097  -17.4709  -52.3699 H         1 UNK         0.0600 
    242 H242       -9.7430  -18.5279  -53.8232 H         1 UNK         0.3800 
    243 H243       -8.4745  -19.5985  -53.2853 H         1 UNK         0.3800 
    244 H244       -7.3629  -15.9760  -50.6533 H         1 UNK         0.0800 
    245 H245       -7.9168  -17.3736  -49.7728 H         1 UNK         0.0800 
    246 H246       -4.4963  -16.2154  -51.5142 H         1 UNK         0.0800 
    247 H247       -5.1180  -14.9149  -50.5246 H         1 UNK         0.0800 
@<TRIPOS>BOND
     1    1    2 1    
     2    1  127 1    
     3    1  128 1    
     4    1  129 1    
     5    2    3 2    
     6    2    4 am   BACKBONE|DICT|INTERRES
     7    4    5 1    
     8    4  130 1    
     9    5    6 1    
    10    5   65 1    
    11    5  131 1    
    12    6    7 1    
    13    6  132 1    
    14    6  133 1    
    15    7    8 1    
    16    8    9 1    
    17    8  134 1    
    18    8  135 1    
    19    9   10 ar   
    20    9   14 ar   
    21   10   11 ar   
    22   10  136 1    
    23   11   12 ar   
    24   11  126 1    
    25   12   13 ar   
    26   12  137 1    
    27   13   14 ar   
    28   13   15 1    
    29   14  138 1    
    30   15   16 1    
    31   15  139 1    
    32   15  140 1    
    33   16   17 1    
    34   17   18 1    
    35   17  141 1    
    36   17  142 1    
    37   18   19 1    
    38   18   67 1    
    39   18  143 1    
    40   19   20 am   BACKBONE|DICT|INTERRES
    41   19  144 1    
    42   20   21 2    
    43   20   22 1    
    44   22   23 1    
    45   22   24 1    
    46   22  145 1    
    47   23  146 1    
    48   23  147 1    
    49   23  148 1    
    50   24   25 am   BACKBONE|DICT|INTERRES
    51   24  149 1    
    52   25   26 2    
    53   25   27 1    
    54   27   28 1    
    55   27   29 1    
    56   27  150 1    
    57   28  151 1    
    58   28  152 1    
    59   28  153 1    
    60   29   30 am   BACKBONE|DICT|INTERRES
    61   29  154 1    
    62   30   31 2    
    63   30   32 1    
    64   32   33 1    
    65   32   34 1    
    66   32  155 1    
    67   33  156 1    
    68   33  157 1    
    69   33  158 1    
    70   34   35 am   BACKBONE|DICT|INTERRES
    71   34  159 1    
    72   35   36 2    
    73   35   37 1    
    74   37   38 1    
    75   37   39 1    
    76   37  160 1    
    77   38  161 1    
    78   38  162 1    
    79   38  163 1    
    80   39   40 am   BACKBONE|DICT|INTERRES
    81   39  164 1    
    82   40   41 2    
    83   40   42 1    
    84   42   43 1    
    85   42   44 1    
    86   42  165 1    
    87   43  166 1    
    88   43  167 1    
    89   43  168 1    
    90   44   45 am   BACKBONE|DICT|INTERRES
    91   44  169 1    
    92   45   46 2    
    93   45   47 1    
    94   47   48 1    
    95   47   49 1    
    96   47  170 1    
    97   48  171 1    
    98   48  172 1    
    99   48  173 1    
   100   49   50 am   BACKBONE|DICT|INTERRES
   101   49  174 1    
   102   50   51 2    
   103   50   52 1    
   104   52   53 1    
   105   52   54 1    
   106   52  175 1    
   107   53  176 1    
   108   53  177 1    
   109   53  178 1    
   110   54   55 am   BACKBONE|DICT|INTERRES
   111   54  179 1    
   112   55   56 2    
   113   55   57 1    
   114   57   58 1    
   115   57   59 1    
   116   57  180 1    
   117   58  181 1    
   118   58  182 1    
   119   58  183 1    
   120   59   60 am   BACKBONE|DICT|INTERRES
   121   59  184 1    
   122   60   61 2    
   123   60   62 1    
   124   62   63 1    
   125   62   64 1    
   126   62  185 1    
   127   63  186 1    
   128   63  187 1    
   129   63  188 1    
   130   64   65 am   BACKBONE|DICT|INTERRES
   131   64  189 1    
   132   65   66 2    
   133   67   68 2    
   134   67   69 am   BACKBONE|DICT|INTERRES
   135   69   70 1    
   136   69  190 1    
   137   70   71 1    
   138   70   72 1    
   139   70  191 1    
   140   71  192 1    
   141   71  193 1    
   142   71  194 1    
   143   72   73 2    
   144   72   74 am   BACKBONE|DICT|INTERRES
   145   74   75 1    
   146   74  195 1    
   147   75   76 1    
   148   75   77 1    
   149   75  196 1    
   150   76  197 1    
   151   76  198 1    
   152   76  199 1    
   153   77   78 2    
   154   77   79 am   BACKBONE|DICT|INTERRES
   155   79   80 1    
   156   79  200 1    
   157   80   81 1    
   158   80   82 1    
   159   80  201 1    
   160   81  202 1    
   161   81  203 1    
   162   81  204 1    
   163   82   83 2    
   164   82   84 am   BACKBONE|DICT|INTERRES
   165   84   85 1    
   166   84  205 1    
   167   85   86 1    
   168   85   87 1    
   169   85  206 1    
   170   86  207 1    
   171   86  208 1    
   172   86  209 1    
   173   87   88 2    
   174   87   89 am   BACKBONE|DICT|INTERRES
   175   89   90 1    
   176   89  210 1    
   177   90   91 1    
   178   90   92 1    
   179   90  211 1    
   180   91  212 1    
   181   91  213 1    
   182   91  214 1    
   183   92   93 2    
   184   92   94 am   BACKBONE|DICT|INTERRES
   185   94   95 1    
   186   94  215 1    
   187   95   96 1    
   188   95   97 1    
   189   95  216 1    
   190   96  217 1    
   191   96  218 1    
   192   96  219 1    
   193   97   98 2    
   194   97   99 am   BACKBONE|DICT|INTERRES
   195   99  100 1    
   196   99  220 1    
   197  100  101 1    
   198  100  102 1    
   199  100  221 1    
   200  101  222 1    
   201  101  223 1    
   202  101  224 1    
   203  102  103 2    
   204  102  104 am   BACKBONE|DICT|INTERRES
   205  104  105 1    
   206  104  225 1    
   207  105  106 1    
   208  105  107 1    
   209  105  226 1    
   210  106  227 1    
   211  106  228 1    
   212  106  229 1    
   213  107  108 2    
   214  107  109 am   BACKBONE|DICT|INTERRES
   215  109  110 1    
   216  109  230 1    
   217  110  111 1    
   218  110  112 1    
   219  110  231 1    
   220  111  232 1    
   221  111  233 1    
   222  111  234 1    
   223  112  113 2    
   224  112  114 am   BACKBONE|DICT|INTERRES
   225  114  115 1    
   226  114  235 1    
   227  115  116 1    
   228  115  117 1    
   229  115  236 1    
   230  116  237 1    
   231  116  238 1    
   232  116  239 1    
   233  117  118 2    
   234  117  119 am   BACKBONE|DICT|INTERRES
   235  119  120 1    
   236  119  240 1    
   237  120  121 1    
   238  120  124 1    
   239  120  241 1    
   240  121  122 am   BACKBONE|DICT|INTERRES
   241  121  123 2    
   242  122  242 1    
   243  122  243 1    
   244  124  125 1    
   245  124  244 1    
   246  124  245 1    
   247  125  126 1    
   248  126  246 1    
   249  126  247 1    
@<TRIPOS>SUBSTRUCTURE
     1 UNK         1 GROUP             0       ****    0 ROOT    
