@<TRIPOS>MOLECULE
3R540
247   249    1
SMALL
USER_CHARGES


@<TRIPOS>ATOM
      1 CA          0.5893  -17.5197  -52.9607 C.3       0 UNK        -0.1800 
      2 C           0.7903  -16.8687  -51.6007 C.2       0 UNK         0.5000 
      3 O           1.5001  -17.4195  -50.7584 O.2       0 UNK        -0.5000 
      4 N           0.1979  -15.6855  -51.3826 N.am      1 UNK        -0.5000 
      5 CA          0.3264  -14.8876  -50.1553 C.3       1 UNK         0.1400 
      6 C6         -0.9199  -13.9901  -49.9146 C.3       23 UNK        -0.0398 
      7 S7         -1.0084  -13.3069  -48.2162 S.3       23 UNK        -0.2404 
      8 C8         -2.4984  -14.0942  -47.5093 C.3       23 UNK        -0.0205 
      9 C9         -2.4329  -15.6136  -47.3629 C.ar      23 UNK        -0.0193 
     10 C10        -3.6271  -16.3413  -47.3516 C.ar      23 UNK        -0.1150 
     11 C11        -3.6184  -17.7350  -47.2427 C.ar      23 UNK        -0.0193 
     12 C12        -2.3938  -18.4051  -47.1755 C.ar      23 UNK        -0.1150 
     13 C13        -1.1928  -17.6927  -47.1848 C.ar      23 UNK        -0.0193 
     14 C14        -1.2199  -16.2989  -47.2309 C.ar      23 UNK        -0.1150 
     15 C15         0.1316  -18.4320  -47.2086 C.3       23 UNK        -0.0205 
     16 S16         0.5306  -19.1574  -45.5926 S.3       23 UNK        -0.2404 
     17 C17         1.7963  -20.3688  -46.0937 C.3       23 UNK        -0.0398 
     18 CA          1.3020  -21.8319  -46.2257 C.3       11 UNK         0.1400 
     19 N           1.0912  -22.4983  -44.9376 N.am      11 UNK        -0.5000 
     20 C           1.1542  -23.8316  -44.7998 C.2       10 UNK         0.5000 
     21 O           1.3889  -24.5983  -45.7352 O.2       10 UNK        -0.5000 
     22 CA          0.8771  -24.4167  -43.4036 C.3       10 UNK         0.1400 
     23 CB          2.1518  -24.3962  -42.5473 C.3       10 UNK        -0.1800 
     24 N          -0.2032  -23.7461  -42.6794 N.am      10 UNK        -0.5000 
     25 C          -1.4721  -23.6508  -43.0981 C.2       9 UNK         0.5000 
     26 O          -1.8600  -24.0776  -44.1868 O.2       9 UNK        -0.5000 
     27 CA         -2.4849  -22.9665  -42.1545 C.3       9 UNK         0.1400 
     28 CB         -1.9725  -22.7723  -40.7091 C.3       9 UNK        -0.1800 
     29 N          -2.9791  -21.6968  -42.6975 N.am      9 UNK        -0.5000 
     30 C          -2.2483  -20.6228  -43.0310 C.2       8 UNK         0.5000 
     31 O          -1.0190  -20.5890  -42.9506 O.2       8 UNK        -0.5000 
     32 CA         -3.0328  -19.4156  -43.5922 C.3       8 UNK         0.1400 
     33 CB         -4.3183  -19.0970  -42.7980 C.3       8 UNK        -0.1800 
     34 N          -2.2081  -18.2189  -43.7736 N.am      8 UNK        -0.5000 
     35 C          -1.6603  -17.4397  -42.8323 C.2       7 UNK         0.5000 
     36 O          -1.8544  -17.5595  -41.6192 O.2       7 UNK        -0.5000 
     37 CA         -0.7924  -16.2841  -43.3703 C.3       7 UNK         0.1400 
     38 CB         -1.6763  -15.0921  -43.7717 C.3       7 UNK        -0.1800 
     39 N           0.2205  -15.8132  -42.4273 N.am      7 UNK        -0.5000 
     40 C           1.2361  -16.5405  -41.9411 C.2       6 UNK         0.5000 
     41 O           1.4209  -17.7318  -42.1934 O.2       6 UNK        -0.5000 
     42 CA          2.2385  -15.7714  -41.0645 C.3       6 UNK         0.1400 
     43 CB          3.5082  -16.5782  -40.7314 C.3       6 UNK        -0.1800 
     44 N           2.6129  -14.5322  -41.7420 N.am      6 UNK        -0.5000 
     45 C           2.8366  -13.3562  -41.1429 C.2       5 UNK         0.5000 
     46 O           2.7505  -13.1882  -39.9256 O.2       5 UNK        -0.5000 
     47 CA          3.2316  -12.1608  -42.0368 C.3       5 UNK         0.1400 
     48 CB          4.7283  -11.8483  -41.8818 C.3       5 UNK        -0.1800 
     49 N           2.9422  -12.3594  -43.4583 N.am      5 UNK        -0.5000 
     50 C           1.7182  -12.3689  -44.0033 C.2       4 UNK         0.5000 
     51 O           0.6856  -12.1668  -43.3641 O.2       4 UNK        -0.5000 
     52 CA          1.6319  -12.6843  -45.5107 C.3       4 UNK         0.1400 
     53 CB          1.5798  -11.3829  -46.3247 C.3       4 UNK        -0.1800 
     54 N           2.7229  -13.5202  -46.0263 N.am      4 UNK        -0.5000 
     55 C           3.0277  -14.7552  -45.6043 C.2       3 UNK         0.5000 
     56 O           2.4615  -15.2975  -44.6571 O.2       3 UNK        -0.5000 
     57 CA          4.1405  -15.5024  -46.3670 C.3       3 UNK         0.1400 
     58 CB          4.1745  -17.0042  -46.0270 C.3       3 UNK        -0.1800 
     59 N           3.9848  -15.3559  -47.8138 N.am      3 UNK        -0.5000 
     60 C           4.5025  -14.3757  -48.5667 C.2       2 UNK         0.5000 
     61 O           5.1882  -13.4582  -48.1164 O.2       2 UNK        -0.5000 
     62 CA          4.1467  -14.4072  -50.0635 C.3       2 UNK         0.1400 
     63 CB          5.1140  -15.3182  -50.8340 C.3       2 UNK        -0.1800 
     64 N           2.7775  -14.8811  -50.2615 N.am      2 UNK        -0.5000 
     65 C           1.6787  -14.1306  -50.1152 C.2       1 UNK         0.5000 
     66 O           1.7168  -12.9089  -49.9643 O.2       1 UNK        -0.5000 
     67 C           0.0863  -22.0008  -47.1633 C.2       11 UNK         0.5000 
     68 O           0.2774  -22.0799  -48.3754 O.2       11 UNK        -0.5000 
     69 N          -1.1295  -22.1057  -46.5997 N.am      12 UNK        -0.5000 
     70 CA         -2.3492  -22.4143  -47.3511 C.3       12 UNK         0.1400 
     71 CB         -3.6004  -22.1955  -46.4886 C.3       12 UNK        -0.1800 
     72 C          -2.3248  -23.8453  -47.9027 C.2       12 UNK         0.5000 
     73 O          -2.7078  -24.0515  -49.0524 O.2       12 UNK        -0.5000 
     74 N          -1.8302  -24.7940  -47.0949 N.am      13 UNK        -0.5000 
     75 CA         -1.6006  -26.1815  -47.4955 C.3       13 UNK         0.1400 
     76 CB         -1.2001  -27.0161  -46.2698 C.3       13 UNK        -0.1800 
     77 C          -0.5548  -26.3000  -48.6205 C.2       13 UNK         0.5000 
     78 O          -0.7882  -27.0284  -49.5850 O.2       13 UNK        -0.5000 
     79 N           0.5472  -25.5426  -48.5087 N.am      14 UNK        -0.5000 
     80 CA          1.5972  -25.4463  -49.5279 C.3       14 UNK         0.1400 
     81 CB          2.7929  -24.6669  -48.9609 C.3       14 UNK        -0.1800 
     82 C           1.1057  -24.8110  -50.8449 C.2       14 UNK         0.5000 
     83 O           1.4740  -25.2800  -51.9219 O.2       14 UNK        -0.5000 
     84 N           0.2564  -23.7807  -50.7347 N.am      15 UNK        -0.5000 
     85 CA         -0.4064  -23.1000  -51.8508 C.3       15 UNK         0.1400 
     86 CB         -0.8978  -21.7285  -51.3568 C.3       15 UNK        -0.1800 
     87 C          -1.5808  -23.8967  -52.4591 C.2       15 UNK         0.5000 
     88 O          -2.1395  -23.4620  -53.4686 O.2       15 UNK        -0.5000 
     89 N          -1.9682  -25.0086  -51.8128 N.am      16 UNK        -0.5000 
     90 CA         -3.1308  -25.8566  -52.1015 C.3       16 UNK         0.1400 
     91 CB         -2.9181  -26.6312  -53.4179 C.3       16 UNK        -0.1800 
     92 C          -4.4578  -25.0668  -52.0765 C.2       16 UNK         0.5000 
     93 O          -5.3571  -25.3402  -52.8740 O.2       16 UNK        -0.5000 
     94 N          -4.5219  -24.0591  -51.1928 N.am      17 UNK        -0.5000 
     95 CA         -5.5240  -22.9994  -51.0342 C.3       17 UNK         0.1400 
     96 CB         -6.8926  -23.5797  -50.6329 C.3       17 UNK        -0.1800 
     97 C          -5.6579  -22.0539  -52.2458 C.2       17 UNK         0.5000 
     98 O          -5.7172  -20.8386  -52.0604 O.2       17 UNK        -0.5000 
     99 N          -5.7156  -22.6226  -53.4544 N.am      18 UNK        -0.5000 
    100 CA        -6.0075  -21.9580  -54.7202 C.3       18 UNK         0.1400 
    101 CB        -6.1195  -23.0181  -55.8261 C.3       18 UNK        -0.1800 
    102 C         -5.0021  -20.8671  -55.1214 C.2       18 UNK         0.5000 
    103 O         -5.4311  -19.8096  -55.5837 O.2       18 UNK        -0.5000 
    104 N         -3.6961  -21.1201  -54.9414 N.am      19 UNK        -0.5000 
    105 CA        -2.6407  -20.1914  -55.3658 C.3       19 UNK         0.1400 
    106 CB        -1.2843  -20.9114  -55.3989 C.3       19 UNK        -0.1800 
    107 C         -2.5675  -18.9209  -54.4987 C.2       19 UNK         0.5000 
    108 O         -2.2140  -17.8580  -55.0092 O.2       19 UNK        -0.5000 
    109 N         -2.9224  -19.0517  -53.2145 N.am      20 UNK        -0.5000 
    110 CA        -3.0027  -17.9508  -52.2526 C.3       20 UNK         0.1400 
    111 CB        -2.5401  -18.4678  -50.8822 C.3       20 UNK        -0.1800 
    112 C         -4.4121  -17.3267  -52.1810 C.2       20 UNK         0.5000 
    113 O         -4.5767  -16.2952  -51.5293 O.2       20 UNK        -0.5000 
    114 N         -5.3885  -17.9487  -52.8608 N.am      21 UNK        -0.5000 
    115 CA        -6.8103  -17.5978  -52.9274 C.3       21 UNK         0.1400 
    116 CB        -7.0096  -16.2598  -53.6693 C.3       21 UNK        -0.1800 
    117 C         -7.5000  -17.6425  -51.5474 C.2       21 UNK         0.5000 
    118 O         -8.2798  -16.7484  -51.2110 O.2       21 UNK        -0.5000 
    119 N         -7.1806  -18.6806  -50.7663 N.am      22 UNK        -0.5000 
    120 CA        -7.7034  -18.9081  -49.4117 C.3       22 UNK         0.1400 
    121 C         -9.2095  -19.2889  -49.4072 C.2       22 UNK         0.5000 
    122 N         -9.9662  -18.8409  -48.4144 N.am      22 UNK        -0.7600 
    123 O         -9.6893  -20.0227  -50.2688 O.2       22 UNK        -0.5000 
    124 C124       -6.8780  -19.9676  -48.6364 C.3       23 UNK        -0.0398 
    125 S125       -5.0893  -19.6205  -48.6390 S.3       23 UNK        -0.2404 
    126 C126       -4.9302  -18.5080  -47.2101 C.3       23 UNK        -0.0205 
    127 H127        1.5523  -17.6773  -53.4458 H         1 UNK         0.0600 
    128 H128        0.1039  -18.4888  -52.8468 H         1 UNK         0.0600 
    129 H129       -0.0233  -16.9027  -53.6179 H         1 UNK         0.0600 
    130 H130       -0.3337  -15.2570  -52.1269 H         1 UNK         0.3000 
    131 H131        0.3675  -15.5956  -49.3287 H         1 UNK         0.0600 
    132 H132       -1.8275  -14.5674  -50.0982 H         1 UNK         0.0800 
    133 H133       -0.9432  -13.1635  -50.6263 H         1 UNK         0.0800 
    134 H134       -2.6782  -13.6638  -46.5235 H         1 UNK         0.0800 
    135 H135       -3.3540  -13.8179  -48.1275 H         1 UNK         0.0800 
    136 H136       -4.5696  -15.8180  -47.4318 H         1 UNK         0.1150 
    137 H137       -2.3716  -19.4834  -47.1362 H         1 UNK         0.1150 
    138 H138       -0.2881  -15.7547  -47.1978 H         1 UNK         0.1150 
    139 H139        0.0775  -19.2099  -47.9713 H         1 UNK         0.0800 
    140 H140        0.9419  -17.7674  -47.5125 H         1 UNK         0.0800 
    141 H141        2.2400  -20.0469  -47.0374 H         1 UNK         0.0800 
    142 H142        2.6090  -20.3215  -45.3676 H         1 UNK         0.0800 
    143 H143        2.1235  -22.3593  -46.7157 H         1 UNK         0.0600 
    144 H144        0.8479  -21.9165  -44.1459 H         1 UNK         0.3000 
    145 H145        0.5788  -25.4580  -43.5420 H         1 UNK         0.0600 
    146 H146        1.9957  -24.9023  -41.5945 H         1 UNK         0.0600 
    147 H147        2.9714  -24.9072  -43.0545 H         1 UNK         0.0600 
    148 H148        2.4797  -23.3772  -42.3374 H         1 UNK         0.0600 
    149 H149        0.0359  -23.3374  -41.7879 H         1 UNK         0.3000 
    150 H150       -3.3451  -23.6359  -42.1066 H         1 UNK         0.0600 
    151 H151       -1.6535  -23.7199  -40.2729 H         1 UNK         0.0600 
    152 H152       -2.7620  -22.3777  -40.0694 H         1 UNK         0.0600 
    153 H153       -1.1324  -22.0791  -40.6549 H         1 UNK         0.0600 
    154 H154       -3.9787  -21.6523  -42.8341 H         1 UNK         0.3000 
    155 H155       -3.3366  -19.6951  -44.5976 H         1 UNK         0.0600 
    156 H156       -4.7986  -18.1934  -43.1739 H         1 UNK         0.0600 
    157 H157       -4.1147  -18.9507  -41.7368 H         1 UNK         0.0600 
    158 H158       -5.0487  -19.9018  -42.8824 H         1 UNK         0.0600 
    159 H159       -1.9441  -18.0364  -44.7324 H         1 UNK         0.3000 
    160 H160       -0.2649  -16.6345  -44.2592 H         1 UNK         0.0600 
    161 H161       -2.1594  -14.6409  -42.9045 H         1 UNK         0.0600 
    162 H162       -2.4642  -15.3995  -44.4599 H         1 UNK         0.0600 
    163 H163       -1.0931  -14.3199  -44.2733 H         1 UNK         0.0600 
    164 H164        0.1645  -14.8406  -42.1641 H         1 UNK         0.3000 
    165 H165        1.7194  -15.5442  -40.1310 H         1 UNK         0.0600 
    166 H166        4.0580  -16.8469  -41.6343 H         1 UNK         0.0600 
    167 H167        4.1790  -16.0101  -40.0868 H         1 UNK         0.0600 
    168 H168        3.2600  -17.5017  -40.2071 H         1 UNK         0.0600 
    169 H169        2.6559  -14.5942  -42.7554 H         1 UNK         0.3000 
    170 H170        2.6641  -11.2945  -41.6906 H         1 UNK         0.0600 
    171 H171        4.9823  -11.6555  -40.8385 H         1 UNK         0.0600 
    172 H172        5.3494  -12.6776  -42.2227 H         1 UNK         0.0600 
    173 H173        5.0079  -10.9616  -42.4510 H         1 UNK         0.0600 
    174 H174        3.7320  -12.5380  -44.0607 H         1 UNK         0.3000 
    175 H175        0.7008  -13.2300  -45.6733 H         1 UNK         0.0600 
    176 H176        2.4921  -10.7973  -46.2059 H         1 UNK         0.0600 
    177 H177        1.4485  -11.5859  -47.3878 H         1 UNK         0.0600 
    178 H178        0.7429  -10.7583  -46.0096 H         1 UNK         0.0600 
    179 H179        3.2561  -13.1403  -46.7967 H         1 UNK         0.3000 
    180 H180        5.0926  -15.0679  -46.0558 H         1 UNK         0.0600 
    181 H181        3.2333  -17.4948  -46.2771 H         1 UNK         0.0600 
    182 H182        4.3527  -17.1627  -44.9625 H         1 UNK         0.0600 
    183 H183        4.9727  -17.5137  -46.5668 H         1 UNK         0.0600 
    184 H184        3.4037  -16.0446  -48.2674 H         1 UNK         0.3000 
    185 H185        4.2412  -13.3937  -50.4592 H         1 UNK         0.0600 
    186 H186        6.1450  -14.9834  -50.7128 H         1 UNK         0.0600 
    187 H187        5.0604  -16.3513  -50.4879 H         1 UNK         0.0600 
    188 H188        4.8937  -15.3113  -51.9016 H         1 UNK         0.0600 
    189 H189        2.6455  -15.8747  -50.4268 H         1 UNK         0.3000 
    190 H190       -1.1985  -22.0882  -45.5926 H         1 UNK         0.3000 
    191 H191       -2.4070  -21.7324  -48.2022 H         1 UNK         0.0600 
    192 H192       -4.5026  -22.4546  -47.0446 H         1 UNK         0.0600 
    193 H193       -3.7008  -21.1543  -46.1993 H         1 UNK         0.0600 
    194 H194       -3.5929  -22.8004  -45.5834 H         1 UNK         0.0600 
    195 H195       -1.5925  -24.5435  -46.1405 H         1 UNK         0.3000 
    196 H196       -2.5447  -26.5751  -47.8778 H         1 UNK         0.0600 
    197 H197       -1.0736  -28.0655  -46.5384 H         1 UNK         0.0600 
    198 H198       -1.9644  -26.9678  -45.4940 H         1 UNK         0.0600 
    199 H199       -0.2616  -26.6746  -45.8341 H         1 UNK         0.0600 
    200 H200        0.6861  -25.0097  -47.6571 H         1 UNK         0.3000 
    201 H201        1.9320  -26.4608  -49.7541 H         1 UNK         0.0600 
    202 H202        3.1664  -25.1257  -48.0451 H         1 UNK         0.0600 
    203 H203        2.5300  -23.6336  -48.7358 H         1 UNK         0.0600 
    204 H204        3.6172  -24.6460  -49.6748 H         1 UNK         0.0600 
    205 H205        0.0670  -23.4045  -49.8103 H         1 UNK         0.3000 
    206 H206        0.3240  -22.9381  -52.6459 H         1 UNK         0.0600 
    207 H207       -0.0700  -21.1178  -50.9959 H         1 UNK         0.0600 
    208 H208       -1.3866  -21.1689  -52.1520 H         1 UNK         0.0600 
    209 H209       -1.6177  -21.8298  -50.5443 H         1 UNK         0.0600 
    210 H210       -1.4602  -25.2535  -50.9731 H         1 UNK         0.3000 
    211 H211       -3.1907  -26.5832  -51.2901 H         1 UNK         0.0600 
    212 H212       -2.9045  -25.9652  -54.2814 H         1 UNK         0.0600 
    213 H213       -3.7148  -27.3585  -53.5777 H         1 UNK         0.0600 
    214 H214       -1.9767  -27.1803  -53.4029 H         1 UNK         0.0600 
    215 H215       -3.7315  -23.9780  -50.5547 H         1 UNK         0.3000 
    216 H216       -5.1697  -22.3875  -50.2033 H         1 UNK         0.0600 
    217 H217       -7.2953  -24.2445  -51.3972 H         1 UNK         0.0600 
    218 H218       -7.6256  -22.7869  -50.4799 H         1 UNK         0.0600 
    219 H219       -6.8217  -24.1427  -49.7023 H         1 UNK         0.0600 
    220 H220       -5.6402  -23.6368  -53.4809 H         1 UNK         0.3000 
    221 H221       -6.9821  -21.4775  -54.6130 H         1 UNK         0.0600 
    222 H222       -5.1882  -23.5737  -55.9450 H         1 UNK         0.0600 
    223 H223       -6.9104  -23.7353  -55.6057 H         1 UNK         0.0600 
    224 H224       -6.3556  -22.5597  -56.7874 H         1 UNK         0.0600 
    225 H225       -3.4029  -22.0026  -54.5357 H         1 UNK         0.3000 
    226 H226       -2.8663  -19.8738  -56.3863 H         1 UNK         0.0600 
    227 H227       -1.3236  -21.8000  -56.0291 H         1 UNK         0.0600 
    228 H228       -0.5093  -20.2594  -55.8035 H         1 UNK         0.0600 
    229 H229       -0.9612  -21.2197  -54.4064 H         1 UNK         0.0600 
    230 H230       -3.2321  -19.9573  -52.8919 H         1 UNK         0.3000 
    231 H231       -2.3260  -17.1478  -52.5490 H         1 UNK         0.0600 
    232 H232       -3.0863  -19.3633  -50.5913 H         1 UNK         0.0600 
    233 H233       -1.4813  -18.7230  -50.8906 H         1 UNK         0.0600 
    234 H234       -2.6837  -17.7174  -50.1037 H         1 UNK         0.0600 
    235 H235       -5.1409  -18.8003  -53.3451 H         1 UNK         0.3000 
    236 H236       -7.2840  -18.3774  -53.5258 H         1 UNK         0.0600 
    237 H237       -6.5272  -16.2769  -54.6467 H         1 UNK         0.0600 
    238 H238       -8.0688  -16.0591  -53.8345 H         1 UNK         0.0600 
    239 H239       -6.6014  -15.4191  -53.1077 H         1 UNK         0.0600 
    240 H240       -6.5496  -19.3890  -51.1310 H         1 UNK         0.3000 
    241 H241       -7.6032  -17.9612  -48.8777 H         1 UNK         0.0600 
    242 H242       -9.5968  -18.2412  -47.6927 H         1 UNK         0.3800 
    243 H243      -10.9421  -19.0939  -48.3920 H         1 UNK         0.3800 
    244 H244       -7.2211  -20.0453  -47.6033 H         1 UNK         0.0800 
    245 H245       -7.0215  -20.9542  -49.0770 H         1 UNK         0.0800 
    246 H246       -4.9964  -19.0852  -46.2880 H         1 UNK         0.0800 
    247 H247       -5.7733  -17.8160  -47.2001 H         1 UNK         0.0800 
@<TRIPOS>BOND
     1    1    2 1    
     2    1  127 1    
     3    1  128 1    
     4    1  129 1    
     5    2    3 2    
     6    2    4 am   BACKBONE|DICT|INTERRES
     7    4    5 1    
     8    4  130 1    
     9    5    6 1    
    10    5   65 1    
    11    5  131 1    
    12    6    7 1    
    13    6  132 1    
    14    6  133 1    
    15    7    8 1    
    16    8    9 1    
    17    8  134 1    
    18    8  135 1    
    19    9   10 ar   
    20    9   14 ar   
    21   10   11 ar   
    22   10  136 1    
    23   11   12 ar   
    24   11  126 1    
    25   12   13 ar   
    26   12  137 1    
    27   13   14 ar   
    28   13   15 1    
    29   14  138 1    
    30   15   16 1    
    31   15  139 1    
    32   15  140 1    
    33   16   17 1    
    34   17   18 1    
    35   17  141 1    
    36   17  142 1    
    37   18   19 1    
    38   18   67 1    
    39   18  143 1    
    40   19   20 am   BACKBONE|DICT|INTERRES
    41   19  144 1    
    42   20   21 2    
    43   20   22 1    
    44   22   23 1    
    45   22   24 1    
    46   22  145 1    
    47   23  146 1    
    48   23  147 1    
    49   23  148 1    
    50   24   25 am   BACKBONE|DICT|INTERRES
    51   24  149 1    
    52   25   26 2    
    53   25   27 1    
    54   27   28 1    
    55   27   29 1    
    56   27  150 1    
    57   28  151 1    
    58   28  152 1    
    59   28  153 1    
    60   29   30 am   BACKBONE|DICT|INTERRES
    61   29  154 1    
    62   30   31 2    
    63   30   32 1    
    64   32   33 1    
    65   32   34 1    
    66   32  155 1    
    67   33  156 1    
    68   33  157 1    
    69   33  158 1    
    70   34   35 am   BACKBONE|DICT|INTERRES
    71   34  159 1    
    72   35   36 2    
    73   35   37 1    
    74   37   38 1    
    75   37   39 1    
    76   37  160 1    
    77   38  161 1    
    78   38  162 1    
    79   38  163 1    
    80   39   40 am   BACKBONE|DICT|INTERRES
    81   39  164 1    
    82   40   41 2    
    83   40   42 1    
    84   42   43 1    
    85   42   44 1    
    86   42  165 1    
    87   43  166 1    
    88   43  167 1    
    89   43  168 1    
    90   44   45 am   BACKBONE|DICT|INTERRES
    91   44  169 1    
    92   45   46 2    
    93   45   47 1    
    94   47   48 1    
    95   47   49 1    
    96   47  170 1    
    97   48  171 1    
    98   48  172 1    
    99   48  173 1    
   100   49   50 am   BACKBONE|DICT|INTERRES
   101   49  174 1    
   102   50   51 2    
   103   50   52 1    
   104   52   53 1    
   105   52   54 1    
   106   52  175 1    
   107   53  176 1    
   108   53  177 1    
   109   53  178 1    
   110   54   55 am   BACKBONE|DICT|INTERRES
   111   54  179 1    
   112   55   56 2    
   113   55   57 1    
   114   57   58 1    
   115   57   59 1    
   116   57  180 1    
   117   58  181 1    
   118   58  182 1    
   119   58  183 1    
   120   59   60 am   BACKBONE|DICT|INTERRES
   121   59  184 1    
   122   60   61 2    
   123   60   62 1    
   124   62   63 1    
   125   62   64 1    
   126   62  185 1    
   127   63  186 1    
   128   63  187 1    
   129   63  188 1    
   130   64   65 am   BACKBONE|DICT|INTERRES
   131   64  189 1    
   132   65   66 2    
   133   67   68 2    
   134   67   69 am   BACKBONE|DICT|INTERRES
   135   69   70 1    
   136   69  190 1    
   137   70   71 1    
   138   70   72 1    
   139   70  191 1    
   140   71  192 1    
   141   71  193 1    
   142   71  194 1    
   143   72   73 2    
   144   72   74 am   BACKBONE|DICT|INTERRES
   145   74   75 1    
   146   74  195 1    
   147   75   76 1    
   148   75   77 1    
   149   75  196 1    
   150   76  197 1    
   151   76  198 1    
   152   76  199 1    
   153   77   78 2    
   154   77   79 am   BACKBONE|DICT|INTERRES
   155   79   80 1    
   156   79  200 1    
   157   80   81 1    
   158   80   82 1    
   159   80  201 1    
   160   81  202 1    
   161   81  203 1    
   162   81  204 1    
   163   82   83 2    
   164   82   84 am   BACKBONE|DICT|INTERRES
   165   84   85 1    
   166   84  205 1    
   167   85   86 1    
   168   85   87 1    
   169   85  206 1    
   170   86  207 1    
   171   86  208 1    
   172   86  209 1    
   173   87   88 2    
   174   87   89 am   BACKBONE|DICT|INTERRES
   175   89   90 1    
   176   89  210 1    
   177   90   91 1    
   178   90   92 1    
   179   90  211 1    
   180   91  212 1    
   181   91  213 1    
   182   91  214 1    
   183   92   93 2    
   184   92   94 am   BACKBONE|DICT|INTERRES
   185   94   95 1    
   186   94  215 1    
   187   95   96 1    
   188   95   97 1    
   189   95  216 1    
   190   96  217 1    
   191   96  218 1    
   192   96  219 1    
   193   97   98 2    
   194   97   99 am   BACKBONE|DICT|INTERRES
   195   99  100 1    
   196   99  220 1    
   197  100  101 1    
   198  100  102 1    
   199  100  221 1    
   200  101  222 1    
   201  101  223 1    
   202  101  224 1    
   203  102  103 2    
   204  102  104 am   BACKBONE|DICT|INTERRES
   205  104  105 1    
   206  104  225 1    
   207  105  106 1    
   208  105  107 1    
   209  105  226 1    
   210  106  227 1    
   211  106  228 1    
   212  106  229 1    
   213  107  108 2    
   214  107  109 am   BACKBONE|DICT|INTERRES
   215  109  110 1    
   216  109  230 1    
   217  110  111 1    
   218  110  112 1    
   219  110  231 1    
   220  111  232 1    
   221  111  233 1    
   222  111  234 1    
   223  112  113 2    
   224  112  114 am   BACKBONE|DICT|INTERRES
   225  114  115 1    
   226  114  235 1    
   227  115  116 1    
   228  115  117 1    
   229  115  236 1    
   230  116  237 1    
   231  116  238 1    
   232  116  239 1    
   233  117  118 2    
   234  117  119 am   BACKBONE|DICT|INTERRES
   235  119  120 1    
   236  119  240 1    
   237  120  121 1    
   238  120  124 1    
   239  120  241 1    
   240  121  122 am   BACKBONE|DICT|INTERRES
   241  121  123 2    
   242  122  242 1    
   243  122  243 1    
   244  124  125 1    
   245  124  244 1    
   246  124  245 1    
   247  125  126 1    
   248  126  246 1    
   249  126  247 1    
@<TRIPOS>SUBSTRUCTURE
     1 UNK         1 GROUP             0       ****    0 ROOT    
