@<TRIPOS>MOLECULE
3R540
247   249    1
SMALL
USER_CHARGES


@<TRIPOS>ATOM
      1 CA         -3.8465  -14.1192  -45.0246 C.3       0 UNK        -0.1800 
      2 C          -3.1139  -13.0445  -45.8149 C.2       0 UNK         0.5000 
      3 O          -2.8451  -11.9666  -45.2851 O.2       0 UNK        -0.5000 
      4 N          -2.7642  -13.3461  -47.0729 N.am      1 UNK        -0.5000 
      5 CA         -2.1018  -12.4370  -48.0229 C.3       1 UNK         0.1400 
      6 C6         -2.1128  -13.0277  -49.4593 C.3       23 UNK        -0.0398 
      7 S7         -3.5389  -12.4582  -50.4446 S.3       23 UNK        -0.2404 
      8 C8         -4.9589  -13.2789  -49.6430 C.3       23 UNK        -0.0205 
      9 C9         -4.9069  -14.8030  -49.6763 C.ar      23 UNK        -0.0193 
     10 C10        -4.5639  -15.4871  -50.8456 C.ar      23 UNK        -0.1150 
     11 C11        -4.5562  -16.8832  -50.8784 C.ar      23 UNK        -0.0193 
     12 C12        -4.9214  -17.6003  -49.7357 C.ar      23 UNK        -0.1150 
     13 C13        -5.2791  -16.9331  -48.5551 C.ar      23 UNK        -0.0193 
     14 C14        -5.2609  -15.5345  -48.5389 C.ar      23 UNK        -0.1150 
     15 C15        -5.7417  -17.6591  -47.2888 C.3       23 UNK        -0.0205 
     16 S16        -5.4922  -19.4667  -47.2546 S.3       23 UNK        -0.2404 
     17 C17        -3.6956  -19.5581  -46.9660 C.3       23 UNK        -0.0398 
     18 CA         -3.1552  -21.0074  -46.9240 C.3       11 UNK         0.1400 
     19 N          -1.6948  -21.0541  -47.0531 N.am      11 UNK        -0.5000 
     20 C          -0.9729  -22.1722  -47.2186 C.2       10 UNK         0.5000 
     21 O          -1.4704  -23.2891  -47.3393 O.2       10 UNK        -0.5000 
     22 CA          0.5608  -22.0376  -47.1927 C.3       10 UNK         0.1400 
     23 CB          1.1085  -21.6276  -48.5650 C.3       10 UNK        -0.1800 
     24 N           1.0194  -21.0920  -46.1782 N.am      10 UNK        -0.5000 
     25 C           0.8497  -21.2560  -44.8591 C.2       9 UNK         0.5000 
     26 O           0.3512  -22.2618  -44.3543 O.2       9 UNK        -0.5000 
     27 CA          1.2385  -20.0657  -43.9651 C.3       9 UNK         0.1400 
     28 CB          2.7522  -20.0355  -43.7092 C.3       9 UNK        -0.1800 
     29 N           0.7989  -18.7935  -44.5421 N.am      9 UNK        -0.5000 
     30 C          -0.4868  -18.4415  -44.6828 C.2       8 UNK         0.5000 
     31 O          -1.4291  -19.1173  -44.2710 O.2       8 UNK        -0.5000 
     32 CA         -0.7705  -17.1458  -45.4595 C.3       8 UNK         0.1400 
     33 CB         -0.7276  -15.9333  -44.5253 C.3       8 UNK        -0.1800 
     34 N           0.1656  -16.9543  -46.5678 N.am      8 UNK        -0.5000 
     35 C           0.0988  -17.6451  -47.7144 C.2       7 UNK         0.5000 
     36 O          -0.7643  -18.4881  -47.9435 O.2       7 UNK        -0.5000 
     37 CA          1.1870  -17.3903  -48.7712 C.3       7 UNK         0.1400 
     38 CB          0.7682  -16.2405  -49.7000 C.3       7 UNK        -0.1800 
     39 N           2.5068  -17.1060  -48.2082 N.am      7 UNK        -0.5000 
     40 C           3.2159  -17.9396  -47.4337 C.2       6 UNK         0.5000 
     41 O           2.8273  -19.0612  -47.1072 O.2       6 UNK        -0.5000 
     42 CA          4.5700  -17.4247  -46.8955 C.3       6 UNK         0.1400 
     43 CB          5.0823  -16.1596  -47.6185 C.3       6 UNK        -0.1800 
     44 N           4.5767  -17.1872  -45.4449 N.am      6 UNK        -0.5000 
     45 C           3.6535  -16.5348  -44.7237 C.2       5 UNK         0.5000 
     46 O           2.5658  -16.1673  -45.1708 O.2       5 UNK        -0.5000 
     47 CA          4.0112  -16.2348  -43.2598 C.3       5 UNK         0.1400 
     48 CB          5.1412  -15.1945  -43.1858 C.3       5 UNK        -0.1800 
     49 N           2.8408  -15.6820  -42.5823 N.am      5 UNK        -0.5000 
     50 C           2.1713  -16.2638  -41.5794 C.2       4 UNK         0.5000 
     51 O           2.5107  -17.3322  -41.0697 O.2       4 UNK        -0.5000 
     52 CA          0.9165  -15.5443  -41.0443 C.3       4 UNK         0.1400 
     53 CB          0.9459  -15.4056  -39.5109 C.3       4 UNK        -0.1800 
     54 N           0.7361  -14.2234  -41.6468 N.am      4 UNK        -0.5000 
     55 C          -0.4369  -13.6376  -41.9043 C.2       3 UNK         0.5000 
     56 O          -1.5290  -14.1450  -41.6478 O.2       3 UNK        -0.5000 
     57 CA         -0.3846  -12.2491  -42.5674 C.3       3 UNK         0.1400 
     58 CB          0.4971  -11.2579  -41.7800 C.3       3 UNK        -0.1800 
     59 N          -0.0118  -12.2850  -43.9863 N.am      3 UNK        -0.5000 
     60 C           1.1454  -12.6741  -44.5463 C.2       2 UNK         0.5000 
     61 O           2.0964  -13.1312  -43.9092 O.2       2 UNK        -0.5000 
     62 CA          1.2372  -12.5078  -46.0770 C.3       2 UNK         0.1400 
     63 CB          2.3305  -13.3537  -46.7521 C.3       2 UNK        -0.1800 
     64 N          -0.0528  -12.7976  -46.7010 N.am      2 UNK        -0.5000 
     65 C          -0.6745  -12.0210  -47.5951 C.2       1 UNK         0.5000 
     66 O          -0.1806  -10.9963  -48.0673 O.2       1 UNK        -0.5000 
     67 C          -3.6572  -21.7769  -45.6818 C.2       11 UNK         0.5000 
     68 O          -4.6427  -22.5088  -45.7703 O.2       11 UNK        -0.5000 
     69 N          -2.9546  -21.6351  -44.5498 N.am      12 UNK        -0.5000 
     70 CA         -3.2373  -22.3799  -43.3226 C.3       12 UNK         0.1400 
     71 CB         -2.4203  -21.7879  -42.1640 C.3       12 UNK        -0.1800 
     72 C          -2.9756  -23.8927  -43.4687 C.2       12 UNK         0.5000 
     73 O          -3.7327  -24.6944  -42.9202 O.2       12 UNK        -0.5000 
     74 N          -1.9165  -24.2530  -44.2049 N.am      13 UNK        -0.5000 
     75 CA         -1.4961  -25.6339  -44.4302 C.3       13 UNK         0.1400 
     76 CB         -0.0151  -25.6459  -44.8409 C.3       13 UNK        -0.1800 
     77 C          -2.3471  -26.3798  -45.4756 C.2       13 UNK         0.5000 
     78 O          -2.6981  -27.5380  -45.2458 O.2       13 UNK        -0.5000 
     79 N          -2.6255  -25.7296  -46.6129 N.am      14 UNK        -0.5000 
     80 CA         -3.1407  -26.3612  -47.8321 C.3       14 UNK         0.1400 
     81 CB         -2.0415  -26.3001  -48.9076 C.3       14 UNK        -0.1800 
     82 C          -4.4652  -25.7483  -48.3263 C.2       14 UNK         0.5000 
     83 O          -4.8003  -25.9048  -49.5026 O.2       14 UNK        -0.5000 
     84 N          -5.2033  -25.0855  -47.4252 N.am      15 UNK        -0.5000 
     85 CA         -6.4975  -24.4255  -47.6453 C.3       15 UNK         0.1400 
     86 CB         -7.5767  -25.4545  -48.0506 C.3       15 UNK        -0.1800 
     87 C          -6.4120  -23.2292  -48.6193 C.2       15 UNK         0.5000 
     88 O          -5.3158  -22.7773  -48.9469 O.2       15 UNK        -0.5000 
     89 N          -7.5728  -22.7206  -49.0581 N.am      16 UNK        -0.5000 
     90 CA         -7.7435  -21.4851  -49.8375 C.3       16 UNK         0.1400 
     91 CB         -9.2419  -21.2762  -50.1055 C.3       16 UNK        -0.1800 
     92 C          -6.9464  -21.3934  -51.1566 C.2       16 UNK         0.5000 
     93 O          -6.6922  -20.2851  -51.6288 O.2       16 UNK        -0.5000 
     94 N          -6.5564  -22.5436  -51.7223 N.am      17 UNK        -0.5000 
     95 CA         -5.6673  -22.6390  -52.8815 C.3       17 UNK         0.1400 
     96 CB         -5.7142  -24.0762  -53.4231 C.3       17 UNK        -0.1800 
     97 C          -4.2111  -22.2360  -52.5678 C.2       17 UNK         0.5000 
     98 O          -3.4959  -21.8208  -53.4793 O.2       17 UNK        -0.5000 
     99 N          -3.8055  -22.3764  -51.2956 N.am      18 UNK        -0.5000 
    100 CA        -2.4817  -22.0969  -50.7356 C.3       18 UNK         0.1400 
    101 CB        -2.2290  -20.5799  -50.6760 C.3       18 UNK        -0.1800 
    102 C         -1.3496  -22.8676  -51.4400 C.2       18 UNK         0.5000 
    103 O         -0.2939  -22.2961  -51.7190 O.2       18 UNK        -0.5000 
    104 N         -1.6022  -24.1543  -51.7253 N.am      19 UNK        -0.5000 
    105 CA        -0.7290  -25.0871  -52.4430 C.3       19 UNK         0.1400 
    106 CB         0.5152  -25.4372  -51.5942 C.3       19 UNK        -0.1800 
    107 C         -0.3912  -24.5594  -53.8523 C.2       19 UNK         0.5000 
    108 O         -1.2106  -24.7023  -54.7608 O.2       19 UNK        -0.5000 
    109 N          0.7871  -23.9437  -53.9946 N.am      20 UNK        -0.5000 
    110 CA         1.2462  -23.2534  -55.1972 C.3       20 UNK         0.1400 
    111 CB         2.2341  -24.1631  -55.9504 C.3       20 UNK        -0.1800 
    112 C          1.8596  -21.8785  -54.8602 C.2       20 UNK         0.5000 
    113 O          2.5537  -21.3100  -55.7049 O.2       20 UNK        -0.5000 
    114 N          1.6209  -21.3612  -53.6429 N.am      21 UNK        -0.5000 
    115 CA         2.0993  -20.0455  -53.2088 C.3       21 UNK         0.1400 
    116 CB         2.0448  -19.9495  -51.6767 C.3       21 UNK        -0.1800 
    117 C          1.2951  -18.9038  -53.8552 C.2       21 UNK         0.5000 
    118 O          1.8785  -17.8882  -54.2366 O.2       21 UNK        -0.5000 
    119 N         -0.0198  -19.1091  -53.9894 N.am      22 UNK        -0.5000 
    120 CA        -0.9246  -18.2497  -54.7620 C.3       22 UNK         0.1400 
    121 C         -0.9566  -18.6877  -56.2510 C.2       22 UNK         0.5000 
    122 N         -1.0837  -17.7468  -57.1768 N.am      22 UNK        -0.7600 
    123 O         -0.9051  -19.8723  -56.5760 O.2       22 UNK        -0.5000 
    124 C124       -2.3523  -18.2437  -54.1645 C.3       23 UNK        -0.0398 
    125 S125       -2.4118  -17.4249  -52.5373 S.3       23 UNK        -0.2404 
    126 C126       -4.1821  -17.6078  -52.1619 C.3       23 UNK        -0.0205 
    127 H127       -3.3824  -14.2484  -44.0466 H         1 UNK         0.0600 
    128 H128       -3.8300  -15.0816  -45.5366 H         1 UNK         0.0600 
    129 H129       -4.8860  -13.8289  -44.8732 H         1 UNK         0.0600 
    130 H130       -3.0107  -14.2518  -47.4450 H         1 UNK         0.3000 
    131 H131       -2.6757  -11.5076  -48.0229 H         1 UNK         0.0600 
    132 H132       -1.2294  -12.7248  -50.0253 H         1 UNK         0.0800 
    133 H133       -2.0818  -14.1185  -49.4483 H         1 UNK         0.0800 
    134 H134       -5.8692  -12.9605  -50.1523 H         1 UNK         0.0800 
    135 H135       -5.0450  -12.9137  -48.6190 H         1 UNK         0.0800 
    136 H136       -4.3014  -14.9342  -51.7365 H         1 UNK         0.1150 
    137 H137       -4.9435  -18.6787  -49.7856 H         1 UNK         0.1150 
    138 H138       -5.5546  -15.0115  -47.6393 H         1 UNK         0.1150 
    139 H139       -5.2505  -17.2229  -46.4177 H         1 UNK         0.0800 
    140 H140       -6.8085  -17.4690  -47.1651 H         1 UNK         0.0800 
    141 H141       -3.2209  -19.0123  -47.7805 H         1 UNK         0.0800 
    142 H142       -3.4512  -19.0213  -46.0491 H         1 UNK         0.0800 
    143 H143       -3.5418  -21.5228  -47.8001 H         1 UNK         0.0600 
    144 H144       -1.2161  -20.1591  -47.0554 H         1 UNK         0.3000 
    145 H145        0.9760  -23.0165  -46.9446 H         1 UNK         0.0600 
    146 H146        2.1961  -21.5551  -48.5513 H         1 UNK         0.0600 
    147 H147        0.8438  -22.3644  -49.3229 H         1 UNK         0.0600 
    148 H148        0.7150  -20.6636  -48.8847 H         1 UNK         0.0600 
    149 H149        1.5003  -20.2597  -46.5107 H         1 UNK         0.3000 
    150 H150        0.7364  -20.1935  -43.0037 H         1 UNK         0.0600 
    151 H151        3.0910  -20.9770  -43.2752 H         1 UNK         0.0600 
    152 H152        3.0151  -19.2450  -43.0077 H         1 UNK         0.0600 
    153 H153        3.3193  -19.8759  -44.6260 H         1 UNK         0.0600 
    154 H154        1.5081  -18.1906  -44.9375 H         1 UNK         0.3000 
    155 H155       -1.7813  -17.2132  -45.8671 H         1 UNK         0.0600 
    156 H156        0.2523  -15.8087  -44.0680 H         1 UNK         0.0600 
    157 H157       -1.4540  -16.0413  -43.7190 H         1 UNK         0.0600 
    158 H158       -0.9667  -15.0160  -45.0578 H         1 UNK         0.0600 
    159 H159        0.9791  -16.3760  -46.3834 H         1 UNK         0.3000 
    160 H160        1.2723  -18.2981  -49.3693 H         1 UNK         0.0600 
    161 H161        0.6991  -15.2929  -49.1638 H         1 UNK         0.0600 
    162 H162       -0.2073  -16.4365  -50.1484 H         1 UNK         0.0600 
    163 H163        1.4784  -16.1151  -50.5174 H         1 UNK         0.0600 
    164 H164        2.8947  -16.1958  -48.4061 H         1 UNK         0.3000 
    165 H165        5.2880  -18.2242  -47.0830 H         1 UNK         0.0600 
    166 H166        6.0923  -15.9109  -47.2924 H         1 UNK         0.0600 
    167 H167        5.1253  -16.3075  -48.6984 H         1 UNK         0.0600 
    168 H168        4.4546  -15.2906  -47.4206 H         1 UNK         0.0600 
    169 H169        5.4148  -17.4925  -44.9710 H         1 UNK         0.3000 
    170 H170        4.3435  -17.1608  -42.7874 H         1 UNK         0.0600 
    171 H171        6.0560  -15.5654  -43.6490 H         1 UNK         0.0600 
    172 H172        4.8668  -14.2681  -43.6931 H         1 UNK         0.0600 
    173 H173        5.3804  -14.9488  -42.1510 H         1 UNK         0.0600 
    174 H174        2.4539  -14.8602  -43.0366 H         1 UNK         0.3000 
    175 H175        0.0710  -16.1790  -41.3181 H         1 UNK         0.0600 
    176 H176        1.7809  -14.7857  -39.1829 H         1 UNK         0.0600 
    177 H177        0.0265  -14.9544  -39.1373 H         1 UNK         0.0600 
    178 H178        1.0460  -16.3779  -39.0271 H         1 UNK         0.0600 
    179 H179        1.5757  -13.7408  -41.9438 H         1 UNK         0.3000 
    180 H180       -1.4035  -11.8588  -42.5421 H         1 UNK         0.0600 
    181 H181        1.5524  -11.5304  -41.8000 H         1 UNK         0.0600 
    182 H182        0.1920  -11.2128  -40.7338 H         1 UNK         0.0600 
    183 H183        0.4085  -10.2504  -42.1862 H         1 UNK         0.0600 
    184 H184       -0.7416  -11.9600  -44.6102 H         1 UNK         0.3000 
    185 H185        1.4989  -11.4582  -46.2244 H         1 UNK         0.0600 
    186 H186        2.0305  -14.3958  -46.8346 H         1 UNK         0.0600 
    187 H187        2.5253  -12.9938  -47.7622 H         1 UNK         0.0600 
    188 H188        3.2747  -13.3134  -46.2078 H         1 UNK         0.0600 
    189 H189       -0.5394  -13.6136  -46.3611 H         1 UNK         0.3000 
    190 H190       -2.1874  -20.9713  -44.5218 H         1 UNK         0.3000 
    191 H191       -4.2957  -22.2488  -43.0877 H         1 UNK         0.0600 
    192 H192       -1.3479  -21.8824  -42.3343 H         1 UNK         0.0600 
    193 H193       -2.6491  -22.2961  -41.2266 H         1 UNK         0.0600 
    194 H194       -2.6437  -20.7300  -42.0246 H         1 UNK         0.0600 
    195 H195       -1.3159  -23.5256  -44.5765 H         1 UNK         0.3000 
    196 H196       -1.5815  -26.1763  -43.4861 H         1 UNK         0.0600 
    197 H197        0.3417  -26.6657  -44.9903 H         1 UNK         0.0600 
    198 H198        0.6105  -25.1911  -44.0725 H         1 UNK         0.0600 
    199 H199        0.1496  -25.1004  -45.7707 H         1 UNK         0.0600 
    200 H200       -2.2871  -24.7749  -46.7297 H         1 UNK         0.3000 
    201 H201       -3.3592  -27.4148  -47.6492 H         1 UNK         0.0600 
    202 H202       -1.1292  -26.7880  -48.5642 H         1 UNK         0.0600 
    203 H203       -1.7922  -25.2698  -49.1598 H         1 UNK         0.0600 
    204 H204       -2.3486  -26.8025  -49.8255 H         1 UNK         0.0600 
    205 H205       -4.7964  -24.9390  -46.5115 H         1 UNK         0.3000 
    206 H206       -6.7841  -24.0087  -46.6790 H         1 UNK         0.0600 
    207 H207       -7.5589  -26.3221  -47.3909 H         1 UNK         0.0600 
    208 H208       -8.5783  -25.0291  -47.9852 H         1 UNK         0.0600 
    209 H209       -7.4375  -25.8103  -49.0720 H         1 UNK         0.0600 
    210 H210       -8.4271  -23.1659  -48.7568 H         1 UNK         0.3000 
    211 H211       -7.3980  -20.6630  -49.2092 H         1 UNK         0.0600 
    212 H212       -9.6612  -22.0925  -50.6949 H         1 UNK         0.0600 
    213 H213       -9.4168  -20.3504  -50.6555 H         1 UNK         0.0600 
    214 H214       -9.8048  -21.2081  -49.1744 H         1 UNK         0.0600 
    215 H215       -6.8022  -23.4079  -51.2626 H         1 UNK         0.3000 
    216 H216       -6.0379  -21.9660  -53.6576 H         1 UNK         0.0600 
    217 H217       -5.0730  -24.1849  -54.2990 H         1 UNK         0.0600 
    218 H218       -6.7249  -24.3519  -53.7248 H         1 UNK         0.0600 
    219 H219       -5.3765  -24.7978  -52.6777 H         1 UNK         0.0600 
    220 H220       -4.4906  -22.6784  -50.6055 H         1 UNK         0.3000 
    221 H221       -2.5089  -22.4720  -49.7140 H         1 UNK         0.0600 
    222 H222       -2.1268  -20.1598  -51.6751 H         1 UNK         0.0600 
    223 H223       -3.0428  -20.0620  -50.1706 H         1 UNK         0.0600 
    224 H224       -1.3142  -20.3515  -50.1298 H         1 UNK         0.0600 
    225 H225       -2.5187  -24.5093  -51.4931 H         1 UNK         0.3000 
    226 H226       -1.2998  -26.0062  -52.5839 H         1 UNK         0.0600 
    227 H227        0.2273  -25.9367  -50.6701 H         1 UNK         0.0600 
    228 H228        1.1754  -26.1191  -52.1316 H         1 UNK         0.0600 
    229 H229        1.0991  -24.5586  -51.3191 H         1 UNK         0.0600 
    230 H230        1.3815  -23.8590  -53.1819 H         1 UNK         0.3000 
    231 H231        0.3983  -23.0469  -55.8537 H         1 UNK         0.0600 
    232 H232        2.5594  -23.7056  -56.8855 H         1 UNK         0.0600 
    233 H233        1.7742  -25.1186  -56.2033 H         1 UNK         0.0600 
    234 H234        3.1244  -24.3666  -55.3544 H         1 UNK         0.0600 
    235 H235        0.9906  -21.8413  -53.0038 H         1 UNK         0.3000 
    236 H236        3.1427  -19.9392  -53.5136 H         1 UNK         0.0600 
    237 H237        2.5921  -20.7671  -51.2076 H         1 UNK         0.0600 
    238 H238        2.4940  -19.0170  -51.3335 H         1 UNK         0.0600 
    239 H239        1.0192  -19.9760  -51.3073 H         1 UNK         0.0600 
    240 H240       -0.4020  -19.9910  -53.6814 H         1 UNK         0.3000 
    241 H241       -0.5487  -17.2249  -54.7284 H         1 UNK         0.0600 
    242 H242       -1.1196  -18.0182  -58.1474 H         1 UNK         0.3800 
    243 H243       -1.1348  -16.7686  -56.9365 H         1 UNK         0.3800 
    244 H244       -3.0409  -17.7127  -54.8245 H         1 UNK         0.0800 
    245 H245       -2.7369  -19.2607  -54.0707 H         1 UNK         0.0800 
    246 H246       -4.4257  -18.6695  -52.0924 H         1 UNK         0.0800 
    247 H247       -4.7750  -17.2060  -52.9847 H         1 UNK         0.0800 
@<TRIPOS>BOND
     1    1    2 1    
     2    1  127 1    
     3    1  128 1    
     4    1  129 1    
     5    2    3 2    
     6    2    4 am   BACKBONE|DICT|INTERRES
     7    4    5 1    
     8    4  130 1    
     9    5    6 1    
    10    5   65 1    
    11    5  131 1    
    12    6    7 1    
    13    6  132 1    
    14    6  133 1    
    15    7    8 1    
    16    8    9 1    
    17    8  134 1    
    18    8  135 1    
    19    9   10 ar   
    20    9   14 ar   
    21   10   11 ar   
    22   10  136 1    
    23   11   12 ar   
    24   11  126 1    
    25   12   13 ar   
    26   12  137 1    
    27   13   14 ar   
    28   13   15 1    
    29   14  138 1    
    30   15   16 1    
    31   15  139 1    
    32   15  140 1    
    33   16   17 1    
    34   17   18 1    
    35   17  141 1    
    36   17  142 1    
    37   18   19 1    
    38   18   67 1    
    39   18  143 1    
    40   19   20 am   BACKBONE|DICT|INTERRES
    41   19  144 1    
    42   20   21 2    
    43   20   22 1    
    44   22   23 1    
    45   22   24 1    
    46   22  145 1    
    47   23  146 1    
    48   23  147 1    
    49   23  148 1    
    50   24   25 am   BACKBONE|DICT|INTERRES
    51   24  149 1    
    52   25   26 2    
    53   25   27 1    
    54   27   28 1    
    55   27   29 1    
    56   27  150 1    
    57   28  151 1    
    58   28  152 1    
    59   28  153 1    
    60   29   30 am   BACKBONE|DICT|INTERRES
    61   29  154 1    
    62   30   31 2    
    63   30   32 1    
    64   32   33 1    
    65   32   34 1    
    66   32  155 1    
    67   33  156 1    
    68   33  157 1    
    69   33  158 1    
    70   34   35 am   BACKBONE|DICT|INTERRES
    71   34  159 1    
    72   35   36 2    
    73   35   37 1    
    74   37   38 1    
    75   37   39 1    
    76   37  160 1    
    77   38  161 1    
    78   38  162 1    
    79   38  163 1    
    80   39   40 am   BACKBONE|DICT|INTERRES
    81   39  164 1    
    82   40   41 2    
    83   40   42 1    
    84   42   43 1    
    85   42   44 1    
    86   42  165 1    
    87   43  166 1    
    88   43  167 1    
    89   43  168 1    
    90   44   45 am   BACKBONE|DICT|INTERRES
    91   44  169 1    
    92   45   46 2    
    93   45   47 1    
    94   47   48 1    
    95   47   49 1    
    96   47  170 1    
    97   48  171 1    
    98   48  172 1    
    99   48  173 1    
   100   49   50 am   BACKBONE|DICT|INTERRES
   101   49  174 1    
   102   50   51 2    
   103   50   52 1    
   104   52   53 1    
   105   52   54 1    
   106   52  175 1    
   107   53  176 1    
   108   53  177 1    
   109   53  178 1    
   110   54   55 am   BACKBONE|DICT|INTERRES
   111   54  179 1    
   112   55   56 2    
   113   55   57 1    
   114   57   58 1    
   115   57   59 1    
   116   57  180 1    
   117   58  181 1    
   118   58  182 1    
   119   58  183 1    
   120   59   60 am   BACKBONE|DICT|INTERRES
   121   59  184 1    
   122   60   61 2    
   123   60   62 1    
   124   62   63 1    
   125   62   64 1    
   126   62  185 1    
   127   63  186 1    
   128   63  187 1    
   129   63  188 1    
   130   64   65 am   BACKBONE|DICT|INTERRES
   131   64  189 1    
   132   65   66 2    
   133   67   68 2    
   134   67   69 am   BACKBONE|DICT|INTERRES
   135   69   70 1    
   136   69  190 1    
   137   70   71 1    
   138   70   72 1    
   139   70  191 1    
   140   71  192 1    
   141   71  193 1    
   142   71  194 1    
   143   72   73 2    
   144   72   74 am   BACKBONE|DICT|INTERRES
   145   74   75 1    
   146   74  195 1    
   147   75   76 1    
   148   75   77 1    
   149   75  196 1    
   150   76  197 1    
   151   76  198 1    
   152   76  199 1    
   153   77   78 2    
   154   77   79 am   BACKBONE|DICT|INTERRES
   155   79   80 1    
   156   79  200 1    
   157   80   81 1    
   158   80   82 1    
   159   80  201 1    
   160   81  202 1    
   161   81  203 1    
   162   81  204 1    
   163   82   83 2    
   164   82   84 am   BACKBONE|DICT|INTERRES
   165   84   85 1    
   166   84  205 1    
   167   85   86 1    
   168   85   87 1    
   169   85  206 1    
   170   86  207 1    
   171   86  208 1    
   172   86  209 1    
   173   87   88 2    
   174   87   89 am   BACKBONE|DICT|INTERRES
   175   89   90 1    
   176   89  210 1    
   177   90   91 1    
   178   90   92 1    
   179   90  211 1    
   180   91  212 1    
   181   91  213 1    
   182   91  214 1    
   183   92   93 2    
   184   92   94 am   BACKBONE|DICT|INTERRES
   185   94   95 1    
   186   94  215 1    
   187   95   96 1    
   188   95   97 1    
   189   95  216 1    
   190   96  217 1    
   191   96  218 1    
   192   96  219 1    
   193   97   98 2    
   194   97   99 am   BACKBONE|DICT|INTERRES
   195   99  100 1    
   196   99  220 1    
   197  100  101 1    
   198  100  102 1    
   199  100  221 1    
   200  101  222 1    
   201  101  223 1    
   202  101  224 1    
   203  102  103 2    
   204  102  104 am   BACKBONE|DICT|INTERRES
   205  104  105 1    
   206  104  225 1    
   207  105  106 1    
   208  105  107 1    
   209  105  226 1    
   210  106  227 1    
   211  106  228 1    
   212  106  229 1    
   213  107  108 2    
   214  107  109 am   BACKBONE|DICT|INTERRES
   215  109  110 1    
   216  109  230 1    
   217  110  111 1    
   218  110  112 1    
   219  110  231 1    
   220  111  232 1    
   221  111  233 1    
   222  111  234 1    
   223  112  113 2    
   224  112  114 am   BACKBONE|DICT|INTERRES
   225  114  115 1    
   226  114  235 1    
   227  115  116 1    
   228  115  117 1    
   229  115  236 1    
   230  116  237 1    
   231  116  238 1    
   232  116  239 1    
   233  117  118 2    
   234  117  119 am   BACKBONE|DICT|INTERRES
   235  119  120 1    
   236  119  240 1    
   237  120  121 1    
   238  120  124 1    
   239  120  241 1    
   240  121  122 am   BACKBONE|DICT|INTERRES
   241  121  123 2    
   242  122  242 1    
   243  122  243 1    
   244  124  125 1    
   245  124  244 1    
   246  124  245 1    
   247  125  126 1    
   248  126  246 1    
   249  126  247 1    
@<TRIPOS>SUBSTRUCTURE
     1 UNK         1 GROUP             0       ****    0 ROOT    
