@<TRIPOS>MOLECULE
3R540
247   249    1
SMALL
USER_CHARGES


@<TRIPOS>ATOM
      1 CA          4.5040  -11.5984  -49.2316 C.3       0 UNK        -0.1800 
      2 C           3.4105  -12.1489  -48.3289 C.2       0 UNK         0.5000 
      3 O           3.3907  -11.8423  -47.1366 O.2       0 UNK        -0.5000 
      4 N           2.4910  -12.9448  -48.8927 N.am      1 UNK        -0.5000 
      5 CA          1.3829  -13.6095  -48.1911 C.3       1 UNK         0.1400 
      6 C6          0.5235  -14.4776  -49.1397 C.3       23 UNK        -0.0398 
      7 S7          1.4691  -15.8061  -49.9571 S.3       23 UNK        -0.2404 
      8 C8          0.4779  -17.2595  -49.4953 C.3       23 UNK        -0.0205 
      9 C9          0.7592  -18.4419  -50.4057 C.ar      23 UNK        -0.0193 
     10 C10         0.2585  -18.4431  -51.7099 C.ar      23 UNK        -0.1150 
     11 C11         0.4858  -19.5282  -52.5601 C.ar      23 UNK        -0.0193 
     12 C12         1.2232  -20.6203  -52.0939 C.ar      23 UNK        -0.1150 
     13 C13         1.7382  -20.6274  -50.7933 C.ar      23 UNK        -0.0193 
     14 C14         1.5021  -19.5349  -49.9519 C.ar      23 UNK        -0.1150 
     15 C15         2.5684  -21.8070  -50.3091 C.3       23 UNK        -0.0205 
     16 S16         1.5304  -23.1349  -49.6244 S.3       23 UNK        -0.2404 
     17 C17         0.9575  -22.3695  -48.0707 C.3       23 UNK        -0.0398 
     18 CA          0.5943  -23.4054  -46.9850 C.3       11 UNK         0.1400 
     19 N           0.5542  -22.7972  -45.6546 N.am      11 UNK        -0.5000 
     20 C           0.5263  -23.4936  -44.5104 C.2       10 UNK         0.5000 
     21 O           0.5504  -24.7228  -44.4592 O.2       10 UNK        -0.5000 
     22 CA          0.4003  -22.6843  -43.2097 C.3       10 UNK         0.1400 
     23 CB          1.7456  -22.0481  -42.8295 C.3       10 UNK        -0.1800 
     24 N          -0.6267  -21.6474  -43.2977 N.am      10 UNK        -0.5000 
     25 C          -1.9336  -21.8796  -43.4818 C.2       9 UNK         0.5000 
     26 O          -2.4230  -23.0057  -43.5667 O.2       9 UNK        -0.5000 
     27 CA         -2.8386  -20.6448  -43.6400 C.3       9 UNK         0.1400 
     28 CB         -3.1662  -20.0234  -42.2738 C.3       9 UNK        -0.1800 
     29 N          -2.2509  -19.6278  -44.5125 N.am      9 UNK        -0.5000 
     30 C          -2.0249  -19.7921  -45.8233 C.2       8 UNK         0.5000 
     31 O          -2.2916  -20.8189  -46.4434 O.2       8 UNK        -0.5000 
     32 CA         -1.3323  -18.6312  -46.5530 C.3       8 UNK         0.1400 
     33 CB         -2.3246  -17.5027  -46.8706 C.3       8 UNK        -0.1800 
     34 N          -0.2124  -18.0960  -45.7808 N.am      8 UNK        -0.5000 
     35 C           0.9194  -18.7721  -45.5363 C.2       7 UNK         0.5000 
     36 O           1.1466  -19.9046  -45.9608 O.2       7 UNK        -0.5000 
     37 CA          1.9541  -18.0792  -44.6332 C.3       7 UNK         0.1400 
     38 CB          2.8270  -17.1262  -45.4632 C.3       7 UNK        -0.1800 
     39 N           1.3489  -17.3438  -43.5196 N.am      7 UNK        -0.5000 
     40 C           0.5799  -17.8891  -42.5649 C.2       6 UNK         0.5000 
     41 O           0.3031  -19.0862  -42.5155 O.2       6 UNK        -0.5000 
     42 CA         -0.0023  -16.9450  -41.4981 C.3       6 UNK         0.1400 
     43 CB          0.8415  -17.0018  -40.2166 C.3       6 UNK        -0.1800 
     44 N          -0.1064  -15.5537  -41.9369 N.am      6 UNK        -0.5000 
     45 C          -0.9162  -15.0918  -42.8966 C.2       5 UNK         0.5000 
     46 O          -1.6626  -15.8120  -43.5611 O.2       5 UNK        -0.5000 
     47 CA         -0.8543  -13.5788  -43.1816 C.3       5 UNK         0.1400 
     48 CB         -1.4714  -12.7560  -42.0347 C.3       5 UNK        -0.1800 
     49 N           0.4885  -13.0977  -43.5316 N.am      5 UNK        -0.5000 
     50 C           1.5992  -13.0488  -42.7803 C.2       4 UNK         0.5000 
     51 O           1.6514  -13.3949  -41.5993 O.2       4 UNK        -0.5000 
     52 CA          2.8787  -12.5500  -43.4739 C.3       4 UNK         0.1400 
     53 CB          3.5413  -13.6910  -44.2595 C.3       4 UNK        -0.1800 
     54 N           2.6438  -11.4226  -44.3741 N.am      4 UNK        -0.5000 
     55 C           2.3422  -10.1798  -43.9734 C.2       3 UNK         0.5000 
     56 O           2.2160   -9.8492  -42.7938 O.2       3 UNK        -0.5000 
     57 CA          2.1504   -9.1300  -45.0797 C.3       3 UNK         0.1400 
     58 CB          3.5066   -8.6255  -45.5979 C.3       3 UNK        -0.1800 
     59 N           1.3747   -9.6708  -46.1938 N.am      3 UNK        -0.5000 
     60 C           0.0360   -9.7100  -46.2303 C.2       2 UNK         0.5000 
     61 O          -0.6872   -9.2408  -45.3509 O.2       2 UNK        -0.5000 
     62 CA         -0.6091  -10.3888  -47.4540 C.3       2 UNK         0.1400 
     63 CB         -0.9218   -9.3503  -48.5420 C.3       2 UNK        -0.1800 
     64 N           0.2163  -11.4511  -48.0317 N.am      2 UNK        -0.5000 
     65 C           0.4683  -12.6248  -47.4355 C.2       1 UNK         0.5000 
     66 O           0.0337  -12.9362  -46.3283 O.2       1 UNK        -0.5000 
     67 C          -0.7047  -24.1785  -47.3042 C.2       11 UNK         0.5000 
     68 O          -0.6296  -25.2755  -47.8566 O.2       11 UNK        -0.5000 
     69 N          -1.8644  -23.6393  -46.8978 N.am      12 UNK        -0.5000 
     70 CA         -3.1670  -24.2945  -47.0310 C.3       12 UNK         0.1400 
     71 CB         -4.2914  -23.3065  -46.6883 C.3       12 UNK        -0.1800 
     72 C          -3.2903  -25.5797  -46.1938 C.2       12 UNK         0.5000 
     73 O          -3.9259  -26.5318  -46.6448 O.2       12 UNK        -0.5000 
     74 N          -2.6708  -25.5948  -45.0064 N.am      13 UNK        -0.5000 
     75 CA         -2.5731  -26.7730  -44.1473 C.3       13 UNK         0.1400 
     76 CB         -2.1701  -26.3412  -42.7288 C.3       13 UNK        -0.1800 
     77 C          -1.5915  -27.8217  -44.7039 C.2       13 UNK         0.5000 
     78 O          -1.8934  -29.0151  -44.6616 O.2       13 UNK        -0.5000 
     79 N          -0.4368  -27.3627  -45.2067 N.am      14 UNK        -0.5000 
     80 CA          0.6268  -28.2072  -45.7520 C.3       14 UNK         0.1400 
     81 CB          1.9154  -27.3807  -45.8831 C.3       14 UNK        -0.1800 
     82 C           0.2675  -28.8561  -47.1013 C.2       14 UNK         0.5000 
     83 O           0.5926  -30.0254  -47.3140 O.2       14 UNK        -0.5000 
     84 N          -0.3778  -28.0905  -47.9871 N.am      15 UNK        -0.5000 
     85 CA         -0.7468  -28.4958  -49.3375 C.3       15 UNK         0.1400 
     86 CB          0.3907  -28.1291  -50.3136 C.3       15 UNK        -0.1800 
     87 C          -2.1016  -27.8631  -49.6873 C.2       15 UNK         0.5000 
     88 O          -3.1367  -28.4118  -49.3077 O.2       15 UNK        -0.5000 
     89 N          -2.0786  -26.7312  -50.3973 N.am      16 UNK        -0.5000 
     90 CA         -3.2385  -25.9354  -50.7753 C.3       16 UNK         0.1400 
     91 CB         -3.9274  -26.5423  -52.0104 C.3       16 UNK        -0.1800 
     92 C          -2.7577  -24.5060  -51.0552 C.2       16 UNK         0.5000 
     93 O          -1.6987  -24.3343  -51.6625 O.2       16 UNK        -0.5000 
     94 N          -3.5492  -23.5220  -50.6208 N.am      17 UNK        -0.5000 
     95 CA         -3.3353  -22.0833  -50.7519 C.3       17 UNK         0.1400 
     96 CB         -2.0608  -21.6304  -50.0088 C.3       17 UNK        -0.1800 
     97 C          -4.5885  -21.3752  -50.2049 C.2       17 UNK         0.5000 
     98 O          -5.5907  -22.0426  -49.9330 O.2       17 UNK        -0.5000 
     99 N          -4.5074  -20.0458  -50.0422 N.am      18 UNK        -0.5000 
    100 CA        -5.5276  -19.1627  -49.4588 C.3       18 UNK         0.1400 
    101 CB        -5.7817  -19.5266  -47.9794 C.3       18 UNK        -0.1800 
    102 C         -6.8331  -19.0703  -50.2811 C.2       18 UNK         0.5000 
    103 O         -7.8760  -18.7030  -49.7369 O.2       18 UNK        -0.5000 
    104 N         -6.7543  -19.3837  -51.5783 N.am      19 UNK        -0.5000 
    105 CA        -7.8449  -19.3383  -52.5429 C.3       19 UNK         0.1400 
    106 CB        -8.7002  -20.6126  -52.4278 C.3       19 UNK        -0.1800 
    107 C         -7.2441  -19.2040  -53.9476 C.2       19 UNK         0.5000 
    108 O         -6.0904  -19.5932  -54.1577 O.2       19 UNK        -0.5000 
    109 N         -8.0406  -18.6637  -54.8805 N.am      20 UNK        -0.5000 
    110 CA        -7.6948  -18.3955  -56.2808 C.3       20 UNK         0.1400 
    111 CB        -7.5842  -19.7215  -57.0682 C.3       20 UNK        -0.1800 
    112 C         -6.4527  -17.4837  -56.3897 C.2       20 UNK         0.5000 
    113 O         -6.4242  -16.4300  -55.7492 O.2       20 UNK        -0.5000 
    114 N         -5.4359  -17.9097  -57.1515 N.am      21 UNK        -0.5000 
    115 CA        -4.1515  -17.2211  -57.3151 C.3       21 UNK         0.1400 
    116 CB        -3.3287  -17.9545  -58.3856 C.3       21 UNK        -0.1800 
    117 C         -3.3379  -17.0874  -56.0103 C.2       21 UNK         0.5000 
    118 O         -2.4962  -16.1932  -55.9157 O.2       21 UNK        -0.5000 
    119 N         -3.6122  -17.9584  -55.0317 N.am      22 UNK        -0.5000 
    120 CA        -3.0400  -17.9194  -53.6799 C.3       22 UNK         0.1400 
    121 C         -3.8961  -17.1046  -52.6651 C.2       22 UNK         0.5000 
    122 N         -4.9810  -16.4500  -53.0641 N.am      22 UNK        -0.7600 
    123 O         -3.5683  -17.0674  -51.4827 O.2       22 UNK        -0.5000 
    124 C124       -2.7500  -19.3436  -53.1418 C.3       23 UNK        -0.0398 
    125 S125       -1.6370  -20.3439  -54.1871 S.3       23 UNK        -0.2404 
    126 C126       -0.0328  -19.5007  -53.9914 C.3       23 UNK        -0.0205 
    127 H127        5.4814  -11.9214  -48.8734 H         1 UNK         0.0600 
    128 H128        4.4805  -10.5087  -49.2256 H         1 UNK         0.0600 
    129 H129        4.3888  -11.9371  -50.2614 H         1 UNK         0.0600 
    130 H130        2.5720  -13.1677  -49.8748 H         1 UNK         0.3000 
    131 H131        1.8298  -14.2662  -47.4419 H         1 UNK         0.0600 
    132 H132        0.0708  -13.8618  -49.9190 H         1 UNK         0.0800 
    133 H133       -0.3081  -14.9201  -48.5880 H         1 UNK         0.0800 
    134 H134       -0.5855  -17.0227  -49.5578 H         1 UNK         0.0800 
    135 H135        0.6877  -17.5098  -48.4554 H         1 UNK         0.0800 
    136 H136       -0.3053  -17.5909  -52.0618 H         1 UNK         0.1150 
    137 H137        1.4034  -21.4628  -52.7469 H         1 UNK         0.1150 
    138 H138        1.8957  -19.5359  -48.9449 H         1 UNK         0.1150 
    139 H139        3.1477  -22.2110  -51.1406 H         1 UNK         0.0800 
    140 H140        3.2972  -21.4836  -49.5644 H         1 UNK         0.0800 
    141 H141        0.1304  -21.6873  -48.2664 H         1 UNK         0.0800 
    142 H142        1.7743  -21.7479  -47.7032 H         1 UNK         0.0800 
    143 H143        1.4009  -24.1413  -46.9589 H         1 UNK         0.0600 
    144 H144        0.5566  -21.7823  -45.6193 H         1 UNK         0.3000 
    145 H145        0.1116  -23.3744  -42.4143 H         1 UNK         0.0600 
    146 H146        1.6820  -21.5398  -41.8672 H         1 UNK         0.0600 
    147 H147        2.5269  -22.8047  -42.7474 H         1 UNK         0.0600 
    148 H148        2.0700  -21.3177  -43.5713 H         1 UNK         0.0600 
    149 H149       -0.3115  -20.6863  -43.1847 H         1 UNK         0.3000 
    150 H150       -3.7746  -20.9753  -44.0951 H         1 UNK         0.0600 
    151 H151       -3.6367  -20.7557  -41.6166 H         1 UNK         0.0600 
    152 H152       -3.8583  -19.1874  -42.3768 H         1 UNK         0.0600 
    153 H153       -2.2717  -19.6578  -41.7690 H         1 UNK         0.0600 
    154 H154       -1.9636  -18.7636  -44.0769 H         1 UNK         0.3000 
    155 H155       -0.9449  -19.0216  -47.4965 H         1 UNK         0.0600 
    156 H156       -2.7723  -17.0906  -45.9652 H         1 UNK         0.0600 
    157 H157       -3.1347  -17.8631  -47.5051 H         1 UNK         0.0600 
    158 H158       -1.8382  -16.6848  -47.4015 H         1 UNK         0.0600 
    159 H159       -0.3425  -17.1904  -45.3519 H         1 UNK         0.3000 
    160 H160        2.5962  -18.8548  -44.2108 H         1 UNK         0.0600 
    161 H161        3.6346  -16.7076  -44.8631 H         1 UNK         0.0600 
    162 H162        2.2452  -16.3003  -45.8740 H         1 UNK         0.0600 
    163 H163        3.2879  -17.6495  -46.3022 H         1 UNK         0.0600 
    164 H164        1.5224  -16.3514  -43.4773 H         1 UNK         0.3000 
    165 H165       -1.0081  -17.2995  -41.2635 H         1 UNK         0.0600 
    166 H166        0.3929  -16.4045  -39.4226 H         1 UNK         0.0600 
    167 H167        0.9233  -18.0247  -39.8461 H         1 UNK         0.0600 
    168 H168        1.8532  -16.6303  -40.3852 H         1 UNK         0.0600 
    169 H169        0.5128  -14.8806  -41.4918 H         1 UNK         0.3000 
    170 H170       -1.4679  -13.4050  -44.0669 H         1 UNK         0.0600 
    171 H171       -2.5011  -13.0630  -41.8481 H         1 UNK         0.0600 
    172 H172       -0.9232  -12.8737  -41.0998 H         1 UNK         0.0600 
    173 H173       -1.4880  -11.6941  -42.2806 H         1 UNK         0.0600 
    174 H174        0.5721  -12.8328  -44.5098 H         1 UNK         0.3000 
    175 H175        3.5736  -12.2260  -42.6962 H         1 UNK         0.0600 
    176 H176        2.9088  -14.0336  -45.0788 H         1 UNK         0.0600 
    177 H177        4.4930  -13.3737  -44.6861 H         1 UNK         0.0600 
    178 H178        3.7434  -14.5456  -43.6129 H         1 UNK         0.0600 
    179 H179        2.7824  -11.5952  -45.3667 H         1 UNK         0.3000 
    180 H180        1.6199   -8.2779  -44.6490 H         1 UNK         0.0600 
    181 H181        4.0953   -9.4266  -46.0461 H         1 UNK         0.0600 
    182 H182        4.0982   -8.1985  -44.7871 H         1 UNK         0.0600 
    183 H183        3.3753   -7.8466  -46.3491 H         1 UNK         0.0600 
    184 H184        1.8963  -10.1297  -46.9281 H         1 UNK         0.3000 
    185 H185       -1.5514  -10.8323  -47.1249 H         1 UNK         0.0600 
    186 H186       -0.0138   -8.8846  -48.9272 H         1 UNK         0.0600 
    187 H187       -1.4494   -9.8041  -49.3811 H         1 UNK         0.0600 
    188 H188       -1.5583   -8.5551  -48.1516 H         1 UNK         0.0600 
    189 H189        0.6279  -11.2688  -48.9355 H         1 UNK         0.3000 
    190 H190       -1.8686  -22.7088  -46.4897 H         1 UNK         0.3000 
    191 H191       -3.2817  -24.5819  -48.0749 H         1 UNK         0.0600 
    192 H192       -4.2179  -22.9537  -45.6598 H         1 UNK         0.0600 
    193 H193       -5.2708  -23.7711  -46.8082 H         1 UNK         0.0600 
    194 H194       -4.2658  -22.4359  -47.3430 H         1 UNK         0.0600 
    195 H195       -2.2347  -24.7427  -44.6706 H         1 UNK         0.3000 
    196 H196       -3.5597  -27.2374  -44.0879 H         1 UNK         0.0600 
    197 H197       -2.1131  -27.2012  -42.0604 H         1 UNK         0.0600 
    198 H198       -2.8986  -25.6483  -42.3072 H         1 UNK         0.0600 
    199 H199       -1.1973  -25.8495  -42.7154 H         1 UNK         0.0600 
    200 H200       -0.2391  -26.3682  -45.1451 H         1 UNK         0.3000 
    201 H201        0.8163  -29.0118  -45.0382 H         1 UNK         0.0600 
    202 H202        2.2284  -26.9818  -44.9180 H         1 UNK         0.0600 
    203 H203        1.7854  -26.5410  -46.5664 H         1 UNK         0.0600 
    204 H204        2.7351  -27.9910  -46.2643 H         1 UNK         0.0600 
    205 H205       -0.5946  -27.1245  -47.7471 H         1 UNK         0.3000 
    206 H206       -0.8933  -29.5774  -49.3748 H         1 UNK         0.0600 
    207 H207        0.1087  -28.3421  -51.3455 H         1 UNK         0.0600 
    208 H208        0.6608  -27.0741  -50.2488 H         1 UNK         0.0600 
    209 H209        1.2879  -28.7098  -50.0990 H         1 UNK         0.0600 
    210 H210       -1.1902  -26.3110  -50.6411 H         1 UNK         0.3000 
    211 H211       -3.9452  -25.9183  -49.9429 H         1 UNK         0.0600 
    212 H212       -3.2459  -26.6026  -52.8598 H         1 UNK         0.0600 
    213 H213       -4.7823  -25.9379  -52.3160 H         1 UNK         0.0600 
    214 H214       -4.2974  -27.5470  -51.8059 H         1 UNK         0.0600 
    215 H215       -4.4382  -23.7387  -50.1841 H         1 UNK         0.3000 
    216 H216       -3.2431  -21.8537  -51.8135 H         1 UNK         0.0600 
    217 H217       -1.8701  -20.5645  -50.1308 H         1 UNK         0.0600 
    218 H218       -1.1743  -22.1402  -50.3814 H         1 UNK         0.0600 
    219 H219       -2.1411  -21.8268  -48.9413 H         1 UNK         0.0600 
    220 H220       -3.6460  -19.5810  -50.2898 H         1 UNK         0.3000 
    221 H221       -5.0975  -18.1606  -49.4743 H         1 UNK         0.0600 
    222 H222       -6.3219  -20.4686  -47.8812 H         1 UNK         0.0600 
    223 H223       -4.8476  -19.6215  -47.4261 H         1 UNK         0.0600 
    224 H224       -6.3755  -18.7580  -47.4837 H         1 UNK         0.0600 
    225 H225       -5.8622  -19.6409  -51.9776 H         1 UNK         0.3000 
    226 H226       -8.4627  -18.4597  -52.3458 H         1 UNK         0.0600 
    227 H227       -9.5121  -20.6089  -53.1559 H         1 UNK         0.0600 
    228 H228       -8.1049  -21.5100  -52.6016 H         1 UNK         0.0600 
    229 H229       -9.1523  -20.6988  -51.4396 H         1 UNK         0.0600 
    230 H230       -8.9602  -18.3529  -54.5999 H         1 UNK         0.3000 
    231 H231       -8.5247  -17.8277  -56.7036 H         1 UNK         0.0600 
    232 H232       -8.4994  -20.3058  -56.9717 H         1 UNK         0.0600 
    233 H233       -6.7609  -20.3440  -56.7156 H         1 UNK         0.0600 
    234 H234       -7.4366  -19.5394  -58.1334 H         1 UNK         0.0600 
    235 H235       -5.5326  -18.7960  -57.6255 H         1 UNK         0.3000 
    236 H236       -4.3590  -16.2108  -57.6737 H         1 UNK         0.0600 
    237 H237       -3.8570  -17.9854  -59.3387 H         1 UNK         0.0600 
    238 H238       -2.3766  -17.4514  -58.5598 H         1 UNK         0.0600 
    239 H239       -3.1077  -18.9807  -58.0886 H         1 UNK         0.0600 
    240 H240       -4.3478  -18.6398  -55.1722 H         1 UNK         0.3000 
    241 H241       -2.0882  -17.3896  -53.7213 H         1 UNK         0.0600 
    242 H242       -5.2836  -16.4658  -54.0311 H         1 UNK         0.3800 
    243 H243       -5.5062  -15.9178  -52.3898 H         1 UNK         0.3800 
    244 H244       -2.3246  -19.3023  -52.1400 H         1 UNK         0.0800 
    245 H245       -3.6865  -19.8932  -53.0485 H         1 UNK         0.0800 
    246 H246        0.6927  -19.9857  -54.6461 H         1 UNK         0.0800 
    247 H247       -0.1112  -18.4736  -54.3498 H         1 UNK         0.0800 
@<TRIPOS>BOND
     1    1    2 1    
     2    1  127 1    
     3    1  128 1    
     4    1  129 1    
     5    2    3 2    
     6    2    4 am   BACKBONE|DICT|INTERRES
     7    4    5 1    
     8    4  130 1    
     9    5    6 1    
    10    5   65 1    
    11    5  131 1    
    12    6    7 1    
    13    6  132 1    
    14    6  133 1    
    15    7    8 1    
    16    8    9 1    
    17    8  134 1    
    18    8  135 1    
    19    9   10 ar   
    20    9   14 ar   
    21   10   11 ar   
    22   10  136 1    
    23   11   12 ar   
    24   11  126 1    
    25   12   13 ar   
    26   12  137 1    
    27   13   14 ar   
    28   13   15 1    
    29   14  138 1    
    30   15   16 1    
    31   15  139 1    
    32   15  140 1    
    33   16   17 1    
    34   17   18 1    
    35   17  141 1    
    36   17  142 1    
    37   18   19 1    
    38   18   67 1    
    39   18  143 1    
    40   19   20 am   BACKBONE|DICT|INTERRES
    41   19  144 1    
    42   20   21 2    
    43   20   22 1    
    44   22   23 1    
    45   22   24 1    
    46   22  145 1    
    47   23  146 1    
    48   23  147 1    
    49   23  148 1    
    50   24   25 am   BACKBONE|DICT|INTERRES
    51   24  149 1    
    52   25   26 2    
    53   25   27 1    
    54   27   28 1    
    55   27   29 1    
    56   27  150 1    
    57   28  151 1    
    58   28  152 1    
    59   28  153 1    
    60   29   30 am   BACKBONE|DICT|INTERRES
    61   29  154 1    
    62   30   31 2    
    63   30   32 1    
    64   32   33 1    
    65   32   34 1    
    66   32  155 1    
    67   33  156 1    
    68   33  157 1    
    69   33  158 1    
    70   34   35 am   BACKBONE|DICT|INTERRES
    71   34  159 1    
    72   35   36 2    
    73   35   37 1    
    74   37   38 1    
    75   37   39 1    
    76   37  160 1    
    77   38  161 1    
    78   38  162 1    
    79   38  163 1    
    80   39   40 am   BACKBONE|DICT|INTERRES
    81   39  164 1    
    82   40   41 2    
    83   40   42 1    
    84   42   43 1    
    85   42   44 1    
    86   42  165 1    
    87   43  166 1    
    88   43  167 1    
    89   43  168 1    
    90   44   45 am   BACKBONE|DICT|INTERRES
    91   44  169 1    
    92   45   46 2    
    93   45   47 1    
    94   47   48 1    
    95   47   49 1    
    96   47  170 1    
    97   48  171 1    
    98   48  172 1    
    99   48  173 1    
   100   49   50 am   BACKBONE|DICT|INTERRES
   101   49  174 1    
   102   50   51 2    
   103   50   52 1    
   104   52   53 1    
   105   52   54 1    
   106   52  175 1    
   107   53  176 1    
   108   53  177 1    
   109   53  178 1    
   110   54   55 am   BACKBONE|DICT|INTERRES
   111   54  179 1    
   112   55   56 2    
   113   55   57 1    
   114   57   58 1    
   115   57   59 1    
   116   57  180 1    
   117   58  181 1    
   118   58  182 1    
   119   58  183 1    
   120   59   60 am   BACKBONE|DICT|INTERRES
   121   59  184 1    
   122   60   61 2    
   123   60   62 1    
   124   62   63 1    
   125   62   64 1    
   126   62  185 1    
   127   63  186 1    
   128   63  187 1    
   129   63  188 1    
   130   64   65 am   BACKBONE|DICT|INTERRES
   131   64  189 1    
   132   65   66 2    
   133   67   68 2    
   134   67   69 am   BACKBONE|DICT|INTERRES
   135   69   70 1    
   136   69  190 1    
   137   70   71 1    
   138   70   72 1    
   139   70  191 1    
   140   71  192 1    
   141   71  193 1    
   142   71  194 1    
   143   72   73 2    
   144   72   74 am   BACKBONE|DICT|INTERRES
   145   74   75 1    
   146   74  195 1    
   147   75   76 1    
   148   75   77 1    
   149   75  196 1    
   150   76  197 1    
   151   76  198 1    
   152   76  199 1    
   153   77   78 2    
   154   77   79 am   BACKBONE|DICT|INTERRES
   155   79   80 1    
   156   79  200 1    
   157   80   81 1    
   158   80   82 1    
   159   80  201 1    
   160   81  202 1    
   161   81  203 1    
   162   81  204 1    
   163   82   83 2    
   164   82   84 am   BACKBONE|DICT|INTERRES
   165   84   85 1    
   166   84  205 1    
   167   85   86 1    
   168   85   87 1    
   169   85  206 1    
   170   86  207 1    
   171   86  208 1    
   172   86  209 1    
   173   87   88 2    
   174   87   89 am   BACKBONE|DICT|INTERRES
   175   89   90 1    
   176   89  210 1    
   177   90   91 1    
   178   90   92 1    
   179   90  211 1    
   180   91  212 1    
   181   91  213 1    
   182   91  214 1    
   183   92   93 2    
   184   92   94 am   BACKBONE|DICT|INTERRES
   185   94   95 1    
   186   94  215 1    
   187   95   96 1    
   188   95   97 1    
   189   95  216 1    
   190   96  217 1    
   191   96  218 1    
   192   96  219 1    
   193   97   98 2    
   194   97   99 am   BACKBONE|DICT|INTERRES
   195   99  100 1    
   196   99  220 1    
   197  100  101 1    
   198  100  102 1    
   199  100  221 1    
   200  101  222 1    
   201  101  223 1    
   202  101  224 1    
   203  102  103 2    
   204  102  104 am   BACKBONE|DICT|INTERRES
   205  104  105 1    
   206  104  225 1    
   207  105  106 1    
   208  105  107 1    
   209  105  226 1    
   210  106  227 1    
   211  106  228 1    
   212  106  229 1    
   213  107  108 2    
   214  107  109 am   BACKBONE|DICT|INTERRES
   215  109  110 1    
   216  109  230 1    
   217  110  111 1    
   218  110  112 1    
   219  110  231 1    
   220  111  232 1    
   221  111  233 1    
   222  111  234 1    
   223  112  113 2    
   224  112  114 am   BACKBONE|DICT|INTERRES
   225  114  115 1    
   226  114  235 1    
   227  115  116 1    
   228  115  117 1    
   229  115  236 1    
   230  116  237 1    
   231  116  238 1    
   232  116  239 1    
   233  117  118 2    
   234  117  119 am   BACKBONE|DICT|INTERRES
   235  119  120 1    
   236  119  240 1    
   237  120  121 1    
   238  120  124 1    
   239  120  241 1    
   240  121  122 am   BACKBONE|DICT|INTERRES
   241  121  123 2    
   242  122  242 1    
   243  122  243 1    
   244  124  125 1    
   245  124  244 1    
   246  124  245 1    
   247  125  126 1    
   248  126  246 1    
   249  126  247 1    
@<TRIPOS>SUBSTRUCTURE
     1 UNK         1 GROUP             0       ****    0 ROOT    
