@<TRIPOS>MOLECULE
3R540
247   249    1
SMALL
USER_CHARGES


@<TRIPOS>ATOM
      1 CA          3.2049  -15.5798  -45.2210 C.3       0 UNK        -0.1800 
      2 C           2.4739  -14.2457  -45.2059 C.2       0 UNK         0.5000 
      3 O           2.8248  -13.3627  -44.4237 O.2       0 UNK        -0.5000 
      4 N           1.4650  -14.0855  -46.0731 N.am      1 UNK        -0.5000 
      5 CA          0.6195  -12.8865  -46.1861 C.3       1 UNK         0.1400 
      6 C6         -0.6551  -13.1243  -47.0405 C.3       23 UNK        -0.0398 
      7 S7         -0.3488  -14.0143  -48.6069 S.3       23 UNK        -0.2404 
      8 C8         -1.0450  -15.6525  -48.2194 C.3       23 UNK        -0.0205 
      9 C9         -0.4298  -16.7227  -49.1025 C.ar      23 UNK        -0.0193 
     10 C10        -1.0700  -17.1367  -50.2727 C.ar      23 UNK        -0.1150 
     11 C11        -0.4911  -18.1098  -51.0939 C.ar      23 UNK        -0.0193 
     12 C12         0.7456  -18.6625  -50.7359 C.ar      23 UNK        -0.1150 
     13 C13         1.4032  -18.2414  -49.5743 C.ar      23 UNK        -0.0193 
     14 C14         0.8017  -17.2821  -48.7569 C.ar      23 UNK        -0.1150 
     15 C15         2.7972  -18.7543  -49.2327 C.3       23 UNK        -0.0205 
     16 S16         2.8181  -20.4567  -48.5903 S.3       23 UNK        -0.2404 
     17 C17         1.8428  -20.3265  -47.0495 C.3       23 UNK        -0.0398 
     18 CA          0.8554  -21.5058  -46.8914 C.3       11 UNK         0.1400 
     19 N           0.2979  -21.5833  -45.5421 N.am      11 UNK        -0.5000 
     20 C          -0.4069  -22.6213  -45.0706 C.2       10 UNK         0.5000 
     21 O          -0.6358  -23.6457  -45.7135 O.2       10 UNK        -0.5000 
     22 CA         -0.9956  -22.4664  -43.6590 C.3       10 UNK         0.1400 
     23 CB          0.0847  -22.6617  -42.5840 C.3       10 UNK        -0.1800 
     24 N          -1.6451  -21.1696  -43.4742 N.am      10 UNK        -0.5000 
     25 C          -2.7439  -20.7706  -44.1302 C.2       9 UNK         0.5000 
     26 O          -3.3413  -21.4596  -44.9558 O.2       9 UNK        -0.5000 
     27 CA         -3.2379  -19.3452  -43.8364 C.3       9 UNK         0.1400 
     28 CB         -4.1002  -19.3191  -42.5657 C.3       9 UNK        -0.1800 
     29 N          -2.1417  -18.3876  -43.6983 N.am      9 UNK        -0.5000 
     30 C          -1.3295  -18.0211  -44.6987 C.2       8 UNK         0.5000 
     31 O          -1.3872  -18.4746  -45.8408 O.2       8 UNK        -0.5000 
     32 CA         -0.2444  -16.9927  -44.3448 C.3       8 UNK         0.1400 
     33 CB         -0.8968  -15.6305  -44.0603 C.3       8 UNK        -0.1800 
     34 N           0.5827  -17.3798  -43.1998 N.am      8 UNK        -0.5000 
     35 C           1.2122  -18.5561  -43.0397 C.2       7 UNK         0.5000 
     36 O           1.1867  -19.4599  -43.8746 O.2       7 UNK        -0.5000 
     37 CA          2.0057  -18.7827  -41.7361 C.3       7 UNK         0.1400 
     38 CB          3.5136  -18.8059  -42.0301 C.3       7 UNK        -0.1800 
     39 N           1.7495  -17.7878  -40.6949 N.am      7 UNK        -0.5000 
     40 C           0.5929  -17.6063  -40.0417 C.2       6 UNK         0.5000 
     41 O          -0.3973  -18.3222  -40.1947 O.2       6 UNK        -0.5000 
     42 CA          0.5219  -16.3906  -39.0922 C.3       6 UNK         0.1400 
     43 CB          0.6926  -16.8386  -37.6328 C.3       6 UNK        -0.1800 
     44 N           1.5121  -15.3462  -39.3912 N.am      6 UNK        -0.5000 
     45 C           1.5579  -14.6356  -40.5266 C.2       5 UNK         0.5000 
     46 O           0.7575  -14.7831  -41.4522 O.2       5 UNK        -0.5000 
     47 CA          2.7444  -13.6704  -40.6783 C.3       5 UNK         0.1400 
     48 CB          3.9856  -14.4302  -41.1740 C.3       5 UNK        -0.1800 
     49 N           2.4457  -12.6092  -41.6341 N.am      5 UNK        -0.5000 
     50 C           1.7873  -11.4786  -41.3504 C.2       4 UNK         0.5000 
     51 O           1.3579  -11.2049  -40.2277 O.2       4 UNK        -0.5000 
     52 CA          1.5997  -10.4870  -42.5215 C.3       4 UNK         0.1400 
     53 CB          1.2723   -9.0518  -42.0600 C.3       4 UNK        -0.1800 
     54 N           2.7344  -10.4960  -43.4521 N.am      4 UNK        -0.5000 
     55 C           4.0171  -10.1980  -43.1904 C.2       3 UNK         0.5000 
     56 O           4.4087   -9.7204  -42.1249 O.2       3 UNK        -0.5000 
     57 CA          5.0490  -10.5237  -44.2893 C.3       3 UNK         0.1400 
     58 CB          5.9793  -11.6566  -43.8236 C.3       3 UNK        -0.1800 
     59 N           4.4143  -10.9413  -45.5411 N.am      3 UNK        -0.5000 
     60 C           4.1942  -10.1476  -46.5980 C.2       2 UNK         0.5000 
     61 O           4.5524   -8.9710  -46.6585 O.2       2 UNK        -0.5000 
     62 CA          3.4287  -10.7692  -47.7849 C.3       2 UNK         0.1400 
     63 CB          4.4112  -11.3361  -48.8208 C.3       2 UNK        -0.1800 
     64 N           2.5000  -11.8277  -47.3800 N.am      2 UNK        -0.5000 
     65 C           1.3938  -11.6336  -46.6476 C.2       1 UNK         0.5000 
     66 O           1.0071  -10.5233  -46.2833 O.2       1 UNK        -0.5000 
     67 C          -0.2540  -21.4914  -47.9603 C.2       11 UNK         0.5000 
     68 O          -0.1688  -22.2610  -48.9166 O.2       11 UNK        -0.5000 
     69 N          -1.2945  -20.6702  -47.7570 N.am      12 UNK        -0.5000 
     70 CA         -2.4379  -20.5739  -48.6627 C.3       12 UNK         0.1400 
     71 CB         -3.3598  -19.4274  -48.2238 C.3       12 UNK        -0.1800 
     72 C          -3.2187  -21.8941  -48.7901 C.2       12 UNK         0.5000 
     73 O          -3.5877  -22.2707  -49.8993 O.2       12 UNK        -0.5000 
     74 N          -3.4268  -22.5922  -47.6645 N.am      13 UNK        -0.5000 
     75 CA         -4.0627  -23.9090  -47.6260 C.3       13 UNK         0.1400 
     76 CB         -4.3760  -24.2858  -46.1706 C.3       13 UNK        -0.1800 
     77 C          -3.2212  -25.0093  -48.2995 C.2       13 UNK         0.5000 
     78 O          -3.7927  -25.9075  -48.9163 O.2       13 UNK        -0.5000 
     79 N          -1.8899  -24.9311  -48.1679 N.am      14 UNK        -0.5000 
     80 CA         -0.9483  -25.8613  -48.7889 C.3       14 UNK         0.1400 
     81 CB          0.4246  -25.7368  -48.1105 C.3       14 UNK        -0.1800 
     82 C          -0.8284  -25.6532  -50.3090 C.2       14 UNK         0.5000 
     83 O          -0.8272  -26.6350  -51.0537 O.2       14 UNK        -0.5000 
     84 N          -0.7306  -24.3877  -50.7398 N.am      15 UNK        -0.5000 
     85 CA         -0.5897  -23.9588  -52.1317 C.3       15 UNK         0.1400 
     86 CB         -0.4592  -22.4286  -52.1743 C.3       15 UNK        -0.1800 
     87 C          -1.7538  -24.4533  -53.0109 C.2       15 UNK         0.5000 
     88 O          -2.8903  -24.0198  -52.8259 O.2       15 UNK        -0.5000 
     89 N          -1.4536  -25.4077  -53.9053 N.am      16 UNK        -0.5000 
     90 CA         -2.3897  -26.1307  -54.7807 C.3       16 UNK         0.1400 
     91 CB         -2.9674  -25.1850  -55.8526 C.3       16 UNK        -0.1800 
     92 C          -3.4951  -26.9081  -54.0273 C.2       16 UNK         0.5000 
     93 O          -4.5143  -27.2526  -54.6270 O.2       16 UNK        -0.5000 
     94 N          -3.2738  -27.1658  -52.7290 N.am      17 UNK        -0.5000 
     95 CA         -4.1791  -27.7990  -51.7669 C.3       17 UNK         0.1400 
     96 CB         -4.4126  -29.2791  -52.1364 C.3       17 UNK        -0.1800 
     97 C          -5.5032  -27.0358  -51.5229 C.2       17 UNK         0.5000 
     98 O          -6.4351  -27.6246  -50.9703 O.2       17 UNK        -0.5000 
     99 N          -5.5821  -25.7546  -51.9118 N.am      18 UNK        -0.5000 
    100 CA        -6.7624  -24.9124  -51.7483 C.3       18 UNK         0.1400 
    101 CB        -7.8654  -25.3166  -52.7473 C.3       18 UNK        -0.1800 
    102 C         -6.3805  -23.4441  -51.9554 C.2       18 UNK         0.5000 
    103 O         -5.8642  -23.0974  -53.0193 O.2       18 UNK        -0.5000 
    104 N         -6.7227  -22.5935  -50.9788 N.am      19 UNK        -0.5000 
    105 CA        -6.4842  -21.1448  -51.0017 C.3       19 UNK         0.1400 
    106 CB        -6.8062  -20.5674  -49.6145 C.3       19 UNK        -0.1800 
    107 C         -7.2748  -20.3979  -52.0938 C.2       19 UNK         0.5000 
    108 O         -6.8800  -19.3004  -52.4868 O.2       19 UNK        -0.5000 
    109 N         -8.3632  -21.0118  -52.5792 N.am      20 UNK        -0.5000 
    110 CA        -9.1450  -20.5469  -53.7250 C.3       20 UNK         0.1400 
    111 CB       -10.4554  -21.3461  -53.7907 C.3       20 UNK        -0.1800 
    112 C         -8.3785  -20.6565  -55.0591 C.2       20 UNK         0.5000 
    113 O         -8.6599  -19.8857  -55.9776 O.2       20 UNK        -0.5000 
    114 N         -7.4291  -21.5993  -55.1400 N.am      21 UNK        -0.5000 
    115 CA        -6.5206  -21.7677  -56.2693 C.3       21 UNK         0.1400 
    116 CB        -6.2880  -23.2674  -56.5240 C.3       21 UNK        -0.1800 
    117 C         -5.2042  -21.0286  -55.9866 C.2       21 UNK         0.5000 
    118 O         -4.8339  -20.1343  -56.7473 O.2       21 UNK        -0.5000 
    119 N         -4.5381  -21.4036  -54.8856 N.am      22 UNK        -0.5000 
    120 CA        -3.2683  -20.8401  -54.3952 C.3       22 UNK         0.1400 
    121 C         -2.0463  -21.0121  -55.3549 C.2       22 UNK         0.5000 
    122 N         -2.0903  -21.9102  -56.3302 N.am      22 UNK        -0.7600 
    123 O         -1.0311  -20.3377  -55.2140 O.2       22 UNK        -0.5000 
    124 C124       -3.4326  -19.3852  -53.8579 C.3       23 UNK        -0.0398 
    125 S125       -2.8379  -19.1956  -52.1418 S.3       23 UNK        -0.2404 
    126 C126       -1.1702  -18.5087  -52.3986 C.3       23 UNK        -0.0205 
    127 H127        3.0677  -16.0897  -44.2680 H         1 UNK         0.0600 
    128 H128        4.2722  -15.4199  -45.3723 H         1 UNK         0.0600 
    129 H129        2.8425  -16.2347  -46.0130 H         1 UNK         0.0600 
    130 H130        1.2508  -14.8174  -46.7338 H         1 UNK         0.3000 
    131 H131        0.2780  -12.6557  -45.1745 H         1 UNK         0.0600 
    132 H132       -1.1528  -12.1806  -47.2722 H         1 UNK         0.0800 
    133 H133       -1.3854  -13.6808  -46.4546 H         1 UNK         0.0800 
    134 H134       -2.1288  -15.6271  -48.3427 H         1 UNK         0.0800 
    135 H135       -0.8607  -15.9058  -47.1758 H         1 UNK         0.0800 
    136 H136       -2.0158  -16.6945  -50.5526 H         1 UNK         0.1150 
    137 H137        1.2134  -19.3987  -51.3743 H         1 UNK         0.1150 
    138 H138        1.3064  -16.9481  -47.8626 H         1 UNK         0.1150 
    139 H139        3.4166  -18.7156  -50.1299 H         1 UNK         0.0800 
    140 H140        3.2817  -18.0989  -48.5071 H         1 UNK         0.0800 
    141 H141        1.3152  -19.3741  -46.9949 H         1 UNK         0.0800 
    142 H142        2.5492  -20.3226  -46.2183 H         1 UNK         0.0800 
    143 H143        1.4250  -22.4265  -47.0373 H         1 UNK         0.0600 
    144 H144        0.4612  -20.7810  -44.9374 H         1 UNK         0.3000 
    145 H145       -1.7519  -23.2430  -43.5263 H         1 UNK         0.0600 
    146 H146       -0.3418  -22.6096  -41.5822 H         1 UNK         0.0600 
    147 H147        0.5598  -23.6384  -42.6843 H         1 UNK         0.0600 
    148 H148        0.8693  -21.9080  -42.6542 H         1 UNK         0.0600 
    149 H149       -1.1999  -20.5207  -42.8429 H         1 UNK         0.3000 
    150 H150       -3.8591  -19.0294  -44.6773 H         1 UNK         0.0600 
    151 H151       -4.9333  -20.0189  -42.6452 H         1 UNK         0.0600 
    152 H152       -4.5239  -18.3289  -42.3975 H         1 UNK         0.0600 
    153 H153       -3.5240  -19.5925  -41.6808 H         1 UNK         0.0600 
    154 H154       -1.9968  -17.9852  -42.7834 H         1 UNK         0.3000 
    155 H155        0.4129  -16.8944  -45.2100 H         1 UNK         0.0600 
    156 H156       -1.4792  -15.6472  -43.1384 H         1 UNK         0.0600 
    157 H157       -1.5734  -15.3405  -44.8635 H         1 UNK         0.0600 
    158 H158       -0.1517  -14.8443  -43.9566 H         1 UNK         0.0600 
    159 H159        0.6698  -16.6844  -42.4678 H         1 UNK         0.3000 
    160 H160        1.7149  -19.7605  -41.3471 H         1 UNK         0.0600 
    161 H161        3.8649  -17.8446  -42.4076 H         1 UNK         0.0600 
    162 H162        3.7561  -19.5609  -42.7794 H         1 UNK         0.0600 
    163 H163        4.0871  -19.0455  -41.1345 H         1 UNK         0.0600 
    164 H164        2.5042  -17.1498  -40.4926 H         1 UNK         0.3000 
    165 H165       -0.4715  -15.9511  -39.2028 H         1 UNK         0.0600 
    166 H166        0.5610  -16.0030  -36.9451 H         1 UNK         0.0600 
    167 H167       -0.0470  -17.5952  -37.3669 H         1 UNK         0.0600 
    168 H168        1.6796  -17.2681  -37.4564 H         1 UNK         0.0600 
    169 H169        2.2113  -15.1790  -38.6815 H         1 UNK         0.3000 
    170 H170        2.9682  -13.2276  -39.7055 H         1 UNK         0.0600 
    171 H171        4.2782  -15.2118  -40.4720 H         1 UNK         0.0600 
    172 H172        3.8085  -14.9043  -42.1402 H         1 UNK         0.0600 
    173 H173        4.8380  -13.7596  -41.2843 H         1 UNK         0.0600 
    174 H174        2.6904  -12.7966  -42.6027 H         1 UNK         0.3000 
    175 H175        0.7426  -10.8523  -43.0889 H         1 UNK         0.0600 
    176 H176        0.3435   -9.0279  -41.4891 H         1 UNK         0.0600 
    177 H177        2.0562   -8.6400  -41.4240 H         1 UNK         0.0600 
    178 H178        1.1453   -8.3841  -42.9121 H         1 UNK         0.0600 
    179 H179        2.5368  -10.8859  -44.3623 H         1 UNK         0.3000 
    180 H180        5.6534   -9.6287  -44.4502 H         1 UNK         0.0600 
    181 H181        5.4262  -12.5754  -43.6241 H         1 UNK         0.0600 
    182 H182        6.5030  -11.3836  -42.9066 H         1 UNK         0.0600 
    183 H183        6.7371  -11.8780  -44.5753 H         1 UNK         0.0600 
    184 H184        4.0641  -11.8905  -45.5617 H         1 UNK         0.3000 
    185 H185        2.8511   -9.9732  -48.2597 H         1 UNK         0.0600 
    186 H186        5.1030  -10.5661  -49.1649 H         1 UNK         0.0600 
    187 H187        5.0064  -12.1514  -48.4076 H         1 UNK         0.0600 
    188 H188        3.8853  -11.7141  -49.6977 H         1 UNK         0.0600 
    189 H189        2.7421  -12.7724  -47.6410 H         1 UNK         0.3000 
    190 H190       -1.2926  -20.0393  -46.9600 H         1 UNK         0.3000 
    191 H191       -2.0384  -20.3320  -49.6478 H         1 UNK         0.0600 
    192 H192       -2.8216  -18.4803  -48.1923 H         1 UNK         0.0600 
    193 H193       -4.1853  -19.3044  -48.9248 H         1 UNK         0.0600 
    194 H194       -3.7839  -19.6066  -47.2353 H         1 UNK         0.0600 
    195 H195       -3.1374  -22.1990  -46.7736 H         1 UNK         0.3000 
    196 H196       -5.0078  -23.8401  -48.1690 H         1 UNK         0.0600 
    197 H197       -4.8561  -25.2634  -46.1133 H         1 UNK         0.0600 
    198 H198       -5.0533  -23.5638  -45.7142 H         1 UNK         0.0600 
    199 H199       -3.4709  -24.3263  -45.5632 H         1 UNK         0.0600 
    200 H200       -1.4941  -24.1870  -47.6049 H         1 UNK         0.3000 
    201 H201       -1.3114  -26.8775  -48.6212 H         1 UNK         0.0600 
    202 H202        0.3597  -25.9666  -47.0469 H         1 UNK         0.0600 
    203 H203        0.8355  -24.7317  -48.2096 H         1 UNK         0.0600 
    204 H204        1.1422  -26.4305  -48.5502 H         1 UNK         0.0600 
    205 H205       -0.7235  -23.6422  -50.0471 H         1 UNK         0.3000 
    206 H206        0.3422  -24.3822  -52.5110 H         1 UNK         0.0600 
    207 H207        0.4056  -22.0886  -51.6045 H         1 UNK         0.0600 
    208 H208       -0.3283  -22.0767  -53.1966 H         1 UNK         0.0600 
    209 H209       -1.3418  -21.9386  -51.7610 H         1 UNK         0.0600 
    210 H210       -0.4968  -25.7305  -53.9472 H         1 UNK         0.3000 
    211 H211       -1.7984  -26.8881  -55.2968 H         1 UNK         0.0600 
    212 H212       -3.5744  -24.3971  -55.4074 H         1 UNK         0.0600 
    213 H213       -3.5977  -25.7233  -56.5613 H         1 UNK         0.0600 
    214 H214       -2.1687  -24.7177  -56.4274 H         1 UNK         0.0600 
    215 H215       -2.3960  -26.8455  -52.3317 H         1 UNK         0.3000 
    216 H216       -3.6480  -27.7850  -50.8148 H         1 UNK         0.0600 
    217 H217       -4.9423  -29.8034  -51.3404 H         1 UNK         0.0600 
    218 H218       -3.4682  -29.8008  -52.2915 H         1 UNK         0.0600 
    219 H219       -5.0067  -29.3810  -53.0448 H         1 UNK         0.0600 
    220 H220       -4.7754  -25.3005  -52.3286 H         1 UNK         0.3000 
    221 H221       -7.1407  -25.0373  -50.7314 H         1 UNK         0.0600 
    222 H222       -7.5062  -25.2762  -53.7767 H         1 UNK         0.0600 
    223 H223       -8.2264  -26.3277  -52.5608 H         1 UNK         0.0600 
    224 H224       -8.7259  -24.6505  -52.6731 H         1 UNK         0.0600 
    225 H225       -7.1623  -22.9566  -50.1460 H         1 UNK         0.3000 
    226 H226       -5.4258  -20.9788  -51.2110 H         1 UNK         0.0600 
    227 H227       -6.1948  -21.0319  -48.8408 H         1 UNK         0.0600 
    228 H228       -6.6098  -19.4950  -49.5828 H         1 UNK         0.0600 
    229 H229       -7.8537  -20.7167  -49.3500 H         1 UNK         0.0600 
    230 H230       -8.6279  -21.8988  -52.1783 H         1 UNK         0.3000 
    231 H231       -9.3906  -19.4945  -53.5680 H         1 UNK         0.0600 
    232 H232      -11.0389  -21.2236  -52.8780 H         1 UNK         0.0600 
    233 H233      -10.2707  -22.4118  -53.9322 H         1 UNK         0.0600 
    234 H234      -11.0776  -21.0079  -54.6204 H         1 UNK         0.0600 
    235 H235       -7.2160  -22.1481  -54.3160 H         1 UNK         0.3000 
    236 H236       -6.9581  -21.3427  -57.1753 H         1 UNK         0.0600 
    237 H237       -5.5648  -23.4214  -57.3257 H         1 UNK         0.0600 
    238 H238       -5.9151  -23.7833  -55.6390 H         1 UNK         0.0600 
    239 H239       -7.2138  -23.7586  -56.8236 H         1 UNK         0.0600 
    240 H240       -4.9346  -22.1341  -54.2968 H         1 UNK         0.3000 
    241 H241       -3.0254  -21.4822  -53.5496 H         1 UNK         0.0600 
    242 H242       -2.9155  -22.4667  -56.4747 H         1 UNK         0.3800 
    243 H243       -1.2977  -22.0102  -56.9441 H         1 UNK         0.3800 
    244 H244       -2.9572  -18.6483  -54.5073 H         1 UNK         0.0800 
    245 H245       -4.4856  -19.1017  -53.8426 H         1 UNK         0.0800 
    246 H246       -0.5639  -19.2446  -52.9265 H         1 UNK         0.0800 
    247 H247       -1.2328  -17.6320  -53.0444 H         1 UNK         0.0800 
@<TRIPOS>BOND
     1    1    2 1    
     2    1  127 1    
     3    1  128 1    
     4    1  129 1    
     5    2    3 2    
     6    2    4 am   BACKBONE|DICT|INTERRES
     7    4    5 1    
     8    4  130 1    
     9    5    6 1    
    10    5   65 1    
    11    5  131 1    
    12    6    7 1    
    13    6  132 1    
    14    6  133 1    
    15    7    8 1    
    16    8    9 1    
    17    8  134 1    
    18    8  135 1    
    19    9   10 ar   
    20    9   14 ar   
    21   10   11 ar   
    22   10  136 1    
    23   11   12 ar   
    24   11  126 1    
    25   12   13 ar   
    26   12  137 1    
    27   13   14 ar   
    28   13   15 1    
    29   14  138 1    
    30   15   16 1    
    31   15  139 1    
    32   15  140 1    
    33   16   17 1    
    34   17   18 1    
    35   17  141 1    
    36   17  142 1    
    37   18   19 1    
    38   18   67 1    
    39   18  143 1    
    40   19   20 am   BACKBONE|DICT|INTERRES
    41   19  144 1    
    42   20   21 2    
    43   20   22 1    
    44   22   23 1    
    45   22   24 1    
    46   22  145 1    
    47   23  146 1    
    48   23  147 1    
    49   23  148 1    
    50   24   25 am   BACKBONE|DICT|INTERRES
    51   24  149 1    
    52   25   26 2    
    53   25   27 1    
    54   27   28 1    
    55   27   29 1    
    56   27  150 1    
    57   28  151 1    
    58   28  152 1    
    59   28  153 1    
    60   29   30 am   BACKBONE|DICT|INTERRES
    61   29  154 1    
    62   30   31 2    
    63   30   32 1    
    64   32   33 1    
    65   32   34 1    
    66   32  155 1    
    67   33  156 1    
    68   33  157 1    
    69   33  158 1    
    70   34   35 am   BACKBONE|DICT|INTERRES
    71   34  159 1    
    72   35   36 2    
    73   35   37 1    
    74   37   38 1    
    75   37   39 1    
    76   37  160 1    
    77   38  161 1    
    78   38  162 1    
    79   38  163 1    
    80   39   40 am   BACKBONE|DICT|INTERRES
    81   39  164 1    
    82   40   41 2    
    83   40   42 1    
    84   42   43 1    
    85   42   44 1    
    86   42  165 1    
    87   43  166 1    
    88   43  167 1    
    89   43  168 1    
    90   44   45 am   BACKBONE|DICT|INTERRES
    91   44  169 1    
    92   45   46 2    
    93   45   47 1    
    94   47   48 1    
    95   47   49 1    
    96   47  170 1    
    97   48  171 1    
    98   48  172 1    
    99   48  173 1    
   100   49   50 am   BACKBONE|DICT|INTERRES
   101   49  174 1    
   102   50   51 2    
   103   50   52 1    
   104   52   53 1    
   105   52   54 1    
   106   52  175 1    
   107   53  176 1    
   108   53  177 1    
   109   53  178 1    
   110   54   55 am   BACKBONE|DICT|INTERRES
   111   54  179 1    
   112   55   56 2    
   113   55   57 1    
   114   57   58 1    
   115   57   59 1    
   116   57  180 1    
   117   58  181 1    
   118   58  182 1    
   119   58  183 1    
   120   59   60 am   BACKBONE|DICT|INTERRES
   121   59  184 1    
   122   60   61 2    
   123   60   62 1    
   124   62   63 1    
   125   62   64 1    
   126   62  185 1    
   127   63  186 1    
   128   63  187 1    
   129   63  188 1    
   130   64   65 am   BACKBONE|DICT|INTERRES
   131   64  189 1    
   132   65   66 2    
   133   67   68 2    
   134   67   69 am   BACKBONE|DICT|INTERRES
   135   69   70 1    
   136   69  190 1    
   137   70   71 1    
   138   70   72 1    
   139   70  191 1    
   140   71  192 1    
   141   71  193 1    
   142   71  194 1    
   143   72   73 2    
   144   72   74 am   BACKBONE|DICT|INTERRES
   145   74   75 1    
   146   74  195 1    
   147   75   76 1    
   148   75   77 1    
   149   75  196 1    
   150   76  197 1    
   151   76  198 1    
   152   76  199 1    
   153   77   78 2    
   154   77   79 am   BACKBONE|DICT|INTERRES
   155   79   80 1    
   156   79  200 1    
   157   80   81 1    
   158   80   82 1    
   159   80  201 1    
   160   81  202 1    
   161   81  203 1    
   162   81  204 1    
   163   82   83 2    
   164   82   84 am   BACKBONE|DICT|INTERRES
   165   84   85 1    
   166   84  205 1    
   167   85   86 1    
   168   85   87 1    
   169   85  206 1    
   170   86  207 1    
   171   86  208 1    
   172   86  209 1    
   173   87   88 2    
   174   87   89 am   BACKBONE|DICT|INTERRES
   175   89   90 1    
   176   89  210 1    
   177   90   91 1    
   178   90   92 1    
   179   90  211 1    
   180   91  212 1    
   181   91  213 1    
   182   91  214 1    
   183   92   93 2    
   184   92   94 am   BACKBONE|DICT|INTERRES
   185   94   95 1    
   186   94  215 1    
   187   95   96 1    
   188   95   97 1    
   189   95  216 1    
   190   96  217 1    
   191   96  218 1    
   192   96  219 1    
   193   97   98 2    
   194   97   99 am   BACKBONE|DICT|INTERRES
   195   99  100 1    
   196   99  220 1    
   197  100  101 1    
   198  100  102 1    
   199  100  221 1    
   200  101  222 1    
   201  101  223 1    
   202  101  224 1    
   203  102  103 2    
   204  102  104 am   BACKBONE|DICT|INTERRES
   205  104  105 1    
   206  104  225 1    
   207  105  106 1    
   208  105  107 1    
   209  105  226 1    
   210  106  227 1    
   211  106  228 1    
   212  106  229 1    
   213  107  108 2    
   214  107  109 am   BACKBONE|DICT|INTERRES
   215  109  110 1    
   216  109  230 1    
   217  110  111 1    
   218  110  112 1    
   219  110  231 1    
   220  111  232 1    
   221  111  233 1    
   222  111  234 1    
   223  112  113 2    
   224  112  114 am   BACKBONE|DICT|INTERRES
   225  114  115 1    
   226  114  235 1    
   227  115  116 1    
   228  115  117 1    
   229  115  236 1    
   230  116  237 1    
   231  116  238 1    
   232  116  239 1    
   233  117  118 2    
   234  117  119 am   BACKBONE|DICT|INTERRES
   235  119  120 1    
   236  119  240 1    
   237  120  121 1    
   238  120  124 1    
   239  120  241 1    
   240  121  122 am   BACKBONE|DICT|INTERRES
   241  121  123 2    
   242  122  242 1    
   243  122  243 1    
   244  124  125 1    
   245  124  244 1    
   246  124  245 1    
   247  125  126 1    
   248  126  246 1    
   249  126  247 1    
@<TRIPOS>SUBSTRUCTURE
     1 UNK         1 GROUP             0       ****    0 ROOT    
