@<TRIPOS>MOLECULE
3R540
247   249    1
SMALL
USER_CHARGES


@<TRIPOS>ATOM
      1 CA          6.9864  -13.6865  -48.4273 C.3       0 UNK        -0.1800 
      2 C           5.7122  -14.0287  -47.6689 C.2       0 UNK         0.5000 
      3 O           5.7345  -14.1265  -46.4411 O.2       0 UNK        -0.5000 
      4 N           4.5989  -14.2082  -48.3898 N.am      1 UNK        -0.5000 
      5 CA          3.2729  -14.5150  -47.8474 C.3       1 UNK         0.1400 
      6 C6          2.3947  -15.2965  -48.8609 C.3       23 UNK        -0.0398 
      7 S7          2.1837  -14.5265  -50.5083 S.3       23 UNK        -0.2404 
      8 C8          0.3653  -14.4296  -50.6386 C.3       23 UNK        -0.0205 
      9 C9         -0.2518  -15.7456  -51.0989 C.ar      23 UNK        -0.0193 
     10 C10        -0.5729  -15.9394  -52.4481 C.ar      23 UNK        -0.1150 
     11 C11        -1.1476  -17.1412  -52.8751 C.ar      23 UNK        -0.0193 
     12 C12        -1.3914  -18.1558  -51.9485 C.ar      23 UNK        -0.1150 
     13 C13        -1.0569  -17.9828  -50.6057 C.ar      23 UNK        -0.0193 
     14 C14        -0.5092  -16.7701  -50.1812 C.ar      23 UNK        -0.1150 
     15 C15        -1.2431  -19.1268  -49.6286 C.3       23 UNK        -0.0205 
     16 S16        -2.8461  -19.0286  -48.7752 S.3       23 UNK        -0.2404 
     17 C17        -2.9829  -20.5646  -47.7806 C.3       23 UNK        -0.0398 
     18 CA         -1.7991  -21.5656  -47.8195 C.3       11 UNK         0.1400 
     19 N          -0.5932  -21.0612  -47.1606 N.am      11 UNK        -0.5000 
     20 C           0.6084  -21.6513  -47.2237 C.2       10 UNK         0.5000 
     21 O           0.8273  -22.6892  -47.8460 O.2       10 UNK        -0.5000 
     22 CA          1.7498  -20.9991  -46.4273 C.3       10 UNK         0.1400 
     23 CB          2.3041  -19.7750  -47.1730 C.3       10 UNK        -0.1800 
     24 N           1.3476  -20.6226  -45.0722 N.am      10 UNK        -0.5000 
     25 C           0.9398  -21.4886  -44.1323 C.2       9 UNK         0.5000 
     26 O           0.8829  -22.7072  -44.3006 O.2       9 UNK        -0.5000 
     27 CA          0.4748  -20.8903  -42.7925 C.3       9 UNK         0.1400 
     28 CB          1.6749  -20.4679  -41.9316 C.3       9 UNK        -0.1800 
     29 N          -0.4242  -19.7511  -42.9675 N.am      9 UNK        -0.5000 
     30 C          -1.6210  -19.8062  -43.5687 C.2       8 UNK         0.5000 
     31 O          -2.1244  -20.8372  -44.0154 O.2       8 UNK        -0.5000 
     32 CA         -2.3494  -18.4656  -43.7617 C.3       8 UNK         0.1400 
     33 CB         -3.0203  -18.0040  -42.4589 C.3       8 UNK        -0.1800 
     34 N          -1.4595  -17.4167  -44.2611 N.am      8 UNK        -0.5000 
     35 C          -0.8252  -17.4679  -45.4404 C.2       7 UNK         0.5000 
     36 O          -0.9091  -18.4098  -46.2239 O.2       7 UNK        -0.5000 
     37 CA          0.0936  -16.2885  -45.7850 C.3       7 UNK         0.1400 
     38 CB         -0.7414  -15.0756  -46.2219 C.3       7 UNK        -0.1800 
     39 N           0.9790  -15.9195  -44.6816 N.am      7 UNK        -0.5000 
     40 C           1.8993  -16.7316  -44.1421 C.2       6 UNK         0.5000 
     41 O           2.1424  -17.8639  -44.5573 O.2       6 UNK        -0.5000 
     42 CA          2.6314  -16.2163  -42.8916 C.3       6 UNK         0.1400 
     43 CB          3.7695  -15.2590  -43.2742 C.3       6 UNK        -0.1800 
     44 N           1.7387  -15.5678  -41.9281 N.am      6 UNK        -0.5000 
     45 C           0.6973  -16.1547  -41.3233 C.2       5 UNK         0.5000 
     46 O           0.3537  -17.3152  -41.5520 O.2       5 UNK        -0.5000 
     47 CA         -0.1250  -15.3331  -40.3086 C.3       5 UNK         0.1400 
     48 CB          0.1633  -15.7982  -38.8686 C.3       5 UNK        -0.1800 
     49 N          -0.0221  -13.8706  -40.4191 N.am      5 UNK        -0.5000 
     50 C           1.0228  -13.0658  -40.1855 C.2       4 UNK         0.5000 
     51 O           2.1522  -13.4733  -39.9115 O.2       4 UNK        -0.5000 
     52 CA          0.7535  -11.5516  -40.3277 C.3       4 UNK         0.1400 
     53 CB          1.9500  -10.6930  -39.8795 C.3       4 UNK        -0.1800 
     54 N           0.4128  -11.1902  -41.7032 N.am      4 UNK        -0.5000 
     55 C          -0.7492  -11.4364  -42.3235 C.2       3 UNK         0.5000 
     56 O          -1.7194  -11.9534  -41.7670 O.2       3 UNK        -0.5000 
     57 CA         -0.8383  -11.0683  -43.8190 C.3       3 UNK         0.1400 
     58 CB         -1.6139   -9.7551  -44.0030 C.3       3 UNK        -0.1800 
     59 N           0.4639  -10.9498  -44.4850 N.am      3 UNK        -0.5000 
     60 C           1.3164  -11.9639  -44.6792 C.2       2 UNK         0.5000 
     61 O           1.1120  -13.1125  -44.2788 O.2       2 UNK        -0.5000 
     62 CA          2.6386  -11.6166  -45.3887 C.3       2 UNK         0.1400 
     63 CB          3.6953  -11.1832  -44.3607 C.3       2 UNK        -0.1800 
     64 N           3.1625  -12.7444  -46.1576 N.am      2 UNK        -0.5000 
     65 C           2.5995  -13.2516  -47.2608 C.2       1 UNK         0.5000 
     66 O           1.6178  -12.7482  -47.8083 O.2       1 UNK        -0.5000 
     67 C          -2.2179  -22.9296  -47.2463 C.2       11 UNK         0.5000 
     68 O          -2.4912  -23.8414  -48.0289 O.2       11 UNK        -0.5000 
     69 N          -2.2260  -23.0620  -45.9115 N.am      12 UNK        -0.5000 
     70 CA         -2.5370  -24.3041  -45.1999 C.3       12 UNK         0.1400 
     71 CB         -2.5789  -24.0388  -43.6880 C.3       12 UNK        -0.1800 
     72 C          -1.5612  -25.4489  -45.5245 C.2       12 UNK         0.5000 
     73 O          -2.0000  -26.5876  -45.6884 O.2       12 UNK        -0.5000 
     74 N          -0.2668  -25.1222  -45.6403 N.am      13 UNK        -0.5000 
     75 CA          0.7809  -26.0524  -46.0575 C.3       13 UNK         0.1400 
     76 CB          2.1578  -25.4309  -45.7777 C.3       13 UNK        -0.1800 
     77 C           0.6579  -26.4613  -47.5376 C.2       13 UNK         0.5000 
     78 O           0.8888  -27.6271  -47.8614 O.2       13 UNK        -0.5000 
     79 N           0.3067  -25.5009  -48.4043 N.am      14 UNK        -0.5000 
     80 CA          0.1701  -25.6924  -49.8461 C.3       14 UNK         0.1400 
     81 CB          0.1002  -24.3282  -50.5516 C.3       14 UNK        -0.1800 
     82 C          -1.0333  -26.5683  -50.2328 C.2       14 UNK         0.5000 
     83 O          -0.8528  -27.5376  -50.9721 O.2       14 UNK        -0.5000 
     84 N          -2.2328  -26.2103  -49.7520 N.am      15 UNK        -0.5000 
     85 CA         -3.4860  -26.8648  -50.1500 C.3       15 UNK         0.1400 
     86 CB         -3.8486  -26.4601  -51.5961 C.3       15 UNK        -0.1800 
     87 C          -4.6831  -26.5756  -49.2271 C.2       15 UNK         0.5000 
     88 O          -5.6721  -27.3052  -49.3042 O.2       15 UNK        -0.5000 
     89 N          -4.6153  -25.5023  -48.4241 N.am      16 UNK        -0.5000 
     90 CA         -5.7119  -24.9035  -47.6484 C.3       16 UNK         0.1400 
     91 CB         -6.2366  -25.8695  -46.5659 C.3       16 UNK        -0.1800 
     92 C          -6.8296  -24.3203  -48.5441 C.2       16 UNK         0.5000 
     93 O          -7.9785  -24.2131  -48.1136 O.2       16 UNK        -0.5000 
     94 N          -6.4605  -23.9428  -49.7761 N.am      17 UNK        -0.5000 
     95 CA         -7.3526  -23.4420  -50.8240 C.3       17 UNK         0.1400 
     96 CB         -6.9115  -24.0670  -52.1591 C.3       17 UNK        -0.1800 
     97 C          -7.3630  -21.9026  -50.9184 C.2       17 UNK         0.5000 
     98 O          -8.0180  -21.3601  -51.8091 O.2       17 UNK        -0.5000 
     99 N          -6.6262  -21.2246  -50.0255 N.am      18 UNK        -0.5000 
    100 CA        -6.3839  -19.7783  -50.0056 C.3       18 UNK         0.1400 
    101 CB        -7.6830  -19.0026  -49.6888 C.3       18 UNK        -0.1800 
    102 C         -5.6622  -19.3222  -51.2926 C.2       18 UNK         0.5000 
    103 O         -4.7061  -19.9793  -51.7067 O.2       18 UNK        -0.5000 
    104 N         -6.1329  -18.2393  -51.9258 N.am      19 UNK        -0.5000 
    105 CA        -5.5674  -17.6677  -53.1528 C.3       19 UNK         0.1400 
    106 CB        -6.3063  -16.3621  -53.4817 C.3       19 UNK        -0.1800 
    107 C         -5.5800  -18.6169  -54.3703 C.2       19 UNK         0.5000 
    108 O         -4.7860  -18.4249  -55.2917 O.2       19 UNK        -0.5000 
    109 N         -6.4450  -19.6415  -54.3507 N.am      20 UNK        -0.5000 
    110 CA        -6.4946  -20.6906  -55.3694 C.3       20 UNK         0.1400 
    111 CB        -7.8343  -21.4348  -55.2776 C.3       20 UNK        -0.1800 
    112 C         -5.3068  -21.6728  -55.2973 C.2       20 UNK         0.5000 
    113 O         -5.0738  -22.3895  -56.2716 O.2       20 UNK        -0.5000 
    114 N         -4.5454  -21.6759  -54.1888 N.am      21 UNK        -0.5000 
    115 CA        -3.3408  -22.4967  -54.0130 C.3       21 UNK         0.1400 
    116 CB        -2.8627  -22.4134  -52.5544 C.3       21 UNK        -0.1800 
    117 C         -2.1968  -22.1365  -54.9864 C.2       21 UNK         0.5000 
    118 O         -1.3418  -22.9844  -55.2445 O.2       21 UNK        -0.5000 
    119 N         -2.2185  -20.9130  -55.5350 N.am      22 UNK        -0.5000 
    120 CA        -1.3477  -20.4774  -56.6408 C.3       22 UNK         0.1400 
    121 C         -1.8073  -20.9771  -58.0452 C.2       22 UNK         0.5000 
    122 N         -2.9440  -21.6489  -58.1936 N.am      22 UNK        -0.7600 
    123 O         -1.1058  -20.7613  -59.0298 O.2       22 UNK        -0.5000 
    124 C124       -1.1283  -18.9410  -56.6416 C.3       23 UNK        -0.0398 
    125 S125       -0.2287  -18.3678  -55.1612 S.3       23 UNK        -0.2404 
    126 C126       -1.5011  -17.3689  -54.3335 C.3       23 UNK        -0.0205 
    127 H127        7.7494  -14.4415  -48.2381 H         1 UNK         0.0600 
    128 H128        6.8167  -13.6362  -49.5032 H         1 UNK         0.0600 
    129 H129        7.3709  -12.7213  -48.0978 H         1 UNK         0.0600 
    130 H130        4.6309  -14.0882  -49.3929 H         1 UNK         0.3000 
    131 H131        3.4105  -15.1909  -46.9996 H         1 UNK         0.0600 
    132 H132        2.8225  -16.2875  -49.0182 H         1 UNK         0.0800 
    133 H133        1.4178  -15.4695  -48.4186 H         1 UNK         0.0800 
    134 H134       -0.0648  -14.1222  -49.6840 H         1 UNK         0.0800 
    135 H135        0.1136  -13.6377  -51.3455 H         1 UNK         0.0800 
    136 H136       -0.3741  -15.1560  -53.1660 H         1 UNK         0.1150 
    137 H137       -1.8241  -19.0898  -52.2790 H         1 UNK         0.1150 
    138 H138       -0.2763  -16.6401  -49.1357 H         1 UNK         0.1150 
    139 H139       -1.1621  -20.0677  -50.1723 H         1 UNK         0.0800 
    140 H140       -0.4328  -19.1050  -48.9006 H         1 UNK         0.0800 
    141 H141       -3.8936  -21.0569  -48.1255 H         1 UNK         0.0800 
    142 H142       -3.1821  -20.2695  -46.7488 H         1 UNK         0.0800 
    143 H143       -1.5510  -21.7622  -48.8624 H         1 UNK         0.0600 
    144 H144       -0.6871  -20.1790  -46.6598 H         1 UNK         0.3000 
    145 H145        2.5527  -21.7341  -46.3412 H         1 UNK         0.0600 
    146 H146        3.1840  -19.3740  -46.6699 H         1 UNK         0.0600 
    147 H147        2.6021  -20.0370  -48.1890 H         1 UNK         0.0600 
    148 H148        1.5671  -18.9751  -47.2429 H         1 UNK         0.0600 
    149 H149        1.3953  -19.6331  -44.8458 H         1 UNK         0.3000 
    150 H150       -0.0738  -21.6664  -42.2549 H         1 UNK         0.0600 
    151 H151        2.3547  -21.3054  -41.7704 H         1 UNK         0.0600 
    152 H152        1.3514  -20.1164  -40.9516 H         1 UNK         0.0600 
    153 H153        2.2452  -19.6655  -42.4006 H         1 UNK         0.0600 
    154 H154       -0.0983  -18.8550  -42.6144 H         1 UNK         0.3000 
    155 H155       -3.1309  -18.6191  -44.5090 H         1 UNK         0.0600 
    156 H156       -2.2922  -17.8201  -41.6687 H         1 UNK         0.0600 
    157 H157       -3.7159  -18.7598  -42.0922 H         1 UNK         0.0600 
    158 H158       -3.5890  -17.0866  -42.6115 H         1 UNK         0.0600 
    159 H159       -1.2887  -16.6309  -43.6525 H         1 UNK         0.3000 
    160 H160        0.7205  -16.6033  -46.6191 H         1 UNK         0.0600 
    161 H161       -0.1092  -14.2576  -46.5590 H         1 UNK         0.0600 
    162 H162       -1.3610  -14.6975  -45.4079 H         1 UNK         0.0600 
    163 H163       -1.4038  -15.3336  -47.0494 H         1 UNK         0.0600 
    164 H164        0.8925  -14.9722  -44.3193 H         1 UNK         0.3000 
    165 H165        3.0729  -17.0818  -42.3934 H         1 UNK         0.0600 
    166 H166        4.3499  -14.9665  -42.3992 H         1 UNK         0.0600 
    167 H167        4.4567  -15.7287  -43.9794 H         1 UNK         0.0600 
    168 H168        3.3915  -14.3520  -43.7423 H         1 UNK         0.0600 
    169 H169        1.9758  -14.6266  -41.6414 H         1 UNK         0.3000 
    170 H170       -1.1702  -15.5635  -40.5201 H         1 UNK         0.0600 
    171 H171       -0.0285  -16.8664  -38.7587 H         1 UNK         0.0600 
    172 H172        1.2017  -15.6248  -38.5850 H         1 UNK         0.0600 
    173 H173       -0.4728  -15.2797  -38.1513 H         1 UNK         0.0600 
    174 H174       -0.8710  -13.4066  -40.7302 H         1 UNK         0.3000 
    175 H175       -0.0920  -11.3082  -39.6809 H         1 UNK         0.0600 
    176 H176        2.8287  -10.8679  -40.5018 H         1 UNK         0.0600 
    177 H177        1.7119   -9.6302  -39.9271 H         1 UNK         0.0600 
    178 H178        2.2269  -10.9161  -38.8483 H         1 UNK         0.0600 
    179 H179        1.1551  -10.7835  -42.2518 H         1 UNK         0.3000 
    180 H180       -1.3949  -11.8667  -44.3145 H         1 UNK         0.0600 
    181 H181       -1.0929   -8.9128  -43.5460 H         1 UNK         0.0600 
    182 H182       -2.6024   -9.8169  -43.5456 H         1 UNK         0.0600 
    183 H183       -1.7608   -9.5277  -45.0590 H         1 UNK         0.0600 
    184 H184        0.7071  -10.0320  -44.8294 H         1 UNK         0.3000 
    185 H185        2.4606  -10.7893  -46.0788 H         1 UNK         0.0600 
    186 H186        3.9045  -11.9721  -43.6374 H         1 UNK         0.0600 
    187 H187        4.6341  -10.9193  -44.8481 H         1 UNK         0.0600 
    188 H188        3.3640  -10.3069  -43.8023 H         1 UNK         0.0600 
    189 H189        4.0014  -13.1922  -45.8062 H         1 UNK         0.3000 
    190 H190       -2.0037  -22.2572  -45.3308 H         1 UNK         0.3000 
    191 H191       -3.5319  -24.6247  -45.5117 H         1 UNK         0.0600 
    192 H192       -1.6233  -23.6643  -43.3191 H         1 UNK         0.0600 
    193 H193       -2.8116  -24.9503  -43.1360 H         1 UNK         0.0600 
    194 H194       -3.3445  -23.3040  -43.4388 H         1 UNK         0.0600 
    195 H195        0.0222  -24.1713  -45.4336 H         1 UNK         0.3000 
    196 H196        0.6906  -26.9577  -45.4536 H         1 UNK         0.0600 
    197 H197        2.2999  -24.5007  -46.3289 H         1 UNK         0.0600 
    198 H198        2.9602  -26.1108  -46.0664 H         1 UNK         0.0600 
    199 H199        2.2823  -25.2119  -44.7171 H         1 UNK         0.0600 
    200 H200        0.2009  -24.5504  -48.0633 H         1 UNK         0.3000 
    201 H201        1.0711  -26.1984  -50.1996 H         1 UNK         0.0600 
    202 H202        1.0086  -23.7506  -50.3811 H         1 UNK         0.0600 
    203 H203       -0.7438  -23.7334  -50.2023 H         1 UNK         0.0600 
    204 H204       -0.0066  -24.4508  -51.6301 H         1 UNK         0.0600 
    205 H205       -2.2859  -25.4168  -49.1214 H         1 UNK         0.3000 
    206 H206       -3.3336  -27.9457  -50.1177 H         1 UNK         0.0600 
    207 H207       -3.1025  -26.8050  -52.3115 H         1 UNK         0.0600 
    208 H208       -4.8019  -26.8929  -51.9025 H         1 UNK         0.0600 
    209 H209       -3.9318  -25.3777  -51.6988 H         1 UNK         0.0600 
    210 H210       -3.7545  -24.9603  -48.3959 H         1 UNK         0.3000 
    211 H211       -5.2775  -24.0470  -47.1318 H         1 UNK         0.0600 
    212 H212       -6.7917  -26.7027  -46.9971 H         1 UNK         0.0600 
    213 H213       -6.9080  -25.3551  -45.8776 H         1 UNK         0.0600 
    214 H214       -5.4191  -26.2815  -45.9742 H         1 UNK         0.0600 
    215 H215       -5.4931  -24.0636  -50.0356 H         1 UNK         0.3000 
    216 H216       -8.3767  -23.7620  -50.6219 H         1 UNK         0.0600 
    217 H217       -7.6146  -23.8264  -52.9562 H         1 UNK         0.0600 
    218 H218       -6.8688  -25.1542  -52.0904 H         1 UNK         0.0600 
    219 H219       -5.9280  -23.7116  -52.4678 H         1 UNK         0.0600 
    220 H220       -6.1087  -21.7663  -49.3510 H         1 UNK         0.3000 
    221 H221       -5.6914  -19.5947  -49.1852 H         1 UNK         0.0600 
    222 H222       -8.4186  -19.0796  -50.4900 H         1 UNK         0.0600 
    223 H223       -8.1483  -19.3819  -48.7790 H         1 UNK         0.0600 
    224 H224       -7.4798  -17.9441  -49.5223 H         1 UNK         0.0600 
    225 H225       -6.9366  -17.7670  -51.5384 H         1 UNK         0.3000 
    226 H226       -4.5228  -17.4250  -52.9469 H         1 UNK         0.0600 
    227 H227       -6.2201  -15.6432  -52.6668 H         1 UNK         0.0600 
    228 H228       -5.8899  -15.8908  -54.3731 H         1 UNK         0.0600 
    229 H229       -7.3668  -16.5366  -53.6673 H         1 UNK         0.0600 
    230 H230       -7.0483  -19.7582  -53.5475 H         1 UNK         0.3000 
    231 H231       -6.4514  -20.2115  -56.3499 H         1 UNK         0.0600 
    232 H232       -8.6755  -20.7486  -55.3765 H         1 UNK         0.0600 
    233 H233       -7.9400  -21.9604  -54.3308 H         1 UNK         0.0600 
    234 H234       -7.9245  -22.1756  -56.0731 H         1 UNK         0.0600 
    235 H235       -4.7720  -21.0453  -53.4258 H         1 UNK         0.3000 
    236 H236       -3.6207  -23.5330  -54.2132 H         1 UNK         0.0600 
    237 H237       -2.0337  -23.0992  -52.3789 H         1 UNK         0.0600 
    238 H238       -2.5164  -21.4114  -52.3012 H         1 UNK         0.0600 
    239 H239       -3.6572  -22.6794  -51.8573 H         1 UNK         0.0600 
    240 H240       -2.9623  -20.2805  -55.2768 H         1 UNK         0.3000 
    241 H241       -0.3683  -20.9353  -56.4889 H         1 UNK         0.0600 
    242 H242       -3.2071  -21.9630  -59.1142 H         1 UNK         0.3800 
    243 H243       -3.5478  -21.8644  -57.4076 H         1 UNK         0.3800 
    244 H244       -0.5339  -18.6368  -57.5049 H         1 UNK         0.0800 
    245 H245       -2.0818  -18.4181  -56.7347 H         1 UNK         0.0800 
    246 H246       -1.6264  -16.4211  -54.8590 H         1 UNK         0.0800 
    247 H247       -2.4575  -17.8861  -54.3859 H         1 UNK         0.0800 
@<TRIPOS>BOND
     1    1    2 1    
     2    1  127 1    
     3    1  128 1    
     4    1  129 1    
     5    2    3 2    
     6    2    4 am   BACKBONE|DICT|INTERRES
     7    4    5 1    
     8    4  130 1    
     9    5    6 1    
    10    5   65 1    
    11    5  131 1    
    12    6    7 1    
    13    6  132 1    
    14    6  133 1    
    15    7    8 1    
    16    8    9 1    
    17    8  134 1    
    18    8  135 1    
    19    9   10 ar   
    20    9   14 ar   
    21   10   11 ar   
    22   10  136 1    
    23   11   12 ar   
    24   11  126 1    
    25   12   13 ar   
    26   12  137 1    
    27   13   14 ar   
    28   13   15 1    
    29   14  138 1    
    30   15   16 1    
    31   15  139 1    
    32   15  140 1    
    33   16   17 1    
    34   17   18 1    
    35   17  141 1    
    36   17  142 1    
    37   18   19 1    
    38   18   67 1    
    39   18  143 1    
    40   19   20 am   BACKBONE|DICT|INTERRES
    41   19  144 1    
    42   20   21 2    
    43   20   22 1    
    44   22   23 1    
    45   22   24 1    
    46   22  145 1    
    47   23  146 1    
    48   23  147 1    
    49   23  148 1    
    50   24   25 am   BACKBONE|DICT|INTERRES
    51   24  149 1    
    52   25   26 2    
    53   25   27 1    
    54   27   28 1    
    55   27   29 1    
    56   27  150 1    
    57   28  151 1    
    58   28  152 1    
    59   28  153 1    
    60   29   30 am   BACKBONE|DICT|INTERRES
    61   29  154 1    
    62   30   31 2    
    63   30   32 1    
    64   32   33 1    
    65   32   34 1    
    66   32  155 1    
    67   33  156 1    
    68   33  157 1    
    69   33  158 1    
    70   34   35 am   BACKBONE|DICT|INTERRES
    71   34  159 1    
    72   35   36 2    
    73   35   37 1    
    74   37   38 1    
    75   37   39 1    
    76   37  160 1    
    77   38  161 1    
    78   38  162 1    
    79   38  163 1    
    80   39   40 am   BACKBONE|DICT|INTERRES
    81   39  164 1    
    82   40   41 2    
    83   40   42 1    
    84   42   43 1    
    85   42   44 1    
    86   42  165 1    
    87   43  166 1    
    88   43  167 1    
    89   43  168 1    
    90   44   45 am   BACKBONE|DICT|INTERRES
    91   44  169 1    
    92   45   46 2    
    93   45   47 1    
    94   47   48 1    
    95   47   49 1    
    96   47  170 1    
    97   48  171 1    
    98   48  172 1    
    99   48  173 1    
   100   49   50 am   BACKBONE|DICT|INTERRES
   101   49  174 1    
   102   50   51 2    
   103   50   52 1    
   104   52   53 1    
   105   52   54 1    
   106   52  175 1    
   107   53  176 1    
   108   53  177 1    
   109   53  178 1    
   110   54   55 am   BACKBONE|DICT|INTERRES
   111   54  179 1    
   112   55   56 2    
   113   55   57 1    
   114   57   58 1    
   115   57   59 1    
   116   57  180 1    
   117   58  181 1    
   118   58  182 1    
   119   58  183 1    
   120   59   60 am   BACKBONE|DICT|INTERRES
   121   59  184 1    
   122   60   61 2    
   123   60   62 1    
   124   62   63 1    
   125   62   64 1    
   126   62  185 1    
   127   63  186 1    
   128   63  187 1    
   129   63  188 1    
   130   64   65 am   BACKBONE|DICT|INTERRES
   131   64  189 1    
   132   65   66 2    
   133   67   68 2    
   134   67   69 am   BACKBONE|DICT|INTERRES
   135   69   70 1    
   136   69  190 1    
   137   70   71 1    
   138   70   72 1    
   139   70  191 1    
   140   71  192 1    
   141   71  193 1    
   142   71  194 1    
   143   72   73 2    
   144   72   74 am   BACKBONE|DICT|INTERRES
   145   74   75 1    
   146   74  195 1    
   147   75   76 1    
   148   75   77 1    
   149   75  196 1    
   150   76  197 1    
   151   76  198 1    
   152   76  199 1    
   153   77   78 2    
   154   77   79 am   BACKBONE|DICT|INTERRES
   155   79   80 1    
   156   79  200 1    
   157   80   81 1    
   158   80   82 1    
   159   80  201 1    
   160   81  202 1    
   161   81  203 1    
   162   81  204 1    
   163   82   83 2    
   164   82   84 am   BACKBONE|DICT|INTERRES
   165   84   85 1    
   166   84  205 1    
   167   85   86 1    
   168   85   87 1    
   169   85  206 1    
   170   86  207 1    
   171   86  208 1    
   172   86  209 1    
   173   87   88 2    
   174   87   89 am   BACKBONE|DICT|INTERRES
   175   89   90 1    
   176   89  210 1    
   177   90   91 1    
   178   90   92 1    
   179   90  211 1    
   180   91  212 1    
   181   91  213 1    
   182   91  214 1    
   183   92   93 2    
   184   92   94 am   BACKBONE|DICT|INTERRES
   185   94   95 1    
   186   94  215 1    
   187   95   96 1    
   188   95   97 1    
   189   95  216 1    
   190   96  217 1    
   191   96  218 1    
   192   96  219 1    
   193   97   98 2    
   194   97   99 am   BACKBONE|DICT|INTERRES
   195   99  100 1    
   196   99  220 1    
   197  100  101 1    
   198  100  102 1    
   199  100  221 1    
   200  101  222 1    
   201  101  223 1    
   202  101  224 1    
   203  102  103 2    
   204  102  104 am   BACKBONE|DICT|INTERRES
   205  104  105 1    
   206  104  225 1    
   207  105  106 1    
   208  105  107 1    
   209  105  226 1    
   210  106  227 1    
   211  106  228 1    
   212  106  229 1    
   213  107  108 2    
   214  107  109 am   BACKBONE|DICT|INTERRES
   215  109  110 1    
   216  109  230 1    
   217  110  111 1    
   218  110  112 1    
   219  110  231 1    
   220  111  232 1    
   221  111  233 1    
   222  111  234 1    
   223  112  113 2    
   224  112  114 am   BACKBONE|DICT|INTERRES
   225  114  115 1    
   226  114  235 1    
   227  115  116 1    
   228  115  117 1    
   229  115  236 1    
   230  116  237 1    
   231  116  238 1    
   232  116  239 1    
   233  117  118 2    
   234  117  119 am   BACKBONE|DICT|INTERRES
   235  119  120 1    
   236  119  240 1    
   237  120  121 1    
   238  120  124 1    
   239  120  241 1    
   240  121  122 am   BACKBONE|DICT|INTERRES
   241  121  123 2    
   242  122  242 1    
   243  122  243 1    
   244  124  125 1    
   245  124  244 1    
   246  124  245 1    
   247  125  126 1    
   248  126  246 1    
   249  126  247 1    
@<TRIPOS>SUBSTRUCTURE
     1 UNK         1 GROUP             0       ****    0 ROOT    
