@<TRIPOS>MOLECULE
3R540
247   249    1
SMALL
USER_CHARGES


@<TRIPOS>ATOM
      1 CA         -3.7345  -14.1396  -47.3668 C.3       0 UNK        -0.1800 
      2 C          -3.1461  -13.4654  -48.5984 C.2       0 UNK         0.5000 
      3 O          -3.8931  -12.9502  -49.4298 O.2       0 UNK        -0.5000 
      4 N          -1.8148  -13.4734  -48.7096 N.am      1 UNK        -0.5000 
      5 CA         -1.0390  -12.8752  -49.7952 C.3       1 UNK         0.1400 
      6 C6         -0.0691  -13.9100  -50.4362 C.3       23 UNK        -0.0398 
      7 S7          1.1474  -14.6551  -49.2849 S.3       23 UNK        -0.2404 
      8 C8          2.3319  -15.4073  -50.4434 C.3       23 UNK        -0.0205 
      9 C9          1.8327  -16.7479  -50.9585 C.ar      23 UNK        -0.0193 
     10 C10         1.0468  -16.8160  -52.1117 C.ar      23 UNK        -0.1150 
     11 C11         0.5726  -18.0471  -52.5727 C.ar      23 UNK        -0.0193 
     12 C12         0.8976  -19.2162  -51.8750 C.ar      23 UNK        -0.1150 
     13 C13         1.6999  -19.1649  -50.7318 C.ar      23 UNK        -0.0193 
     14 C14         2.1630  -17.9245  -50.2803 C.ar      23 UNK        -0.1150 
     15 C15         2.1124  -20.4504  -50.0225 C.3       23 UNK        -0.0205 
     16 S16         1.7792  -20.4196  -48.2301 S.3       23 UNK        -0.2404 
     17 C17         0.0814  -21.0739  -48.1227 C.3       23 UNK        -0.0398 
     18 CA          0.0395  -22.4471  -47.4061 C.3       11 UNK         0.1400 
     19 N           0.4264  -22.3576  -45.9912 N.am      11 UNK        -0.5000 
     20 C           0.6029  -23.4120  -45.1808 C.2       10 UNK         0.5000 
     21 O           0.5200  -24.5806  -45.5565 O.2       10 UNK        -0.5000 
     22 CA          0.8561  -23.1211  -43.6899 C.3       10 UNK         0.1400 
     23 CB          2.3312  -22.7800  -43.4329 C.3       10 UNK        -0.1800 
     24 N          -0.0040  -22.0568  -43.1703 N.am      10 UNK        -0.5000 
     25 C          -1.3396  -22.1393  -43.0793 C.2       9 UNK         0.5000 
     26 O          -1.9801  -23.1472  -43.3729 O.2       9 UNK        -0.5000 
     27 CA         -2.0957  -20.8699  -42.6440 C.3       9 UNK         0.1400 
     28 CB         -2.0966  -20.7234  -41.1158 C.3       9 UNK        -0.1800 
     29 N          -1.5529  -19.6598  -43.2611 N.am      9 UNK        -0.5000 
     30 C          -1.5500  -19.4234  -44.5810 C.2       8 UNK         0.5000 
     31 O          -2.0684  -20.1664  -45.4153 O.2       8 UNK        -0.5000 
     32 CA         -0.7894  -18.1761  -45.0543 C.3       8 UNK         0.1400 
     33 CB         -1.6892  -16.9353  -45.0174 C.3       8 UNK        -0.1800 
     34 N           0.4238  -17.9360  -44.2742 N.am      8 UNK        -0.5000 
     35 C           1.5099  -18.7197  -44.3267 C.2       7 UNK         0.5000 
     36 O           1.5932  -19.7203  -45.0359 O.2       7 UNK        -0.5000 
     37 CA          2.6705  -18.3567  -43.3831 C.3       7 UNK         0.1400 
     38 CB          3.4646  -17.1616  -43.9324 C.3       7 UNK        -0.1800 
     39 N           2.2099  -18.0548  -42.0273 N.am      7 UNK        -0.5000 
     40 C           1.5947  -18.9326  -41.2220 C.2       6 UNK         0.5000 
     41 O           1.4129  -20.1137  -41.5143 O.2       6 UNK        -0.5000 
     42 CA          1.0511  -18.3949  -39.8844 C.3       6 UNK         0.1400 
     43 CB          2.0884  -18.5888  -38.7686 C.3       6 UNK        -0.1800 
     44 N           0.6414  -16.9872  -39.9209 N.am      6 UNK        -0.5000 
     45 C          -0.2890  -16.4605  -40.7304 C.2       5 UNK         0.5000 
     46 O          -0.8864  -17.1166  -41.5873 O.2       5 UNK        -0.5000 
     47 CA         -0.5899  -14.9558  -40.5659 C.3       5 UNK         0.1400 
     48 CB          0.5210  -14.1801  -39.8278 C.3       5 UNK        -0.1800 
     49 N          -0.7929  -14.3333  -41.8731 N.am      5 UNK        -0.5000 
     50 C          -1.9784  -14.0271  -42.4172 C.2       4 UNK         0.5000 
     51 O          -3.0586  -14.2416  -41.8652 O.2       4 UNK        -0.5000 
     52 CA         -1.9504  -13.3509  -43.8037 C.3       4 UNK         0.1400 
     53 CB         -3.0033  -12.2357  -43.9340 C.3       4 UNK        -0.1800 
     54 N          -0.6271  -12.7968  -44.1081 N.am      4 UNK        -0.5000 
     55 C           0.0359  -12.9761  -45.2543 C.2       3 UNK         0.5000 
     56 O          -0.3848  -13.6474  -46.2001 O.2       3 UNK        -0.5000 
     57 CA          1.4154  -12.3093  -45.3531 C.3       3 UNK         0.1400 
     58 CB          2.5175  -13.2993  -44.9449 C.3       3 UNK        -0.1800 
     59 N           1.6226  -11.9112  -46.7390 N.am      3 UNK        -0.5000 
     60 C           1.8290  -10.6633  -47.1780 C.2       2 UNK         0.5000 
     61 O           2.0390   -9.7000  -46.4400 O.2       2 UNK        -0.5000 
     62 CA          1.7634  -10.4505  -48.7060 C.3       2 UNK         0.1400 
     63 CB          3.1746  -10.4614  -49.3130 C.3       2 UNK        -0.1800 
     64 N           0.9501  -11.4683  -49.3768 N.am      2 UNK        -0.5000 
     65 C          -0.3797  -11.5863  -49.2548 C.2       1 UNK         0.5000 
     66 O          -1.0806  -10.7308  -48.7093 O.2       1 UNK        -0.5000 
     67 C          -1.3386  -23.1219  -47.5750 C.2       11 UNK         0.5000 
     68 O          -1.4849  -24.0057  -48.4207 O.2       11 UNK        -0.5000 
     69 N          -2.3152  -22.7294  -46.7440 N.am      12 UNK        -0.5000 
     70 CA         -3.6513  -23.3256  -46.6999 C.3       12 UNK         0.1400 
     71 CB         -4.5652  -22.4868  -45.7957 C.3       12 UNK        -0.1800 
     72 C          -3.6350  -24.8032  -46.2670 C.2       12 UNK         0.5000 
     73 O          -4.2957  -25.6222  -46.9054 O.2       12 UNK        -0.5000 
     74 N          -2.8449  -25.1319  -45.2348 N.am      13 UNK        -0.5000 
     75 CA         -2.6328  -26.4978  -44.7437 C.3       13 UNK         0.1400 
     76 CB         -1.8209  -26.4558  -43.4407 C.3       13 UNK        -0.1800 
     77 C          -1.9534  -27.4178  -45.7774 C.2       13 UNK         0.5000 
     78 O          -2.2743  -28.6049  -45.8389 O.2       13 UNK        -0.5000 
     79 N          -1.0631  -26.8452  -46.5983 N.am      14 UNK        -0.5000 
     80 CA         -0.4158  -27.4994  -47.7374 C.3       14 UNK         0.1400 
     81 CB          0.8537  -26.7118  -48.1024 C.3       14 UNK        -0.1800 
     82 C          -1.3344  -27.6545  -48.9701 C.2       14 UNK         0.5000 
     83 O          -0.9085  -28.2614  -49.9537 O.2       14 UNK        -0.5000 
     84 N          -2.5583  -27.1053  -48.9076 N.am      15 UNK        -0.5000 
     85 CA         -3.5814  -27.0722  -49.9581 C.3       15 UNK         0.1400 
     86 CB         -4.0620  -28.4940  -50.3172 C.3       15 UNK        -0.1800 
     87 C          -3.1546  -26.2420  -51.1867 C.2       15 UNK         0.5000 
     88 O          -3.5427  -26.5555  -52.3134 O.2       15 UNK        -0.5000 
     89 N          -2.3768  -25.1825  -50.9405 N.am      16 UNK        -0.5000 
     90 CA         -1.8755  -24.2390  -51.9337 C.3       16 UNK         0.1400 
     91 CB         -0.4063  -24.5756  -52.2499 C.3       16 UNK        -0.1800 
     92 C          -2.0655  -22.8174  -51.3843 C.2       16 UNK         0.5000 
     93 O          -1.1103  -22.0438  -51.3391 O.2       16 UNK        -0.5000 
     94 N          -3.2942  -22.5403  -50.9184 N.am      17 UNK        -0.5000 
     95 CA         -3.7080  -21.3724  -50.1361 C.3       17 UNK         0.1400 
     96 CB         -5.2364  -21.3855  -49.9895 C.3       17 UNK        -0.1800 
     97 C          -3.2348  -20.0191  -50.6911 C.2       17 UNK         0.5000 
     98 O          -3.3386  -19.7844  -51.8994 O.2       17 UNK        -0.5000 
     99 N          -2.7426  -19.1708  -49.7770 N.am      18 UNK        -0.5000 
    100 CA        -2.1689  -17.8517  -50.0312 C.3       18 UNK         0.1400 
    101 CB        -1.7099  -17.2382  -48.7029 C.3       18 UNK        -0.1800 
    102 C         -3.1447  -16.9262  -50.7716 C.2       18 UNK         0.5000 
    103 O         -4.1956  -16.5899  -50.2246 O.2       18 UNK        -0.5000 
    104 N         -2.8014  -16.6067  -52.0267 N.am      19 UNK        -0.5000 
    105 CA        -3.5592  -15.8643  -53.0453 C.3       19 UNK         0.1400 
    106 CB        -3.8266  -14.4186  -52.5910 C.3       19 UNK        -0.1800 
    107 C         -4.8634  -16.5433  -53.5208 C.2       19 UNK         0.5000 
    108 O         -5.2160  -16.4115  -54.6930 O.2       19 UNK        -0.5000 
    109 N         -5.5537  -17.2486  -52.6187 N.am      20 UNK        -0.5000 
    110 CA        -6.8438  -17.8982  -52.8317 C.3       20 UNK         0.1400 
    111 CB        -7.4190  -18.3037  -51.4662 C.3       20 UNK        -0.1800 
    112 C         -6.8022  -19.1112  -53.7791 C.2       20 UNK         0.5000 
    113 O         -7.8222  -19.4003  -54.4073 O.2       20 UNK        -0.5000 
    114 N         -5.6571  -19.8023  -53.8671 N.am      21 UNK        -0.5000 
    115 CA        -5.4921  -20.9809  -54.7195 C.3       21 UNK         0.1400 
    116 CB        -5.7960  -22.2597  -53.9191 C.3       21 UNK        -0.1800 
    117 C         -4.0953  -21.0389  -55.3477 C.2       21 UNK         0.5000 
    118 O         -3.9847  -21.1685  -56.5667 O.2       21 UNK        -0.5000 
    119 N         -3.0554  -20.9561  -54.5091 N.am      22 UNK        -0.5000 
    120 CA        -1.6315  -21.0507  -54.8784 C.3       22 UNK         0.1400 
    121 C         -1.1467  -22.4299  -55.4268 C.2       22 UNK         0.5000 
    122 N         -1.9741  -23.4670  -55.4622 N.am      22 UNK        -0.7600 
    123 O          0.0137  -22.5760  -55.7990 O.2       22 UNK        -0.5000 
    124 C124       -1.1690  -19.8547  -55.7654 C.3       23 UNK        -0.0398 
    125 S125        0.3656  -19.1005  -55.1360 S.3       23 UNK        -0.2404 
    126 C126       -0.3412  -18.1095  -53.7854 C.3       23 UNK        -0.0205 
    127 H127       -2.9693  -14.6563  -46.7878 H         1 UNK         0.0600 
    128 H128       -4.4828  -14.8742  -47.6648 H         1 UNK         0.0600 
    129 H129       -4.2122  -13.4010  -46.7234 H         1 UNK         0.0600 
    130 H130       -1.2608  -13.8086  -47.9251 H         1 UNK         0.3000 
    131 H131       -1.7112  -12.5437  -50.5887 H         1 UNK         0.0600 
    132 H132       -0.6577  -14.7222  -50.8638 H         1 UNK         0.0800 
    133 H133        0.4553  -13.4595  -51.2804 H         1 UNK         0.0800 
    134 H134        2.5347  -14.7285  -51.2731 H         1 UNK         0.0800 
    135 H135        3.2834  -15.5440  -49.9274 H         1 UNK         0.0800 
    136 H136        0.7943  -15.9075  -52.6402 H         1 UNK         0.1150 
    137 H137        0.5295  -20.1684  -52.2300 H         1 UNK         0.1150 
    138 H138        2.7837  -17.8756  -49.3965 H         1 UNK         0.1150 
    139 H139        1.6318  -21.3217  -50.4712 H         1 UNK         0.0800 
    140 H140        3.1844  -20.5872  -50.1688 H         1 UNK         0.0800 
    141 H141       -0.3318  -21.1407  -49.1278 H         1 UNK         0.0800 
    142 H142       -0.5337  -20.3447  -47.5962 H         1 UNK         0.0800 
    143 H143        0.7645  -23.1003  -47.8966 H         1 UNK         0.0600 
    144 H144        0.5821  -21.4258  -45.6202 H         1 UNK         0.3000 
    145 H145        0.6244  -24.0313  -43.1333 H         1 UNK         0.0600 
    146 H146        2.5231  -22.6407  -42.3689 H         1 UNK         0.0600 
    147 H147        2.9822  -23.5838  -43.7788 H         1 UNK         0.0600 
    148 H148        2.6343  -21.8692  -43.9482 H         1 UNK         0.0600 
    149 H149        0.4594  -21.2112  -42.8524 H         1 UNK         0.3000 
    150 H150       -3.1319  -20.9696  -42.9734 H         1 UNK         0.0600 
    151 H151       -2.6058  -21.5666  -40.6477 H         1 UNK         0.0600 
    152 H152       -2.6134  -19.8155  -40.8039 H         1 UNK         0.0600 
    153 H153       -1.0856  -20.6914  -40.7123 H         1 UNK         0.0600 
    154 H154       -1.1332  -18.9717  -42.6467 H         1 UNK         0.3000 
    155 H155       -0.4904  -18.3487  -46.0886 H         1 UNK         0.0600 
    156 H156       -1.9694  -16.6689  -43.9986 H         1 UNK         0.0600 
    157 H157       -1.1851  -16.0821  -45.4688 H         1 UNK         0.0600 
    158 H158       -2.6115  -17.1013  -45.5747 H         1 UNK         0.0600 
    159 H159        0.3896  -17.1873  -43.5980 H         1 UNK         0.3000 
    160 H160        3.3394  -19.2183  -43.3295 H         1 UNK         0.0600 
    161 H161        4.3379  -16.9511  -43.3149 H         1 UNK         0.0600 
    162 H162        2.8571  -16.2571  -43.9743 H         1 UNK         0.0600 
    163 H163        3.8228  -17.3631  -44.9429 H         1 UNK         0.0600 
    164 H164        2.3258  -17.1066  -41.7028 H         1 UNK         0.3000 
    165 H165        0.1675  -18.9829  -39.6311 H         1 UNK         0.0600 
    166 H166        1.6819  -18.3060  -37.7974 H         1 UNK         0.0600 
    167 H167        2.3960  -19.6332  -38.6982 H         1 UNK         0.0600 
    168 H168        2.9853  -17.9936  -38.9448 H         1 UNK         0.0600 
    169 H169        1.0893  -16.3776  -39.2520 H         1 UNK         0.3000 
    170 H170       -1.5005  -14.8816  -39.9684 H         1 UNK         0.0600 
    171 H171        0.2830  -13.1173  -39.7760 H         1 UNK         0.0600 
    172 H172        1.4864  -14.2768  -40.3266 H         1 UNK         0.0600 
    173 H173        0.6354  -14.5243  -38.7992 H         1 UNK         0.0600 
    174 H174        0.0362  -14.1751  -42.4249 H         1 UNK         0.3000 
    175 H175       -2.2052  -14.1319  -44.5201 H         1 UNK         0.0600 
    176 H176       -2.9820  -11.7909  -44.9291 H         1 UNK         0.0600 
    177 H177       -2.8364  -11.4401  -43.2071 H         1 UNK         0.0600 
    178 H178       -4.0108  -12.6226  -43.7764 H         1 UNK         0.0600 
    179 H179       -0.2184  -12.2166  -43.3880 H         1 UNK         0.3000 
    180 H180        1.4432  -11.4426  -44.6895 H         1 UNK         0.0600 
    181 H181        2.5061  -14.1943  -45.5689 H         1 UNK         0.0600 
    182 H182        2.3962  -13.6170  -43.9088 H         1 UNK         0.0600 
    183 H183        3.5046  -12.8450  -45.0321 H         1 UNK         0.0600 
    184 H184        1.3968  -12.6267  -47.4168 H         1 UNK         0.3000 
    185 H185        1.3155   -9.4715  -48.8889 H         1 UNK         0.0600 
    186 H186        3.6679  -11.4235  -49.1685 H         1 UNK         0.0600 
    187 H187        3.1455  -10.2554  -50.3831 H         1 UNK         0.0600 
    188 H188        3.8031   -9.6977  -48.8529 H         1 UNK         0.0600 
    189 H189        1.4584  -12.2204  -49.8204 H         1 UNK         0.3000 
    190 H190       -2.1338  -21.9699  -46.0930 H         1 UNK         0.3000 
    191 H191       -4.0619  -23.2928  -47.7105 H         1 UNK         0.0600 
    192 H192       -4.6346  -21.4587  -46.1519 H         1 UNK         0.0600 
    193 H193       -5.5766  -22.8944  -45.7773 H         1 UNK         0.0600 
    194 H194       -4.2032  -22.4599  -44.7682 H         1 UNK         0.0600 
    195 H195       -2.3748  -24.3892  -44.7224 H         1 UNK         0.3000 
    196 H196       -3.6126  -26.9238  -44.5190 H         1 UNK         0.0600 
    197 H197       -1.6747  -27.4590  -43.0383 H         1 UNK         0.0600 
    198 H198       -2.3318  -25.8702  -42.6763 H         1 UNK         0.0600 
    199 H199       -0.8352  -26.0171  -43.5958 H         1 UNK         0.0600 
    200 H200       -0.8031  -25.8787  -46.4294 H         1 UNK         0.3000 
    201 H201       -0.1143  -28.5034  -47.4324 H         1 UNK         0.0600 
    202 H202        1.5316  -26.6404  -47.2517 H         1 UNK         0.0600 
    203 H203        0.6188  -25.6986  -48.4287 H         1 UNK         0.0600 
    204 H204        1.4003  -27.1979  -48.9113 H         1 UNK         0.0600 
    205 H205       -2.8126  -26.6198  -48.0555 H         1 UNK         0.3000 
    206 H206       -4.4328  -26.5442  -49.5270 H         1 UNK         0.0600 
    207 H207       -4.3537  -29.0481  -49.4250 H         1 UNK         0.0600 
    208 H208       -4.9320  -28.4573  -50.9737 H         1 UNK         0.0600 
    209 H209       -3.2908  -29.0673  -50.8321 H         1 UNK         0.0600 
    210 H210       -2.1163  -24.9701  -49.9794 H         1 UNK         0.3000 
    211 H211       -2.4588  -24.3051  -52.8531 H         1 UNK         0.0600 
    212 H212        0.2179  -24.5165  -51.3572 H         1 UNK         0.0600 
    213 H213        0.0063  -23.8873  -52.9881 H         1 UNK         0.0600 
    214 H214       -0.3137  -25.5826  -52.6567 H         1 UNK         0.0600 
    215 H215       -3.9909  -23.2634  -51.0152 H         1 UNK         0.3000 
    216 H216       -3.2739  -21.4973  -49.1444 H         1 UNK         0.0600 
    217 H217       -5.5754  -20.5630  -49.3583 H         1 UNK         0.0600 
    218 H218       -5.5846  -22.3093  -49.5275 H         1 UNK         0.0600 
    219 H219       -5.7338  -21.2852  -50.9547 H         1 UNK         0.0600 
    220 H220       -2.7660  -19.4475  -48.8076 H         1 UNK         0.3000 
    221 H221       -1.2843  -17.9960  -50.6465 H         1 UNK         0.0600 
    222 H222       -2.5242  -17.1844  -47.9803 H         1 UNK         0.0600 
    223 H223       -0.8973  -17.8197  -48.2700 H         1 UNK         0.0600 
    224 H224       -1.3340  -16.2270  -48.8481 H         1 UNK         0.0600 
    225 H225       -1.9324  -16.9922  -52.3628 H         1 UNK         0.3000 
    226 H226       -2.9057  -15.8152  -53.9177 H         1 UNK         0.0600 
    227 H227       -2.9015  -13.9144  -52.3134 H         1 UNK         0.0600 
    228 H228       -4.2867  -13.8375  -53.3910 H         1 UNK         0.0600 
    229 H229       -4.4997  -14.3805  -51.7343 H         1 UNK         0.0600 
    230 H230       -5.1948  -17.2470  -51.6682 H         1 UNK         0.3000 
    231 H231       -7.5161  -17.1622  -53.2775 H         1 UNK         0.0600 
    232 H232       -6.7596  -18.9971  -50.9446 H         1 UNK         0.0600 
    233 H233       -8.3896  -18.7896  -51.5757 H         1 UNK         0.0600 
    234 H234       -7.5620  -17.4335  -50.8252 H         1 UNK         0.0600 
    235 H235       -4.8554  -19.5068  -53.3205 H         1 UNK         0.3000 
    236 H236       -6.1968  -20.9321  -55.5527 H         1 UNK         0.0600 
    237 H237       -6.8173  -22.2522  -53.5381 H         1 UNK         0.0600 
    238 H238       -5.6899  -23.1473  -54.5440 H         1 UNK         0.0600 
    239 H239       -5.1242  -22.3737  -53.0694 H         1 UNK         0.0600 
    240 H240       -3.2294  -20.7959  -53.5210 H         1 UNK         0.3000 
    241 H241       -1.1310  -20.9772  -53.9129 H         1 UNK         0.0600 
    242 H242       -2.9427  -23.3613  -55.2126 H         1 UNK         0.3800 
    243 H243       -1.6407  -24.3488  -55.8185 H         1 UNK         0.3800 
    244 H244       -1.0197  -20.1562  -56.8037 H         1 UNK         0.0800 
    245 H245       -1.9300  -19.0737  -55.8047 H         1 UNK         0.0800 
    246 H246       -1.2910  -18.5410  -53.4669 H         1 UNK         0.0800 
    247 H247       -0.5623  -17.1120  -54.1682 H         1 UNK         0.0800 
@<TRIPOS>BOND
     1    1    2 1    
     2    1  127 1    
     3    1  128 1    
     4    1  129 1    
     5    2    3 2    
     6    2    4 am   BACKBONE|DICT|INTERRES
     7    4    5 1    
     8    4  130 1    
     9    5    6 1    
    10    5   65 1    
    11    5  131 1    
    12    6    7 1    
    13    6  132 1    
    14    6  133 1    
    15    7    8 1    
    16    8    9 1    
    17    8  134 1    
    18    8  135 1    
    19    9   10 ar   
    20    9   14 ar   
    21   10   11 ar   
    22   10  136 1    
    23   11   12 ar   
    24   11  126 1    
    25   12   13 ar   
    26   12  137 1    
    27   13   14 ar   
    28   13   15 1    
    29   14  138 1    
    30   15   16 1    
    31   15  139 1    
    32   15  140 1    
    33   16   17 1    
    34   17   18 1    
    35   17  141 1    
    36   17  142 1    
    37   18   19 1    
    38   18   67 1    
    39   18  143 1    
    40   19   20 am   BACKBONE|DICT|INTERRES
    41   19  144 1    
    42   20   21 2    
    43   20   22 1    
    44   22   23 1    
    45   22   24 1    
    46   22  145 1    
    47   23  146 1    
    48   23  147 1    
    49   23  148 1    
    50   24   25 am   BACKBONE|DICT|INTERRES
    51   24  149 1    
    52   25   26 2    
    53   25   27 1    
    54   27   28 1    
    55   27   29 1    
    56   27  150 1    
    57   28  151 1    
    58   28  152 1    
    59   28  153 1    
    60   29   30 am   BACKBONE|DICT|INTERRES
    61   29  154 1    
    62   30   31 2    
    63   30   32 1    
    64   32   33 1    
    65   32   34 1    
    66   32  155 1    
    67   33  156 1    
    68   33  157 1    
    69   33  158 1    
    70   34   35 am   BACKBONE|DICT|INTERRES
    71   34  159 1    
    72   35   36 2    
    73   35   37 1    
    74   37   38 1    
    75   37   39 1    
    76   37  160 1    
    77   38  161 1    
    78   38  162 1    
    79   38  163 1    
    80   39   40 am   BACKBONE|DICT|INTERRES
    81   39  164 1    
    82   40   41 2    
    83   40   42 1    
    84   42   43 1    
    85   42   44 1    
    86   42  165 1    
    87   43  166 1    
    88   43  167 1    
    89   43  168 1    
    90   44   45 am   BACKBONE|DICT|INTERRES
    91   44  169 1    
    92   45   46 2    
    93   45   47 1    
    94   47   48 1    
    95   47   49 1    
    96   47  170 1    
    97   48  171 1    
    98   48  172 1    
    99   48  173 1    
   100   49   50 am   BACKBONE|DICT|INTERRES
   101   49  174 1    
   102   50   51 2    
   103   50   52 1    
   104   52   53 1    
   105   52   54 1    
   106   52  175 1    
   107   53  176 1    
   108   53  177 1    
   109   53  178 1    
   110   54   55 am   BACKBONE|DICT|INTERRES
   111   54  179 1    
   112   55   56 2    
   113   55   57 1    
   114   57   58 1    
   115   57   59 1    
   116   57  180 1    
   117   58  181 1    
   118   58  182 1    
   119   58  183 1    
   120   59   60 am   BACKBONE|DICT|INTERRES
   121   59  184 1    
   122   60   61 2    
   123   60   62 1    
   124   62   63 1    
   125   62   64 1    
   126   62  185 1    
   127   63  186 1    
   128   63  187 1    
   129   63  188 1    
   130   64   65 am   BACKBONE|DICT|INTERRES
   131   64  189 1    
   132   65   66 2    
   133   67   68 2    
   134   67   69 am   BACKBONE|DICT|INTERRES
   135   69   70 1    
   136   69  190 1    
   137   70   71 1    
   138   70   72 1    
   139   70  191 1    
   140   71  192 1    
   141   71  193 1    
   142   71  194 1    
   143   72   73 2    
   144   72   74 am   BACKBONE|DICT|INTERRES
   145   74   75 1    
   146   74  195 1    
   147   75   76 1    
   148   75   77 1    
   149   75  196 1    
   150   76  197 1    
   151   76  198 1    
   152   76  199 1    
   153   77   78 2    
   154   77   79 am   BACKBONE|DICT|INTERRES
   155   79   80 1    
   156   79  200 1    
   157   80   81 1    
   158   80   82 1    
   159   80  201 1    
   160   81  202 1    
   161   81  203 1    
   162   81  204 1    
   163   82   83 2    
   164   82   84 am   BACKBONE|DICT|INTERRES
   165   84   85 1    
   166   84  205 1    
   167   85   86 1    
   168   85   87 1    
   169   85  206 1    
   170   86  207 1    
   171   86  208 1    
   172   86  209 1    
   173   87   88 2    
   174   87   89 am   BACKBONE|DICT|INTERRES
   175   89   90 1    
   176   89  210 1    
   177   90   91 1    
   178   90   92 1    
   179   90  211 1    
   180   91  212 1    
   181   91  213 1    
   182   91  214 1    
   183   92   93 2    
   184   92   94 am   BACKBONE|DICT|INTERRES
   185   94   95 1    
   186   94  215 1    
   187   95   96 1    
   188   95   97 1    
   189   95  216 1    
   190   96  217 1    
   191   96  218 1    
   192   96  219 1    
   193   97   98 2    
   194   97   99 am   BACKBONE|DICT|INTERRES
   195   99  100 1    
   196   99  220 1    
   197  100  101 1    
   198  100  102 1    
   199  100  221 1    
   200  101  222 1    
   201  101  223 1    
   202  101  224 1    
   203  102  103 2    
   204  102  104 am   BACKBONE|DICT|INTERRES
   205  104  105 1    
   206  104  225 1    
   207  105  106 1    
   208  105  107 1    
   209  105  226 1    
   210  106  227 1    
   211  106  228 1    
   212  106  229 1    
   213  107  108 2    
   214  107  109 am   BACKBONE|DICT|INTERRES
   215  109  110 1    
   216  109  230 1    
   217  110  111 1    
   218  110  112 1    
   219  110  231 1    
   220  111  232 1    
   221  111  233 1    
   222  111  234 1    
   223  112  113 2    
   224  112  114 am   BACKBONE|DICT|INTERRES
   225  114  115 1    
   226  114  235 1    
   227  115  116 1    
   228  115  117 1    
   229  115  236 1    
   230  116  237 1    
   231  116  238 1    
   232  116  239 1    
   233  117  118 2    
   234  117  119 am   BACKBONE|DICT|INTERRES
   235  119  120 1    
   236  119  240 1    
   237  120  121 1    
   238  120  124 1    
   239  120  241 1    
   240  121  122 am   BACKBONE|DICT|INTERRES
   241  121  123 2    
   242  122  242 1    
   243  122  243 1    
   244  124  125 1    
   245  124  244 1    
   246  124  245 1    
   247  125  126 1    
   248  126  246 1    
   249  126  247 1    
@<TRIPOS>SUBSTRUCTURE
     1 UNK         1 GROUP             0       ****    0 ROOT    
