@<TRIPOS>MOLECULE
3R540
247   249    1
SMALL
USER_CHARGES


@<TRIPOS>ATOM
      1 CA         -1.9635  -18.3517  -46.8313 C.3       0 UNK        -0.1800 
      2 C          -1.6430  -16.8834  -46.6197 C.2       0 UNK         0.5000 
      3 O          -0.5318  -16.5631  -46.2081 O.2       0 UNK        -0.5000 
      4 N          -2.5910  -15.9859  -46.9232 N.am      1 UNK        -0.5000 
      5 CA         -2.3678  -14.5311  -46.9314 C.3       1 UNK         0.1400 
      6 C6         -3.6830  -13.7120  -46.9064 C.3       23 UNK        -0.0398 
      7 S7         -4.7771  -14.1258  -45.5038 S.3       23 UNK        -0.2404 
      8 C8         -6.2630  -14.7501  -46.3564 C.3       23 UNK        -0.0205 
      9 C9         -6.0102  -16.1017  -47.0045 C.ar      23 UNK        -0.0193 
     10 C10        -5.7073  -16.1912  -48.3665 C.ar      23 UNK        -0.1150 
     11 C11        -5.4172  -17.4270  -48.9504 C.ar      23 UNK        -0.0193 
     12 C12        -5.4526  -18.5808  -48.1607 C.ar      23 UNK        -0.1150 
     13 C13        -5.7663  -18.5066  -46.8006 C.ar      23 UNK        -0.0193 
     14 C14        -6.0526  -17.2638  -46.2306 C.ar      23 UNK        -0.1150 
     15 C15        -5.7647  -19.7628  -45.9433 C.3       23 UNK        -0.0205 
     16 S16        -4.4265  -19.7149  -44.7096 S.3       23 UNK        -0.2404 
     17 C17        -4.1821  -21.4867  -44.3705 C.3       23 UNK        -0.0398 
     18 CA         -2.9590  -22.0625  -45.1240 C.3       11 UNK         0.1400 
     19 N          -1.6871  -21.3891  -44.8113 N.am      11 UNK        -0.5000 
     20 C          -0.5386  -21.5958  -45.4755 C.2       10 UNK         0.5000 
     21 O          -0.4612  -22.3140  -46.4715 O.2       10 UNK        -0.5000 
     22 CA          0.7483  -20.9588  -44.9231 C.3       10 UNK         0.1400 
     23 CB          1.0705  -19.6317  -45.6206 C.3       10 UNK        -0.1800 
     24 N           0.6871  -20.7624  -43.4764 N.am      10 UNK        -0.5000 
     25 C           0.9891  -21.7164  -42.5831 C.2       9 UNK         0.5000 
     26 O           1.4303  -22.8231  -42.8924 O.2       9 UNK        -0.5000 
     27 CA          0.7174  -21.4027  -41.0972 C.3       9 UNK         0.1400 
     28 CB          1.9612  -20.7895  -40.4377 C.3       9 UNK        -0.1800 
     29 N          -0.4239  -20.5084  -40.8928 N.am      9 UNK        -0.5000 
     30 C          -1.6850  -20.7884  -41.2481 C.2       8 UNK         0.5000 
     31 O          -2.0300  -21.8740  -41.7160 O.2       8 UNK        -0.5000 
     32 CA         -2.7273  -19.6592  -41.1146 C.3       8 UNK         0.1400 
     33 CB         -3.5427  -19.8398  -39.8262 C.3       8 UNK        -0.1800 
     34 N          -2.1888  -18.2940  -41.1521 N.am      8 UNK        -0.5000 
     35 C          -1.4306  -17.7570  -42.1194 C.2       7 UNK         0.5000 
     36 O          -1.0162  -18.3858  -43.0975 O.2       7 UNK        -0.5000 
     37 CA         -1.0346  -16.2856  -41.9181 C.3       7 UNK         0.1400 
     38 CB         -0.1866  -16.1191  -40.6384 C.3       7 UNK        -0.1800 
     39 N          -0.2747  -15.8117  -43.0702 N.am      7 UNK        -0.5000 
     40 C           0.0041  -14.5326  -43.3522 C.2       6 UNK         0.5000 
     41 O          -0.4925  -13.5808  -42.7463 O.2       6 UNK        -0.5000 
     42 CA          1.0469  -14.2837  -44.4670 C.3       6 UNK         0.1400 
     43 CB          1.6374  -12.8589  -44.4401 C.3       6 UNK        -0.1800 
     44 N           2.1192  -15.2864  -44.4707 N.am      6 UNK        -0.5000 
     45 C           2.9577  -15.5847  -43.4631 C.2       5 UNK         0.5000 
     46 O           2.9830  -14.9858  -42.3874 O.2       5 UNK        -0.5000 
     47 CA          3.9175  -16.7734  -43.6694 C.3       5 UNK         0.1400 
     48 CB          3.3594  -18.0230  -42.9689 C.3       5 UNK        -0.1800 
     49 N           4.1636  -17.0820  -45.0787 N.am      5 UNK        -0.5000 
     50 C           4.9313  -16.3450  -45.8921 C.2       4 UNK         0.5000 
     51 O           5.5695  -15.3589  -45.5188 O.2       4 UNK        -0.5000 
     52 CA          4.9874  -16.7511  -47.3805 C.3       4 UNK         0.1400 
     53 CB          4.3352  -18.1172  -47.6938 C.3       4 UNK        -0.1800 
     54 N           4.4203  -15.7006  -48.2327 N.am      4 UNK        -0.5000 
     55 C           3.1754  -15.2041  -48.1704 C.2       3 UNK         0.5000 
     56 O           2.3195  -15.6141  -47.3845 O.2       3 UNK        -0.5000 
     57 CA          2.8355  -14.0227  -49.1056 C.3       3 UNK         0.1400 
     58 CB          3.7647  -13.8982  -50.3348 C.3       3 UNK        -0.1800 
     59 N           1.4271  -14.0323  -49.5109 N.am      3 UNK        -0.5000 
     60 C           0.7955  -14.9645  -50.2364 C.2       2 UNK         0.5000 
     61 O           1.3480  -15.9501  -50.7280 O.2       2 UNK        -0.5000 
     62 CA         -0.7198  -14.7466  -50.4307 C.3       2 UNK         0.1400 
     63 CB         -1.3232  -15.6862  -51.4908 C.3       2 UNK        -0.1800 
     64 N          -1.4624  -14.9302  -49.1855 N.am      2 UNK        -0.5000 
     65 C          -1.5040  -14.0935  -48.1381 C.2       1 UNK         0.5000 
     66 O          -0.9111  -13.0140  -48.1048 O.2       1 UNK        -0.5000 
     67 C          -2.8483  -23.5811  -44.8882 C.2       11 UNK         0.5000 
     68 O          -3.3000  -24.3611  -45.7267 O.2       11 UNK        -0.5000 
     69 N          -2.1706  -23.9645  -43.7961 N.am      12 UNK        -0.5000 
     70 CA         -1.8000  -25.3428  -43.4642 C.3       12 UNK         0.1400 
     71 CB         -1.1967  -25.3667  -42.0519 C.3       12 UNK        -0.1800 
     72 C          -0.8329  -25.9900  -44.4802 C.2       12 UNK         0.5000 
     73 O          -0.7957  -27.2162  -44.5797 O.2       12 UNK        -0.5000 
     74 N          -0.1043  -25.1627  -45.2422 N.am      13 UNK        -0.5000 
     75 CA          0.7619  -25.5546  -46.3550 C.3       13 UNK         0.1400 
     76 CB          2.0406  -24.6980  -46.3172 C.3       13 UNK        -0.1800 
     77 C           0.0304  -25.4430  -47.7112 C.2       13 UNK         0.5000 
     78 O           0.6751  -25.2017  -48.7328 O.2       13 UNK        -0.5000 
     79 N          -1.3021  -25.6033  -47.7008 N.am      14 UNK        -0.5000 
     80 CA         -2.2159  -25.5636  -48.8473 C.3       14 UNK         0.1400 
     81 CB         -1.9539  -26.7532  -49.7953 C.3       14 UNK        -0.1800 
     82 C          -2.1995  -24.2024  -49.5696 C.2       14 UNK         0.5000 
     83 O          -2.0901  -24.1542  -50.7950 O.2       14 UNK        -0.5000 
     84 N          -2.2758  -23.1203  -48.7816 N.am      15 UNK        -0.5000 
     85 CA         -2.1922  -21.7160  -49.2034 C.3       15 UNK         0.1400 
     86 CB         -3.4108  -21.3251  -50.0634 C.3       15 UNK        -0.1800 
     87 C          -0.8459  -21.4095  -49.8884 C.2       15 UNK         0.5000 
     88 O          -0.8203  -20.8645  -50.9932 O.2       15 UNK        -0.5000 
     89 N           0.2412  -21.8233  -49.2201 N.am      16 UNK        -0.5000 
     90 CA          1.6360  -21.7765  -49.6703 C.3       16 UNK         0.1400 
     91 CB          2.1530  -20.3239  -49.6686 C.3       16 UNK        -0.1800 
     92 C           1.8422  -22.4984  -51.0197 C.2       16 UNK         0.5000 
     93 O           2.4323  -21.9353  -51.9432 O.2       16 UNK        -0.5000 
     94 N           1.3209  -23.7319  -51.1005 N.am      17 UNK        -0.5000 
     95 CA          1.2615  -24.5981  -52.2814 C.3       17 UNK         0.1400 
     96 CB          2.6717  -25.0909  -52.6677 C.3       17 UNK        -0.1800 
     97 C           0.4979  -23.9432  -53.4531 C.2       17 UNK         0.5000 
     98 O           0.9985  -23.9077  -54.5791 O.2       17 UNK        -0.5000 
     99 N          -0.7054  -23.4368  -53.1466 N.am      18 UNK        -0.5000 
    100 CA        -1.6394  -22.7352  -54.0297 C.3       18 UNK         0.1400 
    101 CB        -2.2442  -23.7111  -55.0600 C.3       18 UNK        -0.1800 
    102 C         -1.0199  -21.4778  -54.6728 C.2       18 UNK         0.5000 
    103 O         -0.9985  -21.3494  -55.8990 O.2       18 UNK        -0.5000 
    104 N         -0.5206  -20.5669  -53.8260 N.am      19 UNK        -0.5000 
    105 CA         0.0876  -19.2955  -54.2314 C.3       19 UNK         0.1400 
    106 CB         0.8207  -18.6822  -53.0298 C.3       19 UNK        -0.1800 
    107 C         -0.9142  -18.2856  -54.8292 C.2       19 UNK         0.5000 
    108 O         -0.4960  -17.3626  -55.5299 O.2       19 UNK        -0.5000 
    109 N         -2.2088  -18.4810  -54.5605 N.am      20 UNK        -0.5000 
    110 CA        -3.3246  -17.7258  -55.1138 C.3       20 UNK         0.1400 
    111 CB        -3.5783  -16.4747  -54.2535 C.3       20 UNK        -0.1800 
    112 C         -4.5628  -18.6335  -55.1524 C.2       20 UNK         0.5000 
    113 O         -4.5545  -19.7138  -54.5551 O.2       20 UNK        -0.5000 
    114 N         -5.6149  -18.1642  -55.8355 N.am      21 UNK        -0.5000 
    115 CA        -6.9403  -18.7930  -55.8453 C.3       21 UNK         0.1400 
    116 CB        -7.7338  -18.2688  -57.0522 C.3       21 UNK        -0.1800 
    117 C         -7.7224  -18.5491  -54.5371 C.2       21 UNK         0.5000 
    118 O         -8.6159  -19.3311  -54.2111 O.2       21 UNK        -0.5000 
    119 N         -7.3631  -17.4748  -53.8191 N.am      22 UNK        -0.5000 
    120 CA        -7.8745  -17.0794  -52.4930 C.3       22 UNK         0.1400 
    121 C         -9.3467  -16.5647  -52.4793 C.2       22 UNK         0.5000 
    122 N         -9.9491  -16.2500  -53.6195 N.am      22 UNK        -0.7600 
    123 O         -9.9468  -16.4149  -51.4183 O.2       22 UNK        -0.5000 
    124 C124       -7.6080  -18.1349  -51.3798 C.3       23 UNK        -0.0398 
    125 S125       -5.8977  -18.7779  -51.3603 S.3       23 UNK        -0.2404 
    126 C126       -5.0119  -17.4962  -50.4180 C.3       23 UNK        -0.0205 
    127 H127       -1.9098  -18.8724  -45.8781 H         1 UNK         0.0600 
    128 H128       -1.2405  -18.8002  -47.5120 H         1 UNK         0.0600 
    129 H129       -2.9550  -18.4982  -47.2491 H         1 UNK         0.0600 
    130 H130       -3.5170  -16.2965  -47.1858 H         1 UNK         0.3000 
    131 H131       -1.8103  -14.2741  -46.0288 H         1 UNK         0.0600 
    132 H132       -3.4538  -12.6476  -46.8264 H         1 UNK         0.0800 
    133 H133       -4.2257  -13.8226  -47.8452 H         1 UNK         0.0800 
    134 H134       -7.0727  -14.8416  -45.6309 H         1 UNK         0.0800 
    135 H135       -6.5994  -14.0211  -47.0954 H         1 UNK         0.0800 
    136 H136       -5.6767  -15.2943  -48.9689 H         1 UNK         0.1150 
    137 H137       -5.2174  -19.5369  -48.6039 H         1 UNK         0.1150 
    138 H138       -6.2779  -17.1986  -45.1752 H         1 UNK         0.1150 
    139 H139       -6.7246  -19.8629  -45.4350 H         1 UNK         0.0800 
    140 H140       -5.6504  -20.6464  -46.5732 H         1 UNK         0.0800 
    141 H141       -5.0903  -22.0269  -44.6443 H         1 UNK         0.0800 
    142 H142       -4.0767  -21.6201  -43.2944 H         1 UNK         0.0800 
    143 H143       -3.1440  -21.9193  -46.1899 H         1 UNK         0.0600 
    144 H144       -1.6840  -20.7744  -44.0104 H         1 UNK         0.3000 
    145 H145        1.5629  -21.6467  -45.1588 H         1 UNK         0.0600 
    146 H146        0.4571  -18.8159  -45.2437 H         1 UNK         0.0600 
    147 H147        2.1138  -19.3598  -45.4698 H         1 UNK         0.0600 
    148 H148        0.9079  -19.6973  -46.6960 H         1 UNK         0.0600 
    149 H149        0.2756  -19.8911  -43.1565 H         1 UNK         0.3000 
    150 H150        0.4951  -22.3483  -40.5982 H         1 UNK         0.0600 
    151 H151        2.8322  -21.4326  -40.5703 H         1 UNK         0.0600 
    152 H152        1.8150  -20.6590  -39.3654 H         1 UNK         0.0600 
    153 H153        2.2030  -19.8161  -40.8643 H         1 UNK         0.0600 
    154 H154       -0.2254  -19.5938  -40.5159 H         1 UNK         0.3000 
    155 H155       -3.4100  -19.7518  -41.9584 H         1 UNK         0.0600 
    156 H156       -3.9849  -20.8361  -39.7787 H         1 UNK         0.0600 
    157 H157       -4.3611  -19.1217  -39.7722 H         1 UNK         0.0600 
    158 H158       -2.9232  -19.7128  -38.9375 H         1 UNK         0.0600 
    159 H159       -2.4612  -17.7020  -40.3808 H         1 UNK         0.3000 
    160 H160       -1.9520  -15.6998  -41.8341 H         1 UNK         0.0600 
    161 H161        0.0850  -15.0769  -40.4712 H         1 UNK         0.0600 
    162 H162        0.7384  -16.6946  -40.6964 H         1 UNK         0.0600 
    163 H163       -0.7257  -16.4486  -39.7499 H         1 UNK         0.0600 
    164 H164        0.0778  -16.5429  -43.6765 H         1 UNK         0.3000 
    165 H165        0.5243  -14.3893  -45.4165 H         1 UNK         0.0600 
    166 H166        2.1364  -12.6436  -43.4949 H         1 UNK         0.0600 
    167 H167        2.3620  -12.7200  -45.2425 H         1 UNK         0.0600 
    168 H168        0.8562  -12.1103  -44.5768 H         1 UNK         0.0600 
    169 H169        2.1965  -15.8059  -45.3399 H         1 UNK         0.3000 
    170 H170        4.8706  -16.5179  -43.2012 H         1 UNK         0.0600 
    171 H171        2.3628  -18.2779  -43.3295 H         1 UNK         0.0600 
    172 H172        4.0059  -18.8884  -43.1161 H         1 UNK         0.0600 
    173 H173        3.2803  -17.8561  -41.8941 H         1 UNK         0.0600 
    174 H174        3.6580  -17.8615  -45.4712 H         1 UNK         0.3000 
    175 H175        6.0452  -16.8252  -47.6370 H         1 UNK         0.0600 
    176 H176        3.2645  -18.1215  -47.4890 H         1 UNK         0.0600 
    177 H177        4.4667  -18.3737  -48.7449 H         1 UNK         0.0600 
    178 H178        4.7920  -18.9177  -47.1106 H         1 UNK         0.0600 
    179 H179        5.0639  -15.2795  -48.8871 H         1 UNK         0.3000 
    180 H180        2.9643  -13.1217  -48.5044 H         1 UNK         0.0600 
    181 H181        3.7822  -14.8131  -50.9281 H         1 UNK         0.0600 
    182 H182        4.7896  -13.6749  -50.0373 H         1 UNK         0.0600 
    183 H183        3.4421  -13.0869  -50.9876 H         1 UNK         0.0600 
    184 H184        0.8415  -13.3300  -49.0708 H         1 UNK         0.3000 
    185 H185       -0.8629  -13.7201  -50.7747 H         1 UNK         0.0600 
    186 H186       -2.3726  -15.4512  -51.6669 H         1 UNK         0.0600 
    187 H187       -0.8034  -15.5892  -52.4449 H         1 UNK         0.0600 
    188 H188       -1.2614  -16.7322  -51.1880 H         1 UNK         0.0600 
    189 H189       -1.9467  -15.8094  -49.0897 H         1 UNK         0.3000 
    190 H190       -1.8845  -23.2491  -43.1338 H         1 UNK         0.3000 
    191 H191       -2.7139  -25.9402  -43.4572 H         1 UNK         0.0600 
    192 H192       -0.2818  -24.7763  -41.9961 H         1 UNK         0.0600 
    193 H193       -1.8965  -24.9684  -41.3169 H         1 UNK         0.0600 
    194 H194       -0.9500  -26.3849  -41.7484 H         1 UNK         0.0600 
    195 H195       -0.2263  -24.1677  -45.1166 H         1 UNK         0.3000 
    196 H196        1.0589  -26.5986  -46.2390 H         1 UNK         0.0600 
    197 H197        2.5160  -24.7396  -45.3369 H         1 UNK         0.0600 
    198 H198        1.8356  -23.6527  -46.5457 H         1 UNK         0.0600 
    199 H199        2.7701  -25.0529  -47.0461 H         1 UNK         0.0600 
    200 H200       -1.7498  -25.7294  -46.8027 H         1 UNK         0.3000 
    201 H201       -3.2221  -25.6807  -48.4424 H         1 UNK         0.0600 
    202 H202       -2.7033  -26.7934  -50.5867 H         1 UNK         0.0600 
    203 H203       -1.9983  -27.7011  -49.2591 H         1 UNK         0.0600 
    204 H204       -0.9772  -26.6850  -50.2751 H         1 UNK         0.0600 
    205 H205       -2.2818  -23.2788  -47.7833 H         1 UNK         0.3000 
    206 H206       -2.2227  -21.1102  -48.2973 H         1 UNK         0.0600 
    207 H207       -4.3454  -21.5538  -49.5522 H         1 UNK         0.0600 
    208 H208       -3.4203  -21.8438  -51.0222 H         1 UNK         0.0600 
    209 H209       -3.4052  -20.2557  -50.2752 H         1 UNK         0.0600 
    210 H210        0.0861  -22.2487  -48.3102 H         1 UNK         0.3000 
    211 H211        2.2177  -22.3344  -48.9350 H         1 UNK         0.0600 
    212 H212        2.0868  -19.8874  -48.6743 H         1 UNK         0.0600 
    213 H213        3.1992  -20.2772  -49.9723 H         1 UNK         0.0600 
    214 H214        1.5844  -19.6879  -50.3458 H         1 UNK         0.0600 
    215 H215        0.8991  -24.1240  -50.2612 H         1 UNK         0.3000 
    216 H216        0.6781  -25.4717  -51.9869 H         1 UNK         0.0600 
    217 H217        2.6209  -25.8227  -53.4746 H         1 UNK         0.0600 
    218 H218        3.3096  -24.2742  -53.0068 H         1 UNK         0.0600 
    219 H219        3.1643  -25.5731  -51.8234 H         1 UNK         0.0600 
    220 H220       -1.0396  -23.5566  -52.1921 H         1 UNK         0.3000 
    221 H221       -2.4540  -22.3847  -53.3940 H         1 UNK         0.0600 
    222 H222       -1.4902  -24.0974  -55.7464 H         1 UNK         0.0600 
    223 H223       -2.7154  -24.5609  -54.5662 H         1 UNK         0.0600 
    224 H224       -3.0109  -23.2179  -55.6588 H         1 UNK         0.0600 
    225 H225       -0.5733  -20.7420  -52.8232 H         1 UNK         0.3000 
    226 H226        0.8284  -19.5091  -55.0044 H         1 UNK         0.0600 
    227 H227        1.6274  -19.3328  -52.6936 H         1 UNK         0.0600 
    228 H228        1.2669  -17.7201  -53.2852 H         1 UNK         0.0600 
    229 H229        0.1475  -18.5172  -52.1881 H         1 UNK         0.0600 
    230 H230       -2.4840  -19.2931  -54.0225 H         1 UNK         0.3000 
    231 H231       -3.0911  -17.4288  -56.1383 H         1 UNK         0.0600 
    232 H232       -4.3946  -15.8739  -54.6549 H         1 UNK         0.0600 
    233 H233       -2.6971  -15.8342  -54.2211 H         1 UNK         0.0600 
    234 H234       -3.8380  -16.7426  -53.2287 H         1 UNK         0.0600 
    235 H235       -5.5313  -17.2846  -56.3250 H         1 UNK         0.3000 
    236 H236       -6.8165  -19.8720  -55.9605 H         1 UNK         0.0600 
    237 H237       -7.2214  -18.4930  -57.9880 H         1 UNK         0.0600 
    238 H238       -8.7191  -18.7341  -57.1035 H         1 UNK         0.0600 
    239 H239       -7.8825  -17.1896  -57.0004 H         1 UNK         0.0600 
    240 H240       -6.6283  -16.8920  -54.1887 H         1 UNK         0.3000 
    241 H241       -7.2892  -16.1989  -52.2273 H         1 UNK         0.0600 
    242 H242       -9.4705  -16.3602  -54.4989 H         1 UNK         0.3800 
    243 H243      -10.8972  -15.9077  -53.6028 H         1 UNK         0.3800 
    244 H244       -7.8363  -17.7212  -50.3963 H         1 UNK         0.0800 
    245 H245       -8.2774  -18.9869  -51.5058 H         1 UNK         0.0800 
    246 H246       -3.9430  -17.7065  -50.4710 H         1 UNK         0.0800 
    247 H247       -5.1580  -16.5336  -50.9100 H         1 UNK         0.0800 
@<TRIPOS>BOND
     1    1    2 1    
     2    1  127 1    
     3    1  128 1    
     4    1  129 1    
     5    2    3 2    
     6    2    4 am   BACKBONE|DICT|INTERRES
     7    4    5 1    
     8    4  130 1    
     9    5    6 1    
    10    5   65 1    
    11    5  131 1    
    12    6    7 1    
    13    6  132 1    
    14    6  133 1    
    15    7    8 1    
    16    8    9 1    
    17    8  134 1    
    18    8  135 1    
    19    9   10 ar   
    20    9   14 ar   
    21   10   11 ar   
    22   10  136 1    
    23   11   12 ar   
    24   11  126 1    
    25   12   13 ar   
    26   12  137 1    
    27   13   14 ar   
    28   13   15 1    
    29   14  138 1    
    30   15   16 1    
    31   15  139 1    
    32   15  140 1    
    33   16   17 1    
    34   17   18 1    
    35   17  141 1    
    36   17  142 1    
    37   18   19 1    
    38   18   67 1    
    39   18  143 1    
    40   19   20 am   BACKBONE|DICT|INTERRES
    41   19  144 1    
    42   20   21 2    
    43   20   22 1    
    44   22   23 1    
    45   22   24 1    
    46   22  145 1    
    47   23  146 1    
    48   23  147 1    
    49   23  148 1    
    50   24   25 am   BACKBONE|DICT|INTERRES
    51   24  149 1    
    52   25   26 2    
    53   25   27 1    
    54   27   28 1    
    55   27   29 1    
    56   27  150 1    
    57   28  151 1    
    58   28  152 1    
    59   28  153 1    
    60   29   30 am   BACKBONE|DICT|INTERRES
    61   29  154 1    
    62   30   31 2    
    63   30   32 1    
    64   32   33 1    
    65   32   34 1    
    66   32  155 1    
    67   33  156 1    
    68   33  157 1    
    69   33  158 1    
    70   34   35 am   BACKBONE|DICT|INTERRES
    71   34  159 1    
    72   35   36 2    
    73   35   37 1    
    74   37   38 1    
    75   37   39 1    
    76   37  160 1    
    77   38  161 1    
    78   38  162 1    
    79   38  163 1    
    80   39   40 am   BACKBONE|DICT|INTERRES
    81   39  164 1    
    82   40   41 2    
    83   40   42 1    
    84   42   43 1    
    85   42   44 1    
    86   42  165 1    
    87   43  166 1    
    88   43  167 1    
    89   43  168 1    
    90   44   45 am   BACKBONE|DICT|INTERRES
    91   44  169 1    
    92   45   46 2    
    93   45   47 1    
    94   47   48 1    
    95   47   49 1    
    96   47  170 1    
    97   48  171 1    
    98   48  172 1    
    99   48  173 1    
   100   49   50 am   BACKBONE|DICT|INTERRES
   101   49  174 1    
   102   50   51 2    
   103   50   52 1    
   104   52   53 1    
   105   52   54 1    
   106   52  175 1    
   107   53  176 1    
   108   53  177 1    
   109   53  178 1    
   110   54   55 am   BACKBONE|DICT|INTERRES
   111   54  179 1    
   112   55   56 2    
   113   55   57 1    
   114   57   58 1    
   115   57   59 1    
   116   57  180 1    
   117   58  181 1    
   118   58  182 1    
   119   58  183 1    
   120   59   60 am   BACKBONE|DICT|INTERRES
   121   59  184 1    
   122   60   61 2    
   123   60   62 1    
   124   62   63 1    
   125   62   64 1    
   126   62  185 1    
   127   63  186 1    
   128   63  187 1    
   129   63  188 1    
   130   64   65 am   BACKBONE|DICT|INTERRES
   131   64  189 1    
   132   65   66 2    
   133   67   68 2    
   134   67   69 am   BACKBONE|DICT|INTERRES
   135   69   70 1    
   136   69  190 1    
   137   70   71 1    
   138   70   72 1    
   139   70  191 1    
   140   71  192 1    
   141   71  193 1    
   142   71  194 1    
   143   72   73 2    
   144   72   74 am   BACKBONE|DICT|INTERRES
   145   74   75 1    
   146   74  195 1    
   147   75   76 1    
   148   75   77 1    
   149   75  196 1    
   150   76  197 1    
   151   76  198 1    
   152   76  199 1    
   153   77   78 2    
   154   77   79 am   BACKBONE|DICT|INTERRES
   155   79   80 1    
   156   79  200 1    
   157   80   81 1    
   158   80   82 1    
   159   80  201 1    
   160   81  202 1    
   161   81  203 1    
   162   81  204 1    
   163   82   83 2    
   164   82   84 am   BACKBONE|DICT|INTERRES
   165   84   85 1    
   166   84  205 1    
   167   85   86 1    
   168   85   87 1    
   169   85  206 1    
   170   86  207 1    
   171   86  208 1    
   172   86  209 1    
   173   87   88 2    
   174   87   89 am   BACKBONE|DICT|INTERRES
   175   89   90 1    
   176   89  210 1    
   177   90   91 1    
   178   90   92 1    
   179   90  211 1    
   180   91  212 1    
   181   91  213 1    
   182   91  214 1    
   183   92   93 2    
   184   92   94 am   BACKBONE|DICT|INTERRES
   185   94   95 1    
   186   94  215 1    
   187   95   96 1    
   188   95   97 1    
   189   95  216 1    
   190   96  217 1    
   191   96  218 1    
   192   96  219 1    
   193   97   98 2    
   194   97   99 am   BACKBONE|DICT|INTERRES
   195   99  100 1    
   196   99  220 1    
   197  100  101 1    
   198  100  102 1    
   199  100  221 1    
   200  101  222 1    
   201  101  223 1    
   202  101  224 1    
   203  102  103 2    
   204  102  104 am   BACKBONE|DICT|INTERRES
   205  104  105 1    
   206  104  225 1    
   207  105  106 1    
   208  105  107 1    
   209  105  226 1    
   210  106  227 1    
   211  106  228 1    
   212  106  229 1    
   213  107  108 2    
   214  107  109 am   BACKBONE|DICT|INTERRES
   215  109  110 1    
   216  109  230 1    
   217  110  111 1    
   218  110  112 1    
   219  110  231 1    
   220  111  232 1    
   221  111  233 1    
   222  111  234 1    
   223  112  113 2    
   224  112  114 am   BACKBONE|DICT|INTERRES
   225  114  115 1    
   226  114  235 1    
   227  115  116 1    
   228  115  117 1    
   229  115  236 1    
   230  116  237 1    
   231  116  238 1    
   232  116  239 1    
   233  117  118 2    
   234  117  119 am   BACKBONE|DICT|INTERRES
   235  119  120 1    
   236  119  240 1    
   237  120  121 1    
   238  120  124 1    
   239  120  241 1    
   240  121  122 am   BACKBONE|DICT|INTERRES
   241  121  123 2    
   242  122  242 1    
   243  122  243 1    
   244  124  125 1    
   245  124  244 1    
   246  124  245 1    
   247  125  126 1    
   248  126  246 1    
   249  126  247 1    
@<TRIPOS>SUBSTRUCTURE
     1 UNK         1 GROUP             0       ****    0 ROOT    
