@<TRIPOS>MOLECULE
3R540
247   249    1
SMALL
USER_CHARGES


@<TRIPOS>ATOM
      1 CA          6.4487  -15.0917  -43.2121 C.3       0 UNK        -0.1800 
      2 C           5.1375  -14.7967  -43.9235 C.2       0 UNK         0.5000 
      3 O           4.1429  -14.4811  -43.2662 O.2       0 UNK        -0.5000 
      4 N           5.1195  -14.9175  -45.2565 N.am      1 UNK        -0.5000 
      5 CA          3.9366  -14.6883  -46.0901 C.3       1 UNK         0.1400 
      6 C6          4.0612  -15.3607  -47.4802 C.3       23 UNK        -0.0398 
      7 S7          2.4374  -15.8594  -48.1344 S.3       23 UNK        -0.2404 
      8 C8          2.4850  -15.2215  -49.8368 C.3       23 UNK        -0.0205 
      9 C9          1.3672  -15.8491  -50.6534 C.ar      23 UNK        -0.0193 
     10 C10         0.2370  -15.1150  -51.0198 C.ar      23 UNK        -0.1150 
     11 C11        -0.8112  -15.7168  -51.7252 C.ar      23 UNK        -0.0193 
     12 C12        -0.7179  -17.0807  -52.0414 C.ar      23 UNK        -0.1150 
     13 C13         0.4003  -17.8327  -51.6705 C.ar      23 UNK        -0.0193 
     14 C14         1.4544  -17.1949  -51.0088 C.ar      23 UNK        -0.1150 
     15 C15         0.4255  -19.3320  -51.9759 C.3       23 UNK        -0.0205 
     16 S16         1.4420  -20.3326  -50.8300 S.3       23 UNK        -0.2404 
     17 C17         0.7034  -19.8954  -49.2164 C.3       23 UNK        -0.0398 
     18 CA          0.2521  -21.1252  -48.3999 C.3       11 UNK         0.1400 
     19 N           0.0140  -20.7799  -46.9982 N.am      11 UNK        -0.5000 
     20 C          -0.1842  -21.6673  -46.0143 C.2       10 UNK         0.5000 
     21 O          -0.1317  -22.8883  -46.1666 O.2       10 UNK        -0.5000 
     22 CA         -0.5488  -21.0825  -44.6388 C.3       10 UNK         0.1400 
     23 CB          0.7139  -20.6486  -43.8806 C.3       10 UNK        -0.1800 
     24 N          -1.4711  -19.9498  -44.7498 N.am      10 UNK        -0.5000 
     25 C          -2.7457  -20.0631  -45.1531 C.2       9 UNK         0.5000 
     26 O          -3.2767  -21.1363  -45.4362 O.2       9 UNK        -0.5000 
     27 CA         -3.5548  -18.7620  -45.3083 C.3       9 UNK         0.1400 
     28 CB         -4.1475  -18.3318  -43.9584 C.3       9 UNK        -0.1800 
     29 N          -2.7761  -17.6564  -45.8651 N.am      9 UNK        -0.5000 
     30 C          -2.1792  -17.6530  -47.0661 C.2       8 UNK         0.5000 
     31 O          -2.2447  -18.5862  -47.8628 O.2       8 UNK        -0.5000 
     32 CA         -1.3349  -16.4156  -47.4239 C.3       8 UNK         0.1400 
     33 CB         -2.1494  -15.4482  -48.2936 C.3       8 UNK        -0.1800 
     34 N          -0.8283  -15.6970  -46.2508 N.am      8 UNK        -0.5000 
     35 C           0.0257  -16.2070  -45.3527 C.2       7 UNK         0.5000 
     36 O           0.4987  -17.3432  -45.4410 O.2       7 UNK        -0.5000 
     37 CA          0.3876  -15.2774  -44.1747 C.3       7 UNK         0.1400 
     38 CB         -0.8666  -14.8203  -43.3975 C.3       7 UNK        -0.1800 
     39 N           1.3838  -15.8429  -43.2587 N.am      7 UNK        -0.5000 
     40 C           1.2557  -16.9249  -42.4712 C.2       6 UNK         0.5000 
     41 O           0.2274  -17.5941  -42.3652 O.2       6 UNK        -0.5000 
     42 CA          2.4871  -17.2968  -41.6295 C.3       6 UNK         0.1400 
     43 CB          3.5068  -18.0754  -42.4761 C.3       6 UNK        -0.1800 
     44 N           3.1142  -16.0842  -41.1088 N.am      6 UNK        -0.5000 
     45 C           2.9557  -15.6078  -39.8681 C.2       5 UNK         0.5000 
     46 O           2.3940  -16.2159  -38.9565 O.2       5 UNK        -0.5000 
     47 CA          3.4818  -14.1827  -39.6282 C.3       5 UNK         0.1400 
     48 CB          5.0083  -14.1794  -39.4517 C.3       5 UNK        -0.1800 
     49 N           3.1233  -13.3040  -40.7401 N.am      5 UNK        -0.5000 
     50 C           1.9084  -12.7765  -40.9432 C.2       4 UNK         0.5000 
     51 O           0.9705  -12.9089  -40.1556 O.2       4 UNK        -0.5000 
     52 CA          1.7075  -11.9915  -42.2587 C.3       4 UNK         0.1400 
     53 CB          0.6344  -10.8894  -42.1476 C.3       4 UNK        -0.1800 
     54 N           2.9544  -11.4663  -42.8251 N.am      4 UNK        -0.5000 
     55 C           3.7740  -10.5467  -42.2908 C.2       3 UNK         0.5000 
     56 O           3.5516   -9.9578  -41.2327 O.2       3 UNK        -0.5000 
     57 CA          5.0876  -10.2594  -43.0456 C.3       3 UNK         0.1400 
     58 CB          6.2752  -10.8801  -42.2928 C.3       3 UNK        -0.1800 
     59 N           5.0857  -10.7709  -44.4178 N.am      3 UNK        -0.5000 
     60 C           4.4615  -10.1881  -45.4506 C.2       2 UNK         0.5000 
     61 O           3.8590   -9.1174  -45.3714 O.2       2 UNK        -0.5000 
     62 CA          4.5031  -10.9422  -46.7931 C.3       2 UNK         0.1400 
     63 CB          5.6745  -10.4456  -47.6540 C.3       2 UNK        -0.1800 
     64 N           4.6084  -12.3960  -46.6334 N.am      2 UNK        -0.5000 
     65 C           3.6176  -13.1846  -46.1918 C.2       1 UNK         0.5000 
     66 O           2.5204  -12.7645  -45.8246 O.2       1 UNK        -0.5000 
     67 C          -0.9797  -21.8138  -49.0184 C.2       11 UNK         0.5000 
     68 O          -0.8339  -22.8678  -49.6340 O.2       11 UNK        -0.5000 
     69 N          -2.1703  -21.2422  -48.7905 N.am      12 UNK        -0.5000 
     70 CA         -3.4551  -21.7874  -49.2218 C.3       12 UNK         0.1400 
     71 CB         -4.5784  -20.8025  -48.8698 C.3       12 UNK        -0.1800 
     72 C          -3.7366  -23.1766  -48.6256 C.2       12 UNK         0.5000 
     73 O          -4.1431  -24.0738  -49.3611 O.2       12 UNK        -0.5000 
     74 N          -3.4789  -23.3492  -47.3210 N.am      13 UNK        -0.5000 
     75 CA         -3.6011  -24.6273  -46.6176 C.3       13 UNK         0.1400 
     76 CB         -3.3285  -24.4274  -45.1193 C.3       13 UNK        -0.1800 
     77 C          -2.6872  -25.7194  -47.2032 C.2       13 UNK         0.5000 
     78 O          -3.1559  -26.8335  -47.4439 O.2       13 UNK        -0.5000 
     79 N          -1.4196  -25.3645  -47.4617 N.am      14 UNK        -0.5000 
     80 CA         -0.4309  -26.2287  -48.1089 C.3       14 UNK         0.1400 
     81 CB          0.9537  -25.5671  -48.0375 C.3       14 UNK        -0.1800 
     82 C          -0.8002  -26.5755  -49.5640 C.2       14 UNK         0.5000 
     83 O          -0.6355  -27.7247  -49.9771 O.2       14 UNK        -0.5000 
     84 N          -1.3311  -25.5939  -50.3038 N.am      15 UNK        -0.5000 
     85 CA         -1.8307  -25.7148  -51.6733 C.3       15 UNK         0.1400 
     86 CB         -1.8471  -24.3217  -52.3223 C.3       15 UNK        -0.1800 
     87 C          -3.2077  -26.4085  -51.7368 C.2       15 UNK         0.5000 
     88 O          -4.1799  -25.8213  -52.2173 O.2       15 UNK        -0.5000 
     89 N          -3.2490  -27.6569  -51.2504 N.am      16 UNK        -0.5000 
     90 CA         -4.3573  -28.6145  -51.3131 C.3       16 UNK         0.1400 
     91 CB         -4.4800  -29.1732  -52.7454 C.3       16 UNK        -0.1800 
     92 C          -5.6927  -28.0753  -50.7571 C.2       16 UNK         0.5000 
     93 O          -6.7473  -28.3258  -51.3436 O.2       16 UNK        -0.5000 
     94 N          -5.6130  -27.3527  -49.6292 N.am      17 UNK        -0.5000 
     95 CA         -6.7217  -26.7105  -48.9174 C.3       17 UNK         0.1400 
     96 CB         -7.6689  -27.7647  -48.3066 C.3       17 UNK        -0.1800 
     97 C          -7.4505  -25.6650  -49.7879 C.2       17 UNK         0.5000 
     98 O          -8.6456  -25.7959  -50.0600 O.2       17 UNK        -0.5000 
     99 N          -6.6926  -24.6381  -50.1901 N.am      18 UNK        -0.5000 
    100 CA        -7.0985  -23.4570  -50.9499 C.3       18 UNK         0.1400 
    101 CB        -8.1392  -22.6260  -50.1690 C.3       18 UNK        -0.1800 
    102 C         -7.5295  -23.7812  -52.3911 C.2       18 UNK         0.5000 
    103 O         -8.5552  -23.2797  -52.8582 O.2       18 UNK        -0.5000 
    104 N         -6.7195  -24.5821  -53.0974 N.am      19 UNK        -0.5000 
    105 CA        -6.8833  -24.8724  -54.5230 C.3       19 UNK         0.1400 
    106 CB        -6.1380  -26.1721  -54.8685 C.3       19 UNK        -0.1800 
    107 C         -6.4224  -23.6750  -55.3809 C.2       19 UNK         0.5000 
    108 O         -5.3479  -23.7142  -55.9810 O.2       19 UNK        -0.5000 
    109 N         -7.2304  -22.6057  -55.3683 N.am      20 UNK        -0.5000 
    110 CA        -7.1081  -21.3266  -56.0852 C.3       20 UNK         0.1400 
    111 CB        -7.0513  -21.5471  -57.6093 C.3       20 UNK        -0.1800 
    112 C         -5.9652  -20.3999  -55.6169 C.2       20 UNK         0.5000 
    113 O         -6.0413  -19.1938  -55.8570 O.2       20 UNK        -0.5000 
    114 N         -4.9433  -20.9444  -54.9464 N.am      21 UNK        -0.5000 
    115 CA        -3.7638  -20.2387  -54.4410 C.3       21 UNK         0.1400 
    116 CB        -2.6375  -21.2652  -54.2363 C.3       21 UNK        -0.1800 
    117 C         -4.0612  -19.4268  -53.1618 C.2       21 UNK         0.5000 
    118 O         -3.5077  -19.7176  -52.1013 O.2       21 UNK        -0.5000 
    119 N         -4.9409  -18.4271  -53.2924 N.am      22 UNK        -0.5000 
    120 CA        -5.3588  -17.4739  -52.2457 C.3       22 UNK         0.1400 
    121 C         -6.2217  -18.0904  -51.1026 C.2       22 UNK         0.5000 
    122 N         -6.7882  -19.2785  -51.2709 N.am      22 UNK        -0.7600 
    123 O         -6.4196  -17.4690  -50.0622 O.2       22 UNK        -0.5000 
    124 C124       -4.1905  -16.5990  -51.7065 C.3       23 UNK        -0.0398 
    125 S125       -3.3559  -15.6622  -53.0338 S.3       23 UNK        -0.2404 
    126 C126       -2.0103  -14.8438  -52.1081 C.3       23 UNK        -0.0205 
    127 H127        7.2359  -15.3702  -43.9128 H         1 UNK         0.0600 
    128 H128        6.3132  -15.9136  -42.5090 H         1 UNK         0.0600 
    129 H129        6.7830  -14.2177  -42.6551 H         1 UNK         0.0600 
    130 H130        5.9641  -15.1879  -45.7406 H         1 UNK         0.3000 
    131 H131        3.1009  -15.1612  -45.5702 H         1 UNK         0.0600 
    132 H132        4.5919  -14.7316  -48.1969 H         1 UNK         0.0800 
    133 H133        4.6485  -16.2766  -47.4004 H         1 UNK         0.0800 
    134 H134        2.4011  -14.1337  -49.8231 H         1 UNK         0.0800 
    135 H135        3.4449  -15.4611  -50.2969 H         1 UNK         0.0800 
    136 H136        0.1685  -14.0708  -50.7479 H         1 UNK         0.1150 
    137 H137       -1.5176  -17.5790  -52.5683 H         1 UNK         0.1150 
    138 H138        2.3345  -17.7507  -50.7199 H         1 UNK         0.1150 
    139 H139       -0.5916  -19.7279  -51.9517 H         1 UNK         0.0800 
    140 H140        0.7936  -19.4770  -52.9920 H         1 UNK         0.0800 
    141 H141       -0.1265  -19.2009  -49.3532 H         1 UNK         0.0800 
    142 H142        1.4622  -19.3416  -48.6613 H         1 UNK         0.0800 
    143 H143        1.0692  -21.8502  -48.4088 H         1 UNK         0.0600 
    144 H144       -0.0787  -19.7979  -46.7803 H         1 UNK         0.3000 
    145 H145       -1.0392  -21.8690  -44.0612 H         1 UNK         0.0600 
    146 H146        0.4715  -20.3198  -42.8700 H         1 UNK         0.0600 
    147 H147        1.4213  -21.4741  -43.7923 H         1 UNK         0.0600 
    148 H148        1.2253  -19.8285  -44.3859 H         1 UNK         0.0600 
    149 H149       -1.0908  -19.0319  -44.5578 H         1 UNK         0.3000 
    150 H150       -4.3789  -18.9641  -45.9952 H         1 UNK         0.0600 
    151 H151       -4.7489  -19.1315  -43.5238 H         1 UNK         0.0600 
    152 H152       -4.7966  -17.4633  -44.0708 H         1 UNK         0.0600 
    153 H153       -3.3679  -18.0785  -43.2384 H         1 UNK         0.0600 
    154 H154       -2.6623  -16.8440  -45.2782 H         1 UNK         0.3000 
    155 H155       -0.4788  -16.7620  -48.0067 H         1 UNK         0.0600 
    156 H156       -2.5193  -15.9515  -49.1873 H         1 UNK         0.0600 
    157 H157       -1.5406  -14.6065  -48.6237 H         1 UNK         0.0600 
    158 H158       -3.0131  -15.0520  -47.7586 H         1 UNK         0.0600 
    159 H159       -1.1614  -14.7517  -46.1299 H         1 UNK         0.3000 
    160 H160        0.8510  -14.3940  -44.6120 H         1 UNK         0.0600 
    161 H161       -1.4680  -15.6658  -43.0619 H         1 UNK         0.0600 
    162 H162       -1.5081  -14.1891  -44.0128 H         1 UNK         0.0600 
    163 H163       -0.5974  -14.2371  -42.5169 H         1 UNK         0.0600 
    164 H164        2.2892  -15.3901  -43.2824 H         1 UNK         0.3000 
    165 H165        2.1605  -17.9407  -40.8102 H         1 UNK         0.0600 
    166 H166        4.3926  -18.3263  -41.8925 H         1 UNK         0.0600 
    167 H167        3.0783  -19.0115  -42.8351 H         1 UNK         0.0600 
    168 H168        3.8304  -17.5083  -43.3494 H         1 UNK         0.0600 
    169 H169        3.5733  -15.4877  -41.7896 H         1 UNK         0.3000 
    170 H170        3.0292  -13.7991  -38.7113 H         1 UNK         0.0600 
    171 H171        5.5209  -14.5455  -40.3417 H         1 UNK         0.0600 
    172 H172        5.3774  -13.1749  -39.2433 H         1 UNK         0.0600 
    173 H173        5.3049  -14.8151  -38.6166 H         1 UNK         0.0600 
    174 H174        3.8088  -13.1956  -41.4750 H         1 UNK         0.3000 
    175 H175        1.3467  -12.7193  -42.9840 H         1 UNK         0.0600 
    176 H176        0.5153  -10.3596  -43.0928 H         1 UNK         0.0600 
    177 H177        0.8822  -10.1565  -41.3796 H         1 UNK         0.0600 
    178 H178       -0.3368  -11.3143  -41.8913 H         1 UNK         0.0600 
    179 H179        3.2302  -11.8837  -43.7039 H         1 UNK         0.3000 
    180 H180        5.2254   -9.1764  -43.0723 H         1 UNK         0.0600 
    181 H181        7.2183  -10.6706  -42.7979 H         1 UNK         0.0600 
    182 H182        6.1728  -11.9614  -42.2024 H         1 UNK         0.0600 
    183 H183        6.3523  -10.4748  -41.2830 H         1 UNK         0.0600 
    184 H184        5.5666  -11.6427  -44.5802 H         1 UNK         0.3000 
    185 H185        3.5736  -10.7226  -47.3229 H         1 UNK         0.0600 
    186 H186        5.6120   -9.3684  -47.8143 H         1 UNK         0.0600 
    187 H187        6.6368  -10.6521  -47.1840 H         1 UNK         0.0600 
    188 H188        5.6709  -10.9191  -48.6360 H         1 UNK         0.0600 
    189 H189        5.4918  -12.8138  -46.8872 H         1 UNK         0.3000 
    190 H190       -2.2002  -20.3421  -48.3155 H         1 UNK         0.3000 
    191 H191       -3.4211  -21.8888  -50.3082 H         1 UNK         0.0600 
    192 H192       -5.5415  -21.1625  -49.2307 H         1 UNK         0.0600 
    193 H193       -4.6644  -20.6532  -47.7939 H         1 UNK         0.0600 
    194 H194       -4.4027  -19.8294  -49.3290 H         1 UNK         0.0600 
    195 H195       -3.1947  -22.5484  -46.7637 H         1 UNK         0.3000 
    196 H196       -4.6329  -24.9648  -46.7281 H         1 UNK         0.0600 
    197 H197       -3.4172  -25.3692  -44.5764 H         1 UNK         0.0600 
    198 H198       -4.0422  -23.7308  -44.6794 H         1 UNK         0.0600 
    199 H199       -2.3267  -24.0368  -44.9393 H         1 UNK         0.0600 
    200 H200       -1.1134  -24.4289  -47.2165 H         1 UNK         0.3000 
    201 H201       -0.3883  -27.1641  -47.5472 H         1 UNK         0.0600 
    202 H202        1.2516  -25.3884  -47.0042 H         1 UNK         0.0600 
    203 H203        0.9714  -24.6098  -48.5591 H         1 UNK         0.0600 
    204 H204        1.7147  -26.2031  -48.4911 H         1 UNK         0.0600 
    205 H205       -1.3915  -24.6643  -49.8960 H         1 UNK         0.3000 
    206 H206       -1.1336  -26.3328  -52.2425 H         1 UNK         0.0600 
    207 H207       -0.8552  -23.8695  -52.3176 H         1 UNK         0.0600 
    208 H208       -2.1753  -24.3769  -53.3610 H         1 UNK         0.0600 
    209 H209       -2.5236  -23.6486  -51.7950 H         1 UNK         0.0600 
    210 H210       -2.3927  -28.0023  -50.8270 H         1 UNK         0.3000 
    211 H211       -4.0791  -29.4443  -50.6620 H         1 UNK         0.0600 
    212 H212       -4.7452  -28.3942  -53.4592 H         1 UNK         0.0600 
    213 H213       -5.2434  -29.9498  -52.8043 H         1 UNK         0.0600 
    214 H214       -3.5416  -29.6197  -53.0742 H         1 UNK         0.0600 
    215 H215       -4.6928  -27.1853  -49.2412 H         1 UNK         0.3000 
    216 H216       -6.2739  -26.1618  -48.0881 H         1 UNK         0.0600 
    217 H217       -8.4376  -27.2882  -47.6971 H         1 UNK         0.0600 
    218 H218       -7.1253  -28.4551  -47.6617 H         1 UNK         0.0600 
    219 H219       -8.1782  -28.3512  -49.0716 H         1 UNK         0.0600 
    220 H220       -5.7060  -24.6429  -49.9294 H         1 UNK         0.3000 
    221 H221       -6.2018  -22.8428  -51.0439 H         1 UNK         0.0600 
    222 H222       -9.0849  -23.1570  -50.0590 H         1 UNK         0.0600 
    223 H223       -7.7773  -22.3763  -49.1716 H         1 UNK         0.0600 
    224 H224       -8.3553  -21.6886  -50.6813 H         1 UNK         0.0600 
    225 H225       -5.8825  -24.9600  -52.6585 H         1 UNK         0.3000 
    226 H226       -7.9420  -25.0421  -54.7306 H         1 UNK         0.0600 
    227 H227       -6.5096  -27.0041  -54.2702 H         1 UNK         0.0600 
    228 H228       -6.2801  -26.4356  -55.9171 H         1 UNK         0.0600 
    229 H229       -5.0650  -26.0849  -54.6958 H         1 UNK         0.0600 
    230 H230       -8.0306  -22.6671  -54.7461 H         1 UNK         0.3000 
    231 H231       -8.0326  -20.7886  -55.8706 H         1 UNK         0.0600 
    232 H232       -6.1331  -22.0490  -57.9152 H         1 UNK         0.0600 
    233 H233       -7.0923  -20.5959  -58.1416 H         1 UNK         0.0600 
    234 H234       -7.8938  -22.1471  -57.9533 H         1 UNK         0.0600 
    235 H235       -4.9438  -21.9512  -54.8455 H         1 UNK         0.3000 
    236 H236       -3.4295  -19.5303  -55.2019 H         1 UNK         0.0600 
    237 H237       -2.4122  -21.7976  -55.1605 H         1 UNK         0.0600 
    238 H238       -1.7176  -20.7812  -53.9072 H         1 UNK         0.0600 
    239 H239       -2.9119  -22.0018  -53.4827 H         1 UNK         0.0600 
    240 H240       -5.3765  -18.3082  -54.2015 H         1 UNK         0.3000 
    241 H241       -6.0478  -16.7956  -52.7497 H         1 UNK         0.0600 
    242 H242       -6.6520  -19.7902  -52.1260 H         1 UNK         0.3800 
    243 H243       -7.3669  -19.6506  -50.5366 H         1 UNK         0.3800 
    244 H244       -4.5602  -15.8725  -50.9811 H         1 UNK         0.0800 
    245 H245       -3.4644  -17.2147  -51.1745 H         1 UNK         0.0800 
    246 H246       -1.6440  -14.0204  -52.7227 H         1 UNK         0.0800 
    247 H247       -2.4276  -14.3889  -51.2088 H         1 UNK         0.0800 
@<TRIPOS>BOND
     1    1    2 1    
     2    1  127 1    
     3    1  128 1    
     4    1  129 1    
     5    2    3 2    
     6    2    4 am   BACKBONE|DICT|INTERRES
     7    4    5 1    
     8    4  130 1    
     9    5    6 1    
    10    5   65 1    
    11    5  131 1    
    12    6    7 1    
    13    6  132 1    
    14    6  133 1    
    15    7    8 1    
    16    8    9 1    
    17    8  134 1    
    18    8  135 1    
    19    9   10 ar   
    20    9   14 ar   
    21   10   11 ar   
    22   10  136 1    
    23   11   12 ar   
    24   11  126 1    
    25   12   13 ar   
    26   12  137 1    
    27   13   14 ar   
    28   13   15 1    
    29   14  138 1    
    30   15   16 1    
    31   15  139 1    
    32   15  140 1    
    33   16   17 1    
    34   17   18 1    
    35   17  141 1    
    36   17  142 1    
    37   18   19 1    
    38   18   67 1    
    39   18  143 1    
    40   19   20 am   BACKBONE|DICT|INTERRES
    41   19  144 1    
    42   20   21 2    
    43   20   22 1    
    44   22   23 1    
    45   22   24 1    
    46   22  145 1    
    47   23  146 1    
    48   23  147 1    
    49   23  148 1    
    50   24   25 am   BACKBONE|DICT|INTERRES
    51   24  149 1    
    52   25   26 2    
    53   25   27 1    
    54   27   28 1    
    55   27   29 1    
    56   27  150 1    
    57   28  151 1    
    58   28  152 1    
    59   28  153 1    
    60   29   30 am   BACKBONE|DICT|INTERRES
    61   29  154 1    
    62   30   31 2    
    63   30   32 1    
    64   32   33 1    
    65   32   34 1    
    66   32  155 1    
    67   33  156 1    
    68   33  157 1    
    69   33  158 1    
    70   34   35 am   BACKBONE|DICT|INTERRES
    71   34  159 1    
    72   35   36 2    
    73   35   37 1    
    74   37   38 1    
    75   37   39 1    
    76   37  160 1    
    77   38  161 1    
    78   38  162 1    
    79   38  163 1    
    80   39   40 am   BACKBONE|DICT|INTERRES
    81   39  164 1    
    82   40   41 2    
    83   40   42 1    
    84   42   43 1    
    85   42   44 1    
    86   42  165 1    
    87   43  166 1    
    88   43  167 1    
    89   43  168 1    
    90   44   45 am   BACKBONE|DICT|INTERRES
    91   44  169 1    
    92   45   46 2    
    93   45   47 1    
    94   47   48 1    
    95   47   49 1    
    96   47  170 1    
    97   48  171 1    
    98   48  172 1    
    99   48  173 1    
   100   49   50 am   BACKBONE|DICT|INTERRES
   101   49  174 1    
   102   50   51 2    
   103   50   52 1    
   104   52   53 1    
   105   52   54 1    
   106   52  175 1    
   107   53  176 1    
   108   53  177 1    
   109   53  178 1    
   110   54   55 am   BACKBONE|DICT|INTERRES
   111   54  179 1    
   112   55   56 2    
   113   55   57 1    
   114   57   58 1    
   115   57   59 1    
   116   57  180 1    
   117   58  181 1    
   118   58  182 1    
   119   58  183 1    
   120   59   60 am   BACKBONE|DICT|INTERRES
   121   59  184 1    
   122   60   61 2    
   123   60   62 1    
   124   62   63 1    
   125   62   64 1    
   126   62  185 1    
   127   63  186 1    
   128   63  187 1    
   129   63  188 1    
   130   64   65 am   BACKBONE|DICT|INTERRES
   131   64  189 1    
   132   65   66 2    
   133   67   68 2    
   134   67   69 am   BACKBONE|DICT|INTERRES
   135   69   70 1    
   136   69  190 1    
   137   70   71 1    
   138   70   72 1    
   139   70  191 1    
   140   71  192 1    
   141   71  193 1    
   142   71  194 1    
   143   72   73 2    
   144   72   74 am   BACKBONE|DICT|INTERRES
   145   74   75 1    
   146   74  195 1    
   147   75   76 1    
   148   75   77 1    
   149   75  196 1    
   150   76  197 1    
   151   76  198 1    
   152   76  199 1    
   153   77   78 2    
   154   77   79 am   BACKBONE|DICT|INTERRES
   155   79   80 1    
   156   79  200 1    
   157   80   81 1    
   158   80   82 1    
   159   80  201 1    
   160   81  202 1    
   161   81  203 1    
   162   81  204 1    
   163   82   83 2    
   164   82   84 am   BACKBONE|DICT|INTERRES
   165   84   85 1    
   166   84  205 1    
   167   85   86 1    
   168   85   87 1    
   169   85  206 1    
   170   86  207 1    
   171   86  208 1    
   172   86  209 1    
   173   87   88 2    
   174   87   89 am   BACKBONE|DICT|INTERRES
   175   89   90 1    
   176   89  210 1    
   177   90   91 1    
   178   90   92 1    
   179   90  211 1    
   180   91  212 1    
   181   91  213 1    
   182   91  214 1    
   183   92   93 2    
   184   92   94 am   BACKBONE|DICT|INTERRES
   185   94   95 1    
   186   94  215 1    
   187   95   96 1    
   188   95   97 1    
   189   95  216 1    
   190   96  217 1    
   191   96  218 1    
   192   96  219 1    
   193   97   98 2    
   194   97   99 am   BACKBONE|DICT|INTERRES
   195   99  100 1    
   196   99  220 1    
   197  100  101 1    
   198  100  102 1    
   199  100  221 1    
   200  101  222 1    
   201  101  223 1    
   202  101  224 1    
   203  102  103 2    
   204  102  104 am   BACKBONE|DICT|INTERRES
   205  104  105 1    
   206  104  225 1    
   207  105  106 1    
   208  105  107 1    
   209  105  226 1    
   210  106  227 1    
   211  106  228 1    
   212  106  229 1    
   213  107  108 2    
   214  107  109 am   BACKBONE|DICT|INTERRES
   215  109  110 1    
   216  109  230 1    
   217  110  111 1    
   218  110  112 1    
   219  110  231 1    
   220  111  232 1    
   221  111  233 1    
   222  111  234 1    
   223  112  113 2    
   224  112  114 am   BACKBONE|DICT|INTERRES
   225  114  115 1    
   226  114  235 1    
   227  115  116 1    
   228  115  117 1    
   229  115  236 1    
   230  116  237 1    
   231  116  238 1    
   232  116  239 1    
   233  117  118 2    
   234  117  119 am   BACKBONE|DICT|INTERRES
   235  119  120 1    
   236  119  240 1    
   237  120  121 1    
   238  120  124 1    
   239  120  241 1    
   240  121  122 am   BACKBONE|DICT|INTERRES
   241  121  123 2    
   242  122  242 1    
   243  122  243 1    
   244  124  125 1    
   245  124  244 1    
   246  124  245 1    
   247  125  126 1    
   248  126  246 1    
   249  126  247 1    
@<TRIPOS>SUBSTRUCTURE
     1 UNK         1 GROUP             0       ****    0 ROOT    
