@<TRIPOS>MOLECULE
3R540
247   249    1
SMALL
USER_CHARGES


@<TRIPOS>ATOM
      1 CA         -5.5688  -10.2034  -47.1185 C.3       0 UNK        -0.1800 
      2 C          -4.7620  -11.2549  -46.3698 C.2       0 UNK         0.5000 
      3 O          -4.7676  -11.2642  -45.1390 O.2       0 UNK        -0.5000 
      4 N          -4.0688  -12.1306  -47.1118 N.am      1 UNK        -0.5000 
      5 CA         -3.2351  -13.2354  -46.6111 C.3       1 UNK         0.1400 
      6 C6         -4.0322  -14.3356  -45.8542 C.3       23 UNK        -0.0398 
      7 S7         -5.4067  -15.0480  -46.8217 S.3       23 UNK        -0.2404 
      8 C8         -4.5400  -16.3364  -47.7704 C.3       23 UNK        -0.0205 
      9 C9         -5.5124  -17.3309  -48.3851 C.ar      23 UNK        -0.0193 
     10 C10        -6.3392  -16.9554  -49.4471 C.ar      23 UNK        -0.1150 
     11 C11        -7.2276  -17.8746  -50.0134 C.ar      23 UNK        -0.0193 
     12 C12        -7.2856  -19.1782  -49.5092 C.ar      23 UNK        -0.1150 
     13 C13        -6.4447  -19.5724  -48.4661 C.ar      23 UNK        -0.0193 
     14 C14        -5.5653  -18.6421  -47.9072 C.ar      23 UNK        -0.1150 
     15 C15        -6.4640  -21.0060  -47.9593 C.3       23 UNK        -0.0205 
     16 S16        -5.3869  -22.0520  -48.9853 S.3       23 UNK        -0.2404 
     17 C17        -4.8915  -23.3762  -47.8347 C.3       23 UNK        -0.0398 
     18 CA         -3.4880  -23.1041  -47.2384 C.3       11 UNK         0.1400 
     19 N          -3.5135  -22.0538  -46.2155 N.am      11 UNK        -0.5000 
     20 C          -2.4305  -21.4962  -45.6606 C.2       10 UNK         0.5000 
     21 O          -1.2779  -21.8210  -45.9541 O.2       10 UNK        -0.5000 
     22 CA         -2.6590  -20.4256  -44.5784 C.3       10 UNK         0.1400 
     23 CB         -4.1419  -20.1348  -44.2486 C.3       10 UNK        -0.1800 
     24 N          -1.9189  -20.7388  -43.3587 N.am      10 UNK        -0.5000 
     25 C          -2.1083  -21.7875  -42.5458 C.2       9 UNK         0.5000 
     26 O          -2.9139  -22.6885  -42.7840 O.2       9 UNK        -0.5000 
     27 CA         -1.2647  -21.8472  -41.2531 C.3       9 UNK         0.1400 
     28 CB         -0.7410  -23.2682  -40.9786 C.3       9 UNK        -0.1800 
     29 N          -0.1465  -20.8950  -41.2453 N.am      9 UNK        -0.5000 
     30 C          -0.2453  -19.6012  -40.9062 C.2       8 UNK         0.5000 
     31 O          -1.2994  -19.0847  -40.5331 O.2       8 UNK        -0.5000 
     32 CA          1.0240  -18.7319  -41.0146 C.3       8 UNK         0.1400 
     33 CB          2.2922  -19.5088  -41.4260 C.3       8 UNK        -0.1800 
     34 N           0.7922  -17.6499  -41.9718 N.am      8 UNK        -0.5000 
     35 C           0.3411  -16.4264  -41.6570 C.2       7 UNK         0.5000 
     36 O           0.1220  -16.0622  -40.5004 O.2       7 UNK        -0.5000 
     37 CA          0.1186  -15.4172  -42.8045 C.3       7 UNK         0.1400 
     38 CB          1.1444  -14.2749  -42.7216 C.3       7 UNK        -0.1800 
     39 N           0.1910  -16.0067  -44.1412 N.am      7 UNK        -0.5000 
     40 C          -0.7818  -16.7209  -44.7219 C.2       6 UNK         0.5000 
     41 O          -1.8657  -16.9687  -44.1951 O.2       6 UNK        -0.5000 
     42 CA         -0.4580  -17.3076  -46.1102 C.3       6 UNK         0.1400 
     43 CB         -0.6522  -16.2560  -47.2098 C.3       6 UNK        -0.1800 
     44 N           0.9000  -17.8448  -46.1972 N.am      6 UNK        -0.5000 
     45 C           1.4288  -18.7850  -45.4042 C.2       5 UNK         0.5000 
     46 O           0.8015  -19.3400  -44.5021 O.2       5 UNK        -0.5000 
     47 CA          2.9253  -19.1081  -45.5926 C.3       5 UNK         0.1400 
     48 CB          3.1408  -20.1361  -46.7176 C.3       5 UNK        -0.1800 
     49 N           3.7700  -17.9148  -45.7622 N.am      5 UNK        -0.5000 
     50 C           3.8045  -17.0595  -46.7933 C.2       4 UNK         0.5000 
     51 O           3.1697  -17.2123  -47.8399 O.2       4 UNK        -0.5000 
     52 CA          4.6527  -15.7879  -46.5977 C.3       4 UNK         0.1400 
     53 CB          6.0377  -15.9588  -47.2392 C.3       4 UNK        -0.1800 
     54 N           3.9986  -14.6096  -47.1721 N.am      4 UNK        -0.5000 
     55 C           2.7931  -14.1494  -46.8097 C.2       3 UNK         0.5000 
     56 O           2.1396  -14.6162  -45.8727 O.2       3 UNK        -0.5000 
     57 CA          2.2202  -13.0130  -47.6817 C.3       3 UNK         0.1400 
     58 CB          1.8094  -13.5436  -49.0658 C.3       3 UNK        -0.1800 
     59 N           1.0555  -12.3560  -47.0900 N.am      3 UNK        -0.5000 
     60 C           1.0659  -11.5609  -46.0128 C.2       2 UNK         0.5000 
     61 O           2.0882  -11.2664  -45.3915 O.2       2 UNK        -0.5000 
     62 CA         -0.2864  -10.9592  -45.5750 C.3       2 UNK         0.1400 
     63 CB         -0.3271   -9.4523  -45.8760 C.3       2 UNK        -0.1800 
     64 N          -1.4436  -11.5916  -46.2181 N.am      2 UNK        -0.5000 
     65 C          -2.0137  -12.7317  -45.8032 C.2       1 UNK         0.5000 
     66 O          -1.6100  -13.3672  -44.8311 O.2       1 UNK        -0.5000 
     67 C          -2.8180  -24.4088  -46.7564 C.2       11 UNK         0.5000 
     68 O          -2.2945  -25.1388  -47.5971 O.2       11 UNK        -0.5000 
     69 N          -2.7949  -24.6652  -45.4389 N.am      12 UNK        -0.5000 
     70 CA         -2.0965  -25.8089  -44.8478 C.3       12 UNK         0.1400 
     71 CB         -2.6394  -26.0750  -43.4360 C.3       12 UNK        -0.1800 
     72 C          -0.5665  -25.6241  -44.8168 C.2       12 UNK         0.5000 
     73 O           0.1569  -26.6136  -44.9311 O.2       12 UNK        -0.5000 
     74 N          -0.0972  -24.3743  -44.6832 N.am      13 UNK        -0.5000 
     75 CA          1.3246  -24.0248  -44.7457 C.3       13 UNK         0.1400 
     76 CB          1.5865  -22.7131  -43.9863 C.3       13 UNK        -0.1800 
     77 C           1.8028  -23.9044  -46.1994 C.2       13 UNK         0.5000 
     78 O           2.8774  -24.4026  -46.5346 O.2       13 UNK        -0.5000 
     79 N           0.9884  -23.2456  -47.0340 N.am      14 UNK        -0.5000 
     80 CA          1.2656  -23.0054  -48.4501 C.3       14 UNK         0.1400 
     81 CB          0.3358  -21.8853  -48.9367 C.3       14 UNK        -0.1800 
     82 C           1.1063  -24.2606  -49.3312 C.2       14 UNK         0.5000 
     83 O           1.6065  -24.2681  -50.4554 O.2       14 UNK        -0.5000 
     84 N           0.3982  -25.2777  -48.8166 N.am      15 UNK        -0.5000 
     85 CA          0.0204  -26.5321  -49.4769 C.3       15 UNK         0.1400 
     86 CB          1.2644  -27.3903  -49.7882 C.3       15 UNK        -0.1800 
     87 C          -0.8849  -26.2918  -50.7038 C.2       15 UNK         0.5000 
     88 O          -0.7060  -26.9349  -51.7397 O.2       15 UNK        -0.5000 
     89 N          -1.8330  -25.3526  -50.5473 N.am      16 UNK        -0.5000 
     90 CA         -2.7819  -24.8551  -51.5511 C.3       16 UNK         0.1400 
     91 CB         -3.8686  -25.9126  -51.8298 C.3       16 UNK        -0.1800 
     92 C          -2.0714  -24.3612  -52.8309 C.2       16 UNK         0.5000 
     93 O          -2.2837  -24.9078  -53.9148 O.2       16 UNK        -0.5000 
     94 N          -1.1939  -23.3639  -52.6516 N.am      17 UNK        -0.5000 
     95 CA         -0.2514  -22.8608  -53.6555 C.3       17 UNK         0.1400 
     96 CB          0.6288  -21.7778  -53.0097 C.3       17 UNK        -0.1800 
     97 C          -0.8800  -22.3118  -54.9507 C.2       17 UNK         0.5000 
     98 O          -0.2397  -22.3910  -55.9999 O.2       17 UNK        -0.5000 
     99 N          -2.0890  -21.7403  -54.8456 N.am      18 UNK        -0.5000 
    100 CA        -2.7952  -20.9796  -55.8842 C.3       18 UNK         0.1400 
    101 CB        -3.1823  -21.8761  -57.0787 C.3       18 UNK        -0.1800 
    102 C         -2.0086  -19.7140  -56.2846 C.2       18 UNK         0.5000 
    103 O         -1.8530  -19.4166  -57.4707 O.2       18 UNK        -0.5000 
    104 N         -1.5018  -19.0113  -55.2658 N.am      19 UNK        -0.5000 
    105 CA        -0.6373  -17.8439  -55.3835 C.3       19 UNK         0.1400 
    106 CB         0.8212  -18.2922  -55.6187 C.3       19 UNK        -0.1800 
    107 C         -0.8352  -16.9809  -54.1298 C.2       19 UNK         0.5000 
    108 O         -1.8131  -16.2355  -54.0656 O.2       19 UNK        -0.5000 
    109 N          0.0694  -17.1139  -53.1476 N.am      20 UNK        -0.5000 
    110 CA         0.0114  -16.4433  -51.8428 C.3       20 UNK         0.1400 
    111 CB         1.2946  -16.7654  -51.0592 C.3       20 UNK        -0.1800 
    112 C         -1.2310  -16.8392  -51.0224 C.2       20 UNK         0.5000 
    113 O         -1.8263  -15.9915  -50.3575 O.2       20 UNK        -0.5000 
    114 N         -1.6018  -18.1183  -51.1241 N.am      21 UNK        -0.5000 
    115 CA        -2.8453  -18.6961  -50.6381 C.3       21 UNK         0.1400 
    116 CB        -2.5125  -19.6993  -49.5252 C.3       21 UNK        -0.1800 
    117 C         -3.5084  -19.3892  -51.8377 C.2       21 UNK         0.5000 
    118 O         -2.7930  -19.8723  -52.7221 O.2       21 UNK        -0.5000 
    119 N         -4.8452  -19.4114  -51.8680 N.am      22 UNK        -0.5000 
    120 CA        -5.6344  -19.8773  -53.0242 C.3       22 UNK         0.1400 
    121 C         -5.6140  -21.4131  -53.2714 C.2       22 UNK         0.5000 
    122 N         -5.2272  -22.2385  -52.3092 N.am      22 UNK        -0.7600 
    123 O         -5.9550  -21.8621  -54.3613 O.2       22 UNK        -0.5000 
    124 C124       -7.0986  -19.3667  -52.9990 C.3       23 UNK        -0.0398 
    125 S125       -7.2452  -17.5601  -52.7695 S.3       23 UNK        -0.2404 
    126 C126       -8.1176  -17.4565  -51.1732 C.3       23 UNK        -0.0205 
    127 H127       -5.4725  -10.3105  -48.1992 H         1 UNK         0.0600 
    128 H128       -5.2295   -9.2045  -46.8441 H         1 UNK         0.0600 
    129 H129       -6.6247  -10.2886  -46.8617 H         1 UNK         0.0600 
    130 H130       -4.1256  -12.0613  -48.1183 H         1 UNK         0.3000 
    131 H131       -2.8106  -13.7046  -47.4998 H         1 UNK         0.0600 
    132 H132       -4.4482  -13.9326  -44.9298 H         1 UNK         0.0800 
    133 H133       -3.3746  -15.1489  -45.5464 H         1 UNK         0.0800 
    134 H134       -3.9452  -15.8711  -48.5576 H         1 UNK         0.0800 
    135 H135       -3.8415  -16.8596  -47.1163 H         1 UNK         0.0800 
    136 H136       -6.2913  -15.9458  -49.8313 H         1 UNK         0.1150 
    137 H137       -7.9707  -19.8957  -49.9381 H         1 UNK         0.1150 
    138 H138       -4.9036  -18.9431  -47.1111 H         1 UNK         0.1150 
    139 H139       -6.1428  -21.0349  -46.9182 H         1 UNK         0.0800 
    140 H140       -7.4803  -21.4023  -47.9794 H         1 UNK         0.0800 
    141 H141       -5.6406  -23.5069  -47.0521 H         1 UNK         0.0800 
    142 H142       -4.8963  -24.3019  -48.4140 H         1 UNK         0.0800 
    143 H143       -2.8513  -22.7374  -48.0457 H         1 UNK         0.0600 
    144 H144       -4.4229  -21.7612  -45.8929 H         1 UNK         0.3000 
    145 H145       -2.2253  -19.5093  -44.9684 H         1 UNK         0.0600 
    146 H146       -4.2196  -19.3486  -43.4972 H         1 UNK         0.0600 
    147 H147       -4.6885  -19.7862  -45.1214 H         1 UNK         0.0600 
    148 H148       -4.6637  -21.0101  -43.8609 H         1 UNK         0.0600 
    149 H149       -1.1761  -20.0928  -43.1308 H         1 UNK         0.3000 
    150 H150       -1.9383  -21.5920  -40.4325 H         1 UNK         0.0600 
    151 H151       -1.5659  -23.9420  -40.7444 H         1 UNK         0.0600 
    152 H152       -0.0616  -23.2865  -40.1263 H         1 UNK         0.0600 
    153 H153       -0.2219  -23.6902  -41.8369 H         1 UNK         0.0600 
    154 H154        0.7467  -21.2439  -41.5600 H         1 UNK         0.3000 
    155 H155        1.2075  -18.3155  -40.0221 H         1 UNK         0.0600 
    156 H156        3.1524  -18.8418  -41.4858 H         1 UNK         0.0600 
    157 H157        2.1884  -19.9957  -42.3950 H         1 UNK         0.0600 
    158 H158        2.5376  -20.2768  -40.6914 H         1 UNK         0.0600 
    159 H159        0.8718  -17.8976  -42.9500 H         1 UNK         0.3000 
    160 H160       -0.8767  -14.9890  -42.6695 H         1 UNK         0.0600 
    161 H161        2.1624  -14.6379  -42.8682 H         1 UNK         0.0600 
    162 H162        1.1060  -13.7783  -41.7515 H         1 UNK         0.0600 
    163 H163        0.9483  -13.5167  -43.4802 H         1 UNK         0.0600 
    164 H164        1.0153  -15.7784  -44.6890 H         1 UNK         0.3000 
    165 H165       -1.1441  -18.1294  -46.3130 H         1 UNK         0.0600 
    166 H166       -1.6915  -15.9412  -47.2734 H         1 UNK         0.0600 
    167 H167       -0.0565  -15.3629  -47.0302 H         1 UNK         0.0600 
    168 H168       -0.3718  -16.6554  -48.1829 H         1 UNK         0.0600 
    169 H169        1.5101  -17.4429  -46.9030 H         1 UNK         0.3000 
    170 H170        3.2610  -19.5732  -44.6645 H         1 UNK         0.0600 
    171 H171        2.6194  -21.0630  -46.4868 H         1 UNK         0.0600 
    172 H172        2.7636  -19.7856  -47.6785 H         1 UNK         0.0600 
    173 H173        4.1966  -20.3783  -46.8369 H         1 UNK         0.0600 
    174 H174        4.3227  -17.6798  -44.9494 H         1 UNK         0.3000 
    175 H175        4.7811  -15.6081  -45.5284 H         1 UNK         0.0600 
    176 H176        6.6621  -15.0809  -47.0720 H         1 UNK         0.0600 
    177 H177        6.5623  -16.8154  -46.8141 H         1 UNK         0.0600 
    178 H178        5.9647  -16.1201  -48.3157 H         1 UNK         0.0600 
    179 H179        4.4557  -14.1958  -47.9710 H         1 UNK         0.3000 
    180 H180        3.0042  -12.2641  -47.8121 H         1 UNK         0.0600 
    181 H181        1.5005  -12.7302  -49.7226 H         1 UNK         0.0600 
    182 H182        2.6335  -14.0593  -49.5604 H         1 UNK         0.0600 
    183 H183        0.9785  -14.2456  -48.9937 H         1 UNK         0.0600 
    184 H184        0.1646  -12.5512  -47.5184 H         1 UNK         0.3000 
    185 H185       -0.3647  -11.0896  -44.4934 H         1 UNK         0.0600 
    186 H186       -1.2544   -9.0039  -45.5185 H         1 UNK         0.0600 
    187 H187        0.4946   -8.9315  -45.3826 H         1 UNK         0.0600 
    188 H188       -0.2471   -9.2529  -46.9454 H         1 UNK         0.0600 
    189 H189       -1.8437  -11.1098  -47.0103 H         1 UNK         0.3000 
    190 H190       -3.2159  -24.0071  -44.7957 H         1 UNK         0.3000 
    191 H191       -2.3092  -26.6911  -45.4558 H         1 UNK         0.0600 
    192 H192       -2.1934  -26.9758  -43.0126 H         1 UNK         0.0600 
    193 H193       -3.7194  -26.2219  -43.4480 H         1 UNK         0.0600 
    194 H194       -2.4190  -25.2538  -42.7552 H         1 UNK         0.0600 
    195 H195       -0.7546  -23.6064  -44.6608 H         1 UNK         0.3000 
    196 H196        1.9146  -24.8099  -44.2678 H         1 UNK         0.0600 
    197 H197        2.5800  -22.3195  -44.2054 H         1 UNK         0.0600 
    198 H198        1.5451  -22.8647  -42.9102 H         1 UNK         0.0600 
    199 H199        0.8634  -21.9425  -44.2508 H         1 UNK         0.0600 
    200 H200        0.1461  -22.8163  -46.6574 H         1 UNK         0.3000 
    201 H201        2.2975  -22.6620  -48.5479 H         1 UNK         0.0600 
    202 H202        0.4445  -20.9860  -48.3294 H         1 UNK         0.0600 
    203 H203       -0.7071  -22.1956  -48.8893 H         1 UNK         0.0600 
    204 H204        0.5548  -21.6077  -49.9673 H         1 UNK         0.0600 
    205 H205       -0.0105  -25.1396  -47.9023 H         1 UNK         0.3000 
    206 H206       -0.5852  -27.0845  -48.7570 H         1 UNK         0.0600 
    207 H207        1.8739  -27.5370  -48.8965 H         1 UNK         0.0600 
    208 H208        0.9758  -28.3779  -50.1497 H         1 UNK         0.0600 
    209 H209        1.8931  -26.9342  -50.5533 H         1 UNK         0.0600 
    210 H210       -1.9165  -24.9538  -49.6191 H         1 UNK         0.3000 
    211 H211       -3.2725  -23.9868  -51.1091 H         1 UNK         0.0600 
    212 H212       -3.4480  -26.8233  -52.2574 H         1 UNK         0.0600 
    213 H213       -4.6122  -25.5351  -52.5325 H         1 UNK         0.0600 
    214 H214       -4.3947  -26.1849  -50.9148 H         1 UNK         0.0600 
    215 H215       -1.0762  -22.9986  -51.7194 H         1 UNK         0.3000 
    216 H216        0.3916  -23.6961  -53.9400 H         1 UNK         0.0600 
    217 H217        0.0310  -20.9552  -52.6149 H         1 UNK         0.0600 
    218 H218        1.3290  -21.3573  -53.7328 H         1 UNK         0.0600 
    219 H219        1.2235  -22.1883  -52.1946 H         1 UNK         0.0600 
    220 H220       -2.4907  -21.6709  -53.9185 H         1 UNK         0.3000 
    221 H221       -3.7204  -20.6251  -55.4329 H         1 UNK         0.0600 
    222 H222       -2.3098  -22.2205  -57.6339 H         1 UNK         0.0600 
    223 H223       -3.7371  -22.7532  -56.7453 H         1 UNK         0.0600 
    224 H224       -3.8204  -21.3352  -57.7782 H         1 UNK         0.0600 
    225 H225       -1.7536  -19.2939  -54.3229 H         1 UNK         0.3000 
    226 H226       -0.9559  -17.2401  -56.2358 H         1 UNK         0.0600 
    227 H227        0.9231  -18.7896  -56.5834 H         1 UNK         0.0600 
    228 H228        1.5002  -17.4385  -55.6260 H         1 UNK         0.0600 
    229 H229        1.1647  -18.9912  -54.8555 H         1 UNK         0.0600 
    230 H230        0.8507  -17.7352  -53.2979 H         1 UNK         0.3000 
    231 H231       -0.0312  -15.3657  -52.0136 H         1 UNK         0.0600 
    232 H232        1.2736  -16.3227  -50.0636 H         1 UNK         0.0600 
    233 H233        2.1764  -16.3754  -51.5676 H         1 UNK         0.0600 
    234 H234        1.4297  -17.8398  -50.9284 H         1 UNK         0.0600 
    235 H235       -1.0879  -18.7144  -51.7566 H         1 UNK         0.3000 
    236 H236       -3.5082  -17.9184  -50.2572 H         1 UNK         0.0600 
    237 H237       -1.8712  -19.2538  -48.7642 H         1 UNK         0.0600 
    238 H238       -3.4141  -20.0398  -49.0233 H         1 UNK         0.0600 
    239 H239       -2.0056  -20.5774  -49.9230 H         1 UNK         0.0600 
    240 H240       -5.3726  -19.0074  -51.1063 H         1 UNK         0.3000 
    241 H241       -5.1703  -19.4336  -53.9070 H         1 UNK         0.0600 
    242 H242       -5.0189  -21.8897  -51.3855 H         1 UNK         0.3800 
    243 H243       -5.2674  -23.2281  -52.4832 H         1 UNK         0.3800 
    244 H244       -7.5915  -19.6080  -53.9426 H         1 UNK         0.0800 
    245 H245       -7.6714  -19.8873  -52.2319 H         1 UNK         0.0800 
    246 H246       -9.0218  -18.0665  -51.2062 H         1 UNK         0.0800 
    247 H247       -8.4524  -16.4292  -51.0221 H         1 UNK         0.0800 
@<TRIPOS>BOND
     1    1    2 1    
     2    1  127 1    
     3    1  128 1    
     4    1  129 1    
     5    2    3 2    
     6    2    4 am   BACKBONE|DICT|INTERRES
     7    4    5 1    
     8    4  130 1    
     9    5    6 1    
    10    5   65 1    
    11    5  131 1    
    12    6    7 1    
    13    6  132 1    
    14    6  133 1    
    15    7    8 1    
    16    8    9 1    
    17    8  134 1    
    18    8  135 1    
    19    9   10 ar   
    20    9   14 ar   
    21   10   11 ar   
    22   10  136 1    
    23   11   12 ar   
    24   11  126 1    
    25   12   13 ar   
    26   12  137 1    
    27   13   14 ar   
    28   13   15 1    
    29   14  138 1    
    30   15   16 1    
    31   15  139 1    
    32   15  140 1    
    33   16   17 1    
    34   17   18 1    
    35   17  141 1    
    36   17  142 1    
    37   18   19 1    
    38   18   67 1    
    39   18  143 1    
    40   19   20 am   BACKBONE|DICT|INTERRES
    41   19  144 1    
    42   20   21 2    
    43   20   22 1    
    44   22   23 1    
    45   22   24 1    
    46   22  145 1    
    47   23  146 1    
    48   23  147 1    
    49   23  148 1    
    50   24   25 am   BACKBONE|DICT|INTERRES
    51   24  149 1    
    52   25   26 2    
    53   25   27 1    
    54   27   28 1    
    55   27   29 1    
    56   27  150 1    
    57   28  151 1    
    58   28  152 1    
    59   28  153 1    
    60   29   30 am   BACKBONE|DICT|INTERRES
    61   29  154 1    
    62   30   31 2    
    63   30   32 1    
    64   32   33 1    
    65   32   34 1    
    66   32  155 1    
    67   33  156 1    
    68   33  157 1    
    69   33  158 1    
    70   34   35 am   BACKBONE|DICT|INTERRES
    71   34  159 1    
    72   35   36 2    
    73   35   37 1    
    74   37   38 1    
    75   37   39 1    
    76   37  160 1    
    77   38  161 1    
    78   38  162 1    
    79   38  163 1    
    80   39   40 am   BACKBONE|DICT|INTERRES
    81   39  164 1    
    82   40   41 2    
    83   40   42 1    
    84   42   43 1    
    85   42   44 1    
    86   42  165 1    
    87   43  166 1    
    88   43  167 1    
    89   43  168 1    
    90   44   45 am   BACKBONE|DICT|INTERRES
    91   44  169 1    
    92   45   46 2    
    93   45   47 1    
    94   47   48 1    
    95   47   49 1    
    96   47  170 1    
    97   48  171 1    
    98   48  172 1    
    99   48  173 1    
   100   49   50 am   BACKBONE|DICT|INTERRES
   101   49  174 1    
   102   50   51 2    
   103   50   52 1    
   104   52   53 1    
   105   52   54 1    
   106   52  175 1    
   107   53  176 1    
   108   53  177 1    
   109   53  178 1    
   110   54   55 am   BACKBONE|DICT|INTERRES
   111   54  179 1    
   112   55   56 2    
   113   55   57 1    
   114   57   58 1    
   115   57   59 1    
   116   57  180 1    
   117   58  181 1    
   118   58  182 1    
   119   58  183 1    
   120   59   60 am   BACKBONE|DICT|INTERRES
   121   59  184 1    
   122   60   61 2    
   123   60   62 1    
   124   62   63 1    
   125   62   64 1    
   126   62  185 1    
   127   63  186 1    
   128   63  187 1    
   129   63  188 1    
   130   64   65 am   BACKBONE|DICT|INTERRES
   131   64  189 1    
   132   65   66 2    
   133   67   68 2    
   134   67   69 am   BACKBONE|DICT|INTERRES
   135   69   70 1    
   136   69  190 1    
   137   70   71 1    
   138   70   72 1    
   139   70  191 1    
   140   71  192 1    
   141   71  193 1    
   142   71  194 1    
   143   72   73 2    
   144   72   74 am   BACKBONE|DICT|INTERRES
   145   74   75 1    
   146   74  195 1    
   147   75   76 1    
   148   75   77 1    
   149   75  196 1    
   150   76  197 1    
   151   76  198 1    
   152   76  199 1    
   153   77   78 2    
   154   77   79 am   BACKBONE|DICT|INTERRES
   155   79   80 1    
   156   79  200 1    
   157   80   81 1    
   158   80   82 1    
   159   80  201 1    
   160   81  202 1    
   161   81  203 1    
   162   81  204 1    
   163   82   83 2    
   164   82   84 am   BACKBONE|DICT|INTERRES
   165   84   85 1    
   166   84  205 1    
   167   85   86 1    
   168   85   87 1    
   169   85  206 1    
   170   86  207 1    
   171   86  208 1    
   172   86  209 1    
   173   87   88 2    
   174   87   89 am   BACKBONE|DICT|INTERRES
   175   89   90 1    
   176   89  210 1    
   177   90   91 1    
   178   90   92 1    
   179   90  211 1    
   180   91  212 1    
   181   91  213 1    
   182   91  214 1    
   183   92   93 2    
   184   92   94 am   BACKBONE|DICT|INTERRES
   185   94   95 1    
   186   94  215 1    
   187   95   96 1    
   188   95   97 1    
   189   95  216 1    
   190   96  217 1    
   191   96  218 1    
   192   96  219 1    
   193   97   98 2    
   194   97   99 am   BACKBONE|DICT|INTERRES
   195   99  100 1    
   196   99  220 1    
   197  100  101 1    
   198  100  102 1    
   199  100  221 1    
   200  101  222 1    
   201  101  223 1    
   202  101  224 1    
   203  102  103 2    
   204  102  104 am   BACKBONE|DICT|INTERRES
   205  104  105 1    
   206  104  225 1    
   207  105  106 1    
   208  105  107 1    
   209  105  226 1    
   210  106  227 1    
   211  106  228 1    
   212  106  229 1    
   213  107  108 2    
   214  107  109 am   BACKBONE|DICT|INTERRES
   215  109  110 1    
   216  109  230 1    
   217  110  111 1    
   218  110  112 1    
   219  110  231 1    
   220  111  232 1    
   221  111  233 1    
   222  111  234 1    
   223  112  113 2    
   224  112  114 am   BACKBONE|DICT|INTERRES
   225  114  115 1    
   226  114  235 1    
   227  115  116 1    
   228  115  117 1    
   229  115  236 1    
   230  116  237 1    
   231  116  238 1    
   232  116  239 1    
   233  117  118 2    
   234  117  119 am   BACKBONE|DICT|INTERRES
   235  119  120 1    
   236  119  240 1    
   237  120  121 1    
   238  120  124 1    
   239  120  241 1    
   240  121  122 am   BACKBONE|DICT|INTERRES
   241  121  123 2    
   242  122  242 1    
   243  122  243 1    
   244  124  125 1    
   245  124  244 1    
   246  124  245 1    
   247  125  126 1    
   248  126  246 1    
   249  126  247 1    
@<TRIPOS>SUBSTRUCTURE
     1 UNK         1 GROUP             0       ****    0 ROOT    
