@<TRIPOS>MOLECULE
3R540
247   249    1
SMALL
USER_CHARGES


@<TRIPOS>ATOM
      1 CA          2.5113  -14.1239  -46.5920 C.3       0 UNK        -0.1800 
      2 C           1.7880  -15.4092  -46.9611 C.2       0 UNK         0.5000 
      3 O           1.1578  -16.0271  -46.0999 O.2       0 UNK        -0.5000 
      4 N           1.8751  -15.8148  -48.2350 N.am      1 UNK        -0.5000 
      5 CA          1.2289  -17.0090  -48.7963 C.3       1 UNK         0.1400 
      6 C6          2.0582  -17.6722  -49.9272 C.3       23 UNK        -0.0398 
      7 S7          3.6438  -18.3193  -49.2985 S.3       23 UNK        -0.2404 
      8 C8          4.2419  -19.3245  -50.6922 C.3       23 UNK        -0.0205 
      9 C9          3.4943  -20.6442  -50.8272 C.ar      23 UNK        -0.0193 
     10 C10         2.5422  -20.8087  -51.8354 C.ar      23 UNK        -0.1150 
     11 C11         1.8724  -22.0249  -51.9875 C.ar      23 UNK        -0.0193 
     12 C12         2.1702  -23.0826  -51.1250 C.ar      23 UNK        -0.1150 
     13 C13         3.1312  -22.9470  -50.1189 C.ar      23 UNK        -0.0193 
     14 C14         3.7853  -21.7138  -49.9731 C.ar      23 UNK        -0.1150 
     15 C15         3.4230  -24.1746  -49.2491 C.3       23 UNK        -0.0205 
     16 S16         4.7815  -24.0142  -48.0405 S.3       23 UNK        -0.2404 
     17 C17         3.9644  -23.0672  -46.7143 C.3       23 UNK        -0.0398 
     18 CA          3.7863  -23.8734  -45.4006 C.3       11 UNK         0.1400 
     19 N           3.7725  -22.9697  -44.2467 N.am      11 UNK        -0.5000 
     20 C           4.1131  -23.2982  -42.9945 C.2       10 UNK         0.5000 
     21 O           4.4917  -24.4203  -42.6579 O.2       10 UNK        -0.5000 
     22 CA          3.9872  -22.1830  -41.9398 C.3       10 UNK         0.1400 
     23 CB          5.1894  -21.2289  -42.0105 C.3       10 UNK        -0.1800 
     24 N           2.7506  -21.4109  -42.0771 N.am      10 UNK        -0.5000 
     25 C           1.5210  -21.8871  -41.8338 C.2       9 UNK         0.5000 
     26 O           1.2892  -23.0404  -41.4727 O.2       9 UNK        -0.5000 
     27 CA          0.3520  -20.9169  -42.0698 C.3       9 UNK         0.1400 
     28 CB          0.1693  -19.9763  -40.8691 C.3       9 UNK        -0.1800 
     29 N           0.5545  -20.1366  -43.2903 N.am      9 UNK        -0.5000 
     30 C           0.3419  -20.6277  -44.5188 C.2       8 UNK         0.5000 
     31 O          -0.1126  -21.7516  -44.7332 O.2       8 UNK        -0.5000 
     32 CA          0.6919  -19.7319  -45.7206 C.3       8 UNK         0.1400 
     33 CB         -0.5648  -18.9844  -46.1922 C.3       8 UNK        -0.1800 
     34 N           1.7942  -18.7973  -45.4736 N.am      8 UNK        -0.5000 
     35 C           3.0490  -19.1861  -45.2000 C.2       7 UNK         0.5000 
     36 O           3.3965  -20.3644  -45.1737 O.2       7 UNK        -0.5000 
     37 CA          4.0763  -18.1075  -44.8086 C.3       7 UNK         0.1400 
     38 CB          4.8642  -17.6147  -46.0282 C.3       7 UNK        -0.1800 
     39 N           3.5133  -16.9599  -44.0977 N.am      7 UNK        -0.5000 
     40 C           2.8291  -17.0192  -42.9488 C.2       6 UNK         0.5000 
     41 O           2.5142  -18.0726  -42.3935 O.2       6 UNK        -0.5000 
     42 CA          2.4011  -15.6827  -42.3358 C.3       6 UNK         0.1400 
     43 CB          3.3673  -14.5172  -42.6404 C.3       6 UNK        -0.1800 
     44 N           1.0585  -15.3719  -42.8079 N.am      6 UNK        -0.5000 
     45 C           0.1968  -14.5767  -42.1655 C.2       5 UNK         0.5000 
     46 O           0.4555  -13.9858  -41.1157 O.2       5 UNK        -0.5000 
     47 CA         -1.1964  -14.4209  -42.7963 C.3       5 UNK         0.1400 
     48 CB         -1.1654  -13.3559  -43.9033 C.3       5 UNK        -0.1800 
     49 N          -1.7439  -15.6702  -43.3313 N.am      5 UNK        -0.5000 
     50 C          -2.0840  -16.7368  -42.5884 C.2       4 UNK         0.5000 
     51 O          -1.8797  -16.8083  -41.3757 O.2       4 UNK        -0.5000 
     52 CA         -2.7930  -17.9061  -43.3150 C.3       4 UNK         0.1400 
     53 CB         -3.6220  -18.7960  -42.3665 C.3       4 UNK        -0.1800 
     54 N          -3.6133  -17.4784  -44.4537 N.am      4 UNK        -0.5000 
     55 C          -4.6076  -16.5779  -44.4494 C.2       3 UNK         0.5000 
     56 O          -5.0444  -16.0502  -43.4248 O.2       3 UNK        -0.5000 
     57 CA         -5.1937  -16.1783  -45.8246 C.3       3 UNK         0.1400 
     58 CB         -5.8045  -14.7617  -45.7990 C.3       3 UNK        -0.1800 
     59 N          -4.2686  -16.2855  -46.9650 N.am      3 UNK        -0.5000 
     60 C          -3.0490  -15.7403  -47.0748 C.2       2 UNK         0.5000 
     61 O          -2.4367  -15.2113  -46.1456 O.2       2 UNK        -0.5000 
     62 CA         -2.4046  -15.7594  -48.4638 C.3       2 UNK         0.1400 
     63 CB         -2.5360  -14.3798  -49.1316 C.3       2 UNK        -0.1800 
     64 N          -0.9968  -16.0993  -48.3042 N.am      2 UNK        -0.5000 
     65 C          -0.2260  -16.6973  -49.2184 C.2       1 UNK         0.5000 
     66 O          -0.6292  -17.0008  -50.3425 O.2       1 UNK        -0.5000 
     67 C           2.5404  -24.7917  -45.4436 C.2       11 UNK         0.5000 
     68 O           2.5318  -25.7608  -46.2028 O.2       11 UNK        -0.5000 
     69 N           1.5174  -24.4776  -44.6314 N.am      12 UNK        -0.5000 
     70 CA          0.2186  -25.1539  -44.5255 C.3       12 UNK         0.1400 
     71 CB          0.3811  -26.5890  -43.9832 C.3       12 UNK        -0.1800 
     72 C          -0.5979  -25.0814  -45.8343 C.2       12 UNK         0.5000 
     73 O          -1.2658  -26.0449  -46.2135 O.2       12 UNK        -0.5000 
     74 N          -0.5279  -23.9191  -46.4935 N.am      13 UNK        -0.5000 
     75 CA         -1.2745  -23.5827  -47.7048 C.3       13 UNK         0.1400 
     76 CB         -0.4387  -22.5961  -48.5325 C.3       13 UNK        -0.1800 
     77 C          -2.6675  -23.0005  -47.3870 C.2       13 UNK         0.5000 
     78 O          -3.5214  -22.9725  -48.2747 O.2       13 UNK        -0.5000 
     79 N          -2.8750  -22.5663  -46.1323 N.am      14 UNK        -0.5000 
     80 CA         -4.1189  -22.0370  -45.5659 C.3       14 UNK         0.1400 
     81 CB         -5.1933  -23.1439  -45.4795 C.3       14 UNK        -0.1800 
     82 C          -4.5822  -20.7605  -46.2945 C.2       14 UNK         0.5000 
     83 O          -3.9011  -19.7409  -46.1941 O.2       14 UNK        -0.5000 
     84 N          -5.7165  -20.8160  -47.0073 N.am      15 UNK        -0.5000 
     85 CA         -6.2522  -19.6947  -47.7830 C.3       15 UNK         0.1400 
     86 CB         -7.6302  -20.0611  -48.3449 C.3       15 UNK        -0.1800 
     87 C          -5.3007  -19.2360  -48.9029 C.2       15 UNK         0.5000 
     88 O          -5.1258  -18.0303  -49.0922 O.2       15 UNK        -0.5000 
     89 N          -4.6537  -20.2057  -49.5657 N.am      16 UNK        -0.5000 
     90 CA         -3.5601  -20.0309  -50.5213 C.3       16 UNK         0.1400 
     91 CB         -2.2840  -19.6563  -49.7438 C.3       16 UNK        -0.1800 
     92 C          -3.9276  -19.0552  -51.6599 C.2       16 UNK         0.5000 
     93 O          -4.8984  -19.3094  -52.3770 O.2       16 UNK        -0.5000 
     94 N          -3.1871  -17.9475  -51.8128 N.am      17 UNK        -0.5000 
     95 CA         -3.4431  -16.9301  -52.8350 C.3       17 UNK         0.1400 
     96 CB         -2.2396  -15.9856  -52.9439 C.3       17 UNK        -0.1800 
     97 C          -4.7515  -16.1401  -52.6285 C.2       17 UNK         0.5000 
     98 O          -5.2539  -15.5762  -53.5998 O.2       17 UNK        -0.5000 
     99 N          -5.3238  -16.1504  -51.4131 N.am      18 UNK        -0.5000 
    100 CA        -6.6347  -15.5508  -51.1317 C.3       18 UNK         0.1400 
    101 CB        -6.8122  -15.3484  -49.6188 C.3       18 UNK        -0.1800 
    102 C         -7.7977  -16.3793  -51.7156 C.2       18 UNK         0.5000 
    103 O         -8.8492  -15.8151  -52.0176 O.2       18 UNK        -0.5000 
    104 N         -7.5742  -17.6881  -51.9038 N.am      19 UNK        -0.5000 
    105 CA        -8.4669  -18.6008  -52.6240 C.3       19 UNK         0.1400 
    106 CB        -8.4372  -19.9722  -51.9283 C.3       19 UNK        -0.1800 
    107 C         -8.0817  -18.7361  -54.1122 C.2       19 UNK         0.5000 
    108 O         -8.7125  -19.5140  -54.8284 O.2       19 UNK        -0.5000 
    109 N         -7.0394  -18.0066  -54.5415 N.am      20 UNK        -0.5000 
    110 CA        -6.3961  -18.0340  -55.8593 C.3       20 UNK         0.1400 
    111 CB        -7.3745  -17.5941  -56.9680 C.3       20 UNK        -0.1800 
    112 C         -5.6907  -19.3698  -56.1823 C.2       20 UNK         0.5000 
    113 O         -5.3645  -19.6165  -57.3441 O.2       20 UNK        -0.5000 
    114 N         -5.4283  -20.1956  -55.1585 N.am      21 UNK        -0.5000 
    115 CA        -4.7419  -21.4830  -55.2854 C.3       21 UNK         0.1400 
    116 CB        -5.0454  -22.3406  -54.0469 C.3       21 UNK        -0.1800 
    117 C         -3.2228  -21.3173  -55.4706 C.2       21 UNK         0.5000 
    118 O         -2.5959  -22.1508  -56.1252 O.2       21 UNK        -0.5000 
    119 N         -2.6754  -20.2366  -54.9025 N.am      22 UNK        -0.5000 
    120 CA        -1.2550  -19.8536  -54.9676 C.3       22 UNK         0.1400 
    121 C         -1.0315  -18.5154  -55.7320 C.2       22 UNK         0.5000 
    122 N         -2.0036  -18.0115  -56.4838 N.am      22 UNK        -0.7600 
    123 O          0.0424  -17.9257  -55.6566 O.2       22 UNK        -0.5000 
    124 C124       -0.5922  -19.8402  -53.5635 C.3       23 UNK        -0.0398 
    125 S125       -0.7434  -21.4409  -52.6960 S.3       23 UNK        -0.2404 
    126 C126        0.8514  -22.2167  -53.0989 C.3       23 UNK        -0.0205 
    127 H127        1.9283  -13.5580  -45.8650 H         1 UNK         0.0600 
    128 H128        2.6695  -13.4905  -47.4651 H         1 UNK         0.0600 
    129 H129        3.4822  -14.3525  -46.1538 H         1 UNK         0.0600 
    130 H130        2.3995  -15.2571  -48.8939 H         1 UNK         0.3000 
    131 H131        1.1659  -17.7525  -48.0052 H         1 UNK         0.0600 
    132 H132        2.2484  -16.9680  -50.7385 H         1 UNK         0.0800 
    133 H133        1.5078  -18.5089  -50.3611 H         1 UNK         0.0800 
    134 H134        5.3022  -19.5314  -50.5410 H         1 UNK         0.0800 
    135 H135        4.1766  -18.7430  -51.6132 H         1 UNK         0.0800 
    136 H136        2.3325  -19.9895  -52.5063 H         1 UNK         0.1150 
    137 H137        1.6581  -24.0272  -51.2461 H         1 UNK         0.1150 
    138 H138        4.5335  -21.5722  -49.2078 H         1 UNK         0.1150 
    139 H139        2.5135  -24.4718  -48.7252 H         1 UNK         0.0800 
    140 H140        3.6748  -25.0051  -49.9100 H         1 UNK         0.0800 
    141 H141        4.6173  -22.2119  -46.5362 H         1 UNK         0.0800 
    142 H142        3.0185  -22.6439  -47.0582 H         1 UNK         0.0800 
    143 H143        4.6536  -24.5273  -45.2859 H         1 UNK         0.0600 
    144 H144        3.5252  -22.0021  -44.4494 H         1 UNK         0.3000 
    145 H145        3.9840  -22.6536  -40.9543 H         1 UNK         0.0600 
    146 H146        5.1329  -20.4641  -41.2356 H         1 UNK         0.0600 
    147 H147        5.2486  -20.7249  -42.9754 H         1 UNK         0.0600 
    148 H148        6.1252  -21.7703  -41.8658 H         1 UNK         0.0600 
    149 H149        2.8427  -20.4467  -42.3681 H         1 UNK         0.3000 
    150 H150       -0.5628  -21.5048  -42.1746 H         1 UNK         0.0600 
    151 H151       -0.0772  -20.5412  -39.9695 H         1 UNK         0.0600 
    152 H152       -0.6402  -19.2683  -41.0400 H         1 UNK         0.0600 
    153 H153        1.0719  -19.4039  -40.6556 H         1 UNK         0.0600 
    154 H154        1.0002  -19.2326  -43.1822 H         1 UNK         0.3000 
    155 H155        1.0056  -20.4026  -46.5226 H         1 UNK         0.0600 
    156 H156       -1.4611  -19.5619  -45.9786 H         1 UNK         0.0600 
    157 H157       -0.5639  -18.8427  -47.2692 H         1 UNK         0.0600 
    158 H158       -0.6787  -18.0126  -45.7121 H         1 UNK         0.0600 
    159 H159        1.5822  -17.8042  -45.5080 H         1 UNK         0.3000 
    160 H160        4.7857  -18.5835  -44.1293 H         1 UNK         0.0600 
    161 H161        4.2351  -17.0421  -46.7080 H         1 UNK         0.0600 
    162 H162        5.2817  -18.4516  -46.5898 H         1 UNK         0.0600 
    163 H163        5.6972  -16.9787  -45.7287 H         1 UNK         0.0600 
    164 H164        3.7062  -16.0511  -44.4896 H         1 UNK         0.3000 
    165 H165        2.3754  -15.8338  -41.2544 H         1 UNK         0.0600 
    166 H166        3.1195  -13.6396  -42.0433 H         1 UNK         0.0600 
    167 H167        4.3970  -14.7854  -42.4001 H         1 UNK         0.0600 
    168 H168        3.3332  -14.2177  -43.6874 H         1 UNK         0.0600 
    169 H169        0.7687  -15.8150  -43.6705 H         1 UNK         0.3000 
    170 H170       -1.8744  -14.0733  -42.0142 H         1 UNK         0.0600 
    171 H171       -0.7669  -12.4119  -43.5296 H         1 UNK         0.0600 
    172 H172       -0.5426  -13.6675  -44.7431 H         1 UNK         0.0600 
    173 H173       -2.1669  -13.1569  -44.2854 H         1 UNK         0.0600 
    174 H174       -1.9772  -15.6642  -44.3212 H         1 UNK         0.3000 
    175 H175       -1.9984  -18.5285  -43.7244 H         1 UNK         0.0600 
    176 H176       -4.4099  -18.2303  -41.8685 H         1 UNK         0.0600 
    177 H177       -4.0905  -19.6171  -42.9091 H         1 UNK         0.0600 
    178 H178       -2.9965  -19.2383  -41.5910 H         1 UNK         0.0600 
    179 H179       -3.4033  -17.9318  -45.3364 H         1 UNK         0.3000 
    180 H180       -6.0054  -16.8787  -46.0168 H         1 UNK         0.0600 
    181 H181       -6.2536  -14.5062  -46.7581 H         1 UNK         0.0600 
    182 H182       -5.0524  -14.0059  -45.5694 H         1 UNK         0.0600 
    183 H183       -6.5914  -14.6818  -45.0480 H         1 UNK         0.0600 
    184 H184       -4.6398  -16.7810  -47.7717 H         1 UNK         0.3000 
    185 H185       -2.9005  -16.5054  -49.0849 H         1 UNK         0.0600 
    186 H186       -2.1520  -13.5861  -48.4891 H         1 UNK         0.0600 
    187 H187       -1.9854  -14.3318  -50.0690 H         1 UNK         0.0600 
    188 H188       -3.5789  -14.1502  -49.3512 H         1 UNK         0.0600 
    189 H189       -0.6098  -15.8948  -47.3883 H         1 UNK         0.3000 
    190 H190        1.6268  -23.6639  -44.0426 H         1 UNK         0.3000 
    191 H191       -0.3515  -24.5900  -43.7855 H         1 UNK         0.0600 
    192 H192       -0.5898  -27.0361  -43.7668 H         1 UNK         0.0600 
    193 H193        0.9546  -26.5961  -43.0562 H         1 UNK         0.0600 
    194 H194        0.8873  -27.2397  -44.6966 H         1 UNK         0.0600 
    195 H195       -0.0254  -23.1601  -46.0449 H         1 UNK         0.3000 
    196 H196       -1.4197  -24.4863  -48.3005 H         1 UNK         0.0600 
    197 H197       -0.3245  -21.6385  -48.0261 H         1 UNK         0.0600 
    198 H198       -0.9005  -22.4098  -49.5029 H         1 UNK         0.0600 
    199 H199        0.5579  -22.9905  -48.7222 H         1 UNK         0.0600 
    200 H200       -2.0806  -22.5698  -45.5054 H         1 UNK         0.3000 
    201 H201       -3.8833  -21.7303  -44.5458 H         1 UNK         0.0600 
    202 H202       -5.4673  -23.5368  -46.4590 H         1 UNK         0.0600 
    203 H203       -6.1016  -22.7740  -45.0019 H         1 UNK         0.0600 
    204 H204       -4.8368  -23.9817  -44.8801 H         1 UNK         0.0600 
    205 H205       -6.2167  -21.6913  -47.0563 H         1 UNK         0.3000 
    206 H206       -6.3845  -18.8565  -47.0989 H         1 UNK         0.0600 
    207 H207       -8.3207  -20.3395  -47.5486 H         1 UNK         0.0600 
    208 H208       -8.0679  -19.2098  -48.8675 H         1 UNK         0.0600 
    209 H209       -7.5725  -20.8939  -49.0468 H         1 UNK         0.0600 
    210 H210       -4.8479  -21.1634  -49.3054 H         1 UNK         0.3000 
    211 H211       -3.3938  -21.0018  -50.9894 H         1 UNK         0.0600 
    212 H212       -2.3886  -18.7048  -49.2287 H         1 UNK         0.0600 
    213 H213       -1.4100  -19.6064  -50.3931 H         1 UNK         0.0600 
    214 H214       -2.0770  -20.3968  -48.9753 H         1 UNK         0.0600 
    215 H215       -2.3977  -17.7778  -51.1973 H         1 UNK         0.3000 
    216 H216       -3.5379  -17.4440  -53.7935 H         1 UNK         0.0600 
    217 H217       -2.3784  -15.2664  -53.7520 H         1 UNK         0.0600 
    218 H218       -1.3214  -16.5342  -53.1539 H         1 UNK         0.0600 
    219 H219       -2.0887  -15.4214  -52.0262 H         1 UNK         0.0600 
    220 H220       -4.9055  -16.6944  -50.6671 H         1 UNK         0.3000 
    221 H221       -6.6623  -14.5650  -51.6013 H         1 UNK         0.0600 
    222 H222       -7.6848  -14.7267  -49.4157 H         1 UNK         0.0600 
    223 H223       -6.9646  -16.2900  -49.0927 H         1 UNK         0.0600 
    224 H224       -5.9493  -14.8482  -49.1806 H         1 UNK         0.0600 
    225 H225       -6.6716  -18.0671  -51.6464 H         1 UNK         0.3000 
    226 H226       -9.4926  -18.2281  -52.5923 H         1 UNK         0.0600 
    227 H227       -8.8745  -19.9093  -50.9339 H         1 UNK         0.0600 
    228 H228       -9.0192  -20.7125  -52.4786 H         1 UNK         0.0600 
    229 H229       -7.4215  -20.3582  -51.8325 H         1 UNK         0.0600 
    230 H230       -6.6150  -17.3738  -53.8774 H         1 UNK         0.3000 
    231 H231       -5.6024  -17.2871  -55.8155 H         1 UNK         0.0600 
    232 H232       -6.8523  -17.4450  -57.9138 H         1 UNK         0.0600 
    233 H233       -7.8582  -16.6506  -56.7152 H         1 UNK         0.0600 
    234 H234       -8.1539  -18.3362  -57.1420 H         1 UNK         0.0600 
    235 H235       -5.6692  -19.9035  -54.2179 H         1 UNK         0.3000 
    236 H236       -5.1331  -22.0023  -56.1628 H         1 UNK         0.0600 
    237 H237       -4.6503  -21.8917  -53.1354 H         1 UNK         0.0600 
    238 H238       -6.1189  -22.4777  -53.9149 H         1 UNK         0.0600 
    239 H239       -4.5994  -23.3314  -54.1417 H         1 UNK         0.0600 
    240 H240       -3.2816  -19.6182  -54.3857 H         1 UNK         0.3000 
    241 H241       -0.7140  -20.5915  -55.5620 H         1 UNK         0.0600 
    242 H242       -1.8413  -17.1511  -56.9833 H         1 UNK         0.3800 
    243 H243       -2.8575  -18.5242  -56.6328 H         1 UNK         0.3800 
    244 H244       -1.0356  -19.0683  -52.9373 H         1 UNK         0.0800 
    245 H245        0.4616  -19.5767  -53.6455 H         1 UNK         0.0800 
    246 H246        1.2421  -21.8252  -54.0391 H         1 UNK         0.0800 
    247 H247        0.6789  -23.2803  -53.2700 H         1 UNK         0.0800 
@<TRIPOS>BOND
     1    1    2 1    
     2    1  127 1    
     3    1  128 1    
     4    1  129 1    
     5    2    3 2    
     6    2    4 am   BACKBONE|DICT|INTERRES
     7    4    5 1    
     8    4  130 1    
     9    5    6 1    
    10    5   65 1    
    11    5  131 1    
    12    6    7 1    
    13    6  132 1    
    14    6  133 1    
    15    7    8 1    
    16    8    9 1    
    17    8  134 1    
    18    8  135 1    
    19    9   10 ar   
    20    9   14 ar   
    21   10   11 ar   
    22   10  136 1    
    23   11   12 ar   
    24   11  126 1    
    25   12   13 ar   
    26   12  137 1    
    27   13   14 ar   
    28   13   15 1    
    29   14  138 1    
    30   15   16 1    
    31   15  139 1    
    32   15  140 1    
    33   16   17 1    
    34   17   18 1    
    35   17  141 1    
    36   17  142 1    
    37   18   19 1    
    38   18   67 1    
    39   18  143 1    
    40   19   20 am   BACKBONE|DICT|INTERRES
    41   19  144 1    
    42   20   21 2    
    43   20   22 1    
    44   22   23 1    
    45   22   24 1    
    46   22  145 1    
    47   23  146 1    
    48   23  147 1    
    49   23  148 1    
    50   24   25 am   BACKBONE|DICT|INTERRES
    51   24  149 1    
    52   25   26 2    
    53   25   27 1    
    54   27   28 1    
    55   27   29 1    
    56   27  150 1    
    57   28  151 1    
    58   28  152 1    
    59   28  153 1    
    60   29   30 am   BACKBONE|DICT|INTERRES
    61   29  154 1    
    62   30   31 2    
    63   30   32 1    
    64   32   33 1    
    65   32   34 1    
    66   32  155 1    
    67   33  156 1    
    68   33  157 1    
    69   33  158 1    
    70   34   35 am   BACKBONE|DICT|INTERRES
    71   34  159 1    
    72   35   36 2    
    73   35   37 1    
    74   37   38 1    
    75   37   39 1    
    76   37  160 1    
    77   38  161 1    
    78   38  162 1    
    79   38  163 1    
    80   39   40 am   BACKBONE|DICT|INTERRES
    81   39  164 1    
    82   40   41 2    
    83   40   42 1    
    84   42   43 1    
    85   42   44 1    
    86   42  165 1    
    87   43  166 1    
    88   43  167 1    
    89   43  168 1    
    90   44   45 am   BACKBONE|DICT|INTERRES
    91   44  169 1    
    92   45   46 2    
    93   45   47 1    
    94   47   48 1    
    95   47   49 1    
    96   47  170 1    
    97   48  171 1    
    98   48  172 1    
    99   48  173 1    
   100   49   50 am   BACKBONE|DICT|INTERRES
   101   49  174 1    
   102   50   51 2    
   103   50   52 1    
   104   52   53 1    
   105   52   54 1    
   106   52  175 1    
   107   53  176 1    
   108   53  177 1    
   109   53  178 1    
   110   54   55 am   BACKBONE|DICT|INTERRES
   111   54  179 1    
   112   55   56 2    
   113   55   57 1    
   114   57   58 1    
   115   57   59 1    
   116   57  180 1    
   117   58  181 1    
   118   58  182 1    
   119   58  183 1    
   120   59   60 am   BACKBONE|DICT|INTERRES
   121   59  184 1    
   122   60   61 2    
   123   60   62 1    
   124   62   63 1    
   125   62   64 1    
   126   62  185 1    
   127   63  186 1    
   128   63  187 1    
   129   63  188 1    
   130   64   65 am   BACKBONE|DICT|INTERRES
   131   64  189 1    
   132   65   66 2    
   133   67   68 2    
   134   67   69 am   BACKBONE|DICT|INTERRES
   135   69   70 1    
   136   69  190 1    
   137   70   71 1    
   138   70   72 1    
   139   70  191 1    
   140   71  192 1    
   141   71  193 1    
   142   71  194 1    
   143   72   73 2    
   144   72   74 am   BACKBONE|DICT|INTERRES
   145   74   75 1    
   146   74  195 1    
   147   75   76 1    
   148   75   77 1    
   149   75  196 1    
   150   76  197 1    
   151   76  198 1    
   152   76  199 1    
   153   77   78 2    
   154   77   79 am   BACKBONE|DICT|INTERRES
   155   79   80 1    
   156   79  200 1    
   157   80   81 1    
   158   80   82 1    
   159   80  201 1    
   160   81  202 1    
   161   81  203 1    
   162   81  204 1    
   163   82   83 2    
   164   82   84 am   BACKBONE|DICT|INTERRES
   165   84   85 1    
   166   84  205 1    
   167   85   86 1    
   168   85   87 1    
   169   85  206 1    
   170   86  207 1    
   171   86  208 1    
   172   86  209 1    
   173   87   88 2    
   174   87   89 am   BACKBONE|DICT|INTERRES
   175   89   90 1    
   176   89  210 1    
   177   90   91 1    
   178   90   92 1    
   179   90  211 1    
   180   91  212 1    
   181   91  213 1    
   182   91  214 1    
   183   92   93 2    
   184   92   94 am   BACKBONE|DICT|INTERRES
   185   94   95 1    
   186   94  215 1    
   187   95   96 1    
   188   95   97 1    
   189   95  216 1    
   190   96  217 1    
   191   96  218 1    
   192   96  219 1    
   193   97   98 2    
   194   97   99 am   BACKBONE|DICT|INTERRES
   195   99  100 1    
   196   99  220 1    
   197  100  101 1    
   198  100  102 1    
   199  100  221 1    
   200  101  222 1    
   201  101  223 1    
   202  101  224 1    
   203  102  103 2    
   204  102  104 am   BACKBONE|DICT|INTERRES
   205  104  105 1    
   206  104  225 1    
   207  105  106 1    
   208  105  107 1    
   209  105  226 1    
   210  106  227 1    
   211  106  228 1    
   212  106  229 1    
   213  107  108 2    
   214  107  109 am   BACKBONE|DICT|INTERRES
   215  109  110 1    
   216  109  230 1    
   217  110  111 1    
   218  110  112 1    
   219  110  231 1    
   220  111  232 1    
   221  111  233 1    
   222  111  234 1    
   223  112  113 2    
   224  112  114 am   BACKBONE|DICT|INTERRES
   225  114  115 1    
   226  114  235 1    
   227  115  116 1    
   228  115  117 1    
   229  115  236 1    
   230  116  237 1    
   231  116  238 1    
   232  116  239 1    
   233  117  118 2    
   234  117  119 am   BACKBONE|DICT|INTERRES
   235  119  120 1    
   236  119  240 1    
   237  120  121 1    
   238  120  124 1    
   239  120  241 1    
   240  121  122 am   BACKBONE|DICT|INTERRES
   241  121  123 2    
   242  122  242 1    
   243  122  243 1    
   244  124  125 1    
   245  124  244 1    
   246  124  245 1    
   247  125  126 1    
   248  126  246 1    
   249  126  247 1    
@<TRIPOS>SUBSTRUCTURE
     1 UNK         1 GROUP             0       ****    0 ROOT    
