@<TRIPOS>MOLECULE
3R540
247   249    1
SMALL
USER_CHARGES


@<TRIPOS>ATOM
      1 CA         -0.4233  -16.1467  -50.2263 C.3       0 UNK        -0.1800 
      2 C          -0.5991  -16.2358  -48.7171 C.2       0 UNK         0.5000 
      3 O           0.3713  -16.4588  -47.9956 O.2       0 UNK        -0.5000 
      4 N          -1.8326  -16.0492  -48.2360 N.am      1 UNK        -0.5000 
      5 CA         -2.2203  -16.1015  -46.8227 C.3       1 UNK         0.1400 
      6 C6         -3.6199  -16.7505  -46.6287 C.3       23 UNK        -0.0398 
      7 S7         -4.9759  -16.0059  -47.6065 S.3       23 UNK        -0.2404 
      8 C8         -4.9639  -17.0279  -49.1127 C.3       23 UNK        -0.0205 
      9 C9         -5.8938  -18.2313  -49.0349 C.ar      23 UNK        -0.0193 
     10 C10        -7.1525  -18.1781  -49.6407 C.ar      23 UNK        -0.1150 
     11 C11        -7.9747  -19.3078  -49.6737 C.ar      23 UNK        -0.0193 
     12 C12        -7.5455  -20.4900  -49.0649 C.ar      23 UNK        -0.1150 
     13 C13        -6.2896  -20.5583  -48.4598 C.ar      23 UNK        -0.0193 
     14 C14        -5.4683  -19.4268  -48.4475 C.ar      23 UNK        -0.1150 
     15 C15        -5.8005  -21.8638  -47.8564 C.3       23 UNK        -0.0205 
     16 S16        -4.7188  -22.7349  -49.0302 S.3       23 UNK        -0.2404 
     17 C17        -3.6546  -23.7155  -47.9223 C.3       23 UNK        -0.0398 
     18 CA         -2.3547  -22.9498  -47.5704 C.3       11 UNK         0.1400 
     19 N          -2.5875  -21.9020  -46.5721 N.am      11 UNK        -0.5000 
     20 C          -1.7150  -20.9488  -46.2252 C.2       10 UNK         0.5000 
     21 O          -0.5836  -20.8591  -46.7044 O.2       10 UNK        -0.5000 
     22 CA         -2.1514  -19.9601  -45.1267 C.3       10 UNK         0.1400 
     23 CB         -3.6516  -20.0216  -44.7636 C.3       10 UNK        -0.1800 
     24 N          -1.3418  -20.0957  -43.9168 N.am      10 UNK        -0.5000 
     25 C          -1.1320  -21.2093  -43.2002 C.2       9 UNK         0.5000 
     26 O          -1.5886  -22.3136  -43.5001 O.2       9 UNK        -0.5000 
     27 CA         -0.2728  -21.0668  -41.9306 C.3       9 UNK         0.1400 
     28 CB          1.2163  -21.2417  -42.2566 C.3       9 UNK        -0.1800 
     29 N          -0.4565  -19.7878  -41.2434 N.am      9 UNK        -0.5000 
     30 C          -1.5618  -19.4305  -40.5751 C.2       8 UNK         0.5000 
     31 O          -2.5656  -20.1373  -40.4799 O.2       8 UNK        -0.5000 
     32 CA         -1.5373  -18.0530  -39.8936 C.3       8 UNK         0.1400 
     33 CB         -0.7330  -18.1055  -38.5847 C.3       8 UNK        -0.1800 
     34 N          -0.9655  -17.0345  -40.7728 N.am      8 UNK        -0.5000 
     35 C          -1.6799  -16.2857  -41.6237 C.2       7 UNK         0.5000 
     36 O          -2.9043  -16.3546  -41.7336 O.2       7 UNK        -0.5000 
     37 CA         -0.9015  -15.2868  -42.5030 C.3       7 UNK         0.1400 
     38 CB         -0.8168  -13.9216  -41.8043 C.3       7 UNK        -0.1800 
     39 N           0.4453  -15.7397  -42.8622 N.am      7 UNK        -0.5000 
     40 C           0.7020  -16.8255  -43.6052 C.2       6 UNK         0.5000 
     41 O          -0.1792  -17.5059  -44.1260 O.2       6 UNK        -0.5000 
     42 CA          2.1664  -17.2862  -43.7324 C.3       6 UNK         0.1400 
     43 CB          2.8337  -16.7354  -44.9976 C.3       6 UNK        -0.1800 
     44 N           2.9989  -16.9684  -42.5744 N.am      6 UNK        -0.5000 
     45 C           2.8088  -17.4008  -41.3236 C.2       5 UNK         0.5000 
     46 O           1.8624  -18.1155  -40.9920 O.2       5 UNK        -0.5000 
     47 CA          3.8159  -16.9323  -40.2547 C.3       5 UNK         0.1400 
     48 CB          5.0922  -17.7940  -40.2772 C.3       5 UNK        -0.1800 
     49 N           4.1245  -15.4952  -40.3077 N.am      5 UNK        -0.5000 
     50 C           4.7632  -14.8013  -41.2608 C.2       4 UNK         0.5000 
     51 O           5.2737  -15.3022  -42.2656 O.2       4 UNK        -0.5000 
     52 CA          4.8017  -13.2738  -41.0710 C.3       4 UNK         0.1400 
     53 CB          6.2261  -12.8059  -40.7354 C.3       4 UNK        -0.1800 
     54 N           4.3174  -12.5375  -42.2426 N.am      4 UNK        -0.5000 
     55 C           3.1281  -12.7013  -42.8403 C.2       3 UNK         0.5000 
     56 O           2.2968  -13.5400  -42.4842 O.2       3 UNK        -0.5000 
     57 CA          2.8057  -11.7136  -43.9824 C.3       3 UNK         0.1400 
     58 CB          3.8927  -11.7023  -45.0801 C.3       3 UNK        -0.1800 
     59 N           1.4597  -11.9009  -44.5443 N.am      3 UNK        -0.5000 
     60 C           1.0303  -12.8811  -45.3518 C.2       2 UNK         0.5000 
     61 O           1.7500  -13.7543  -45.8384 O.2       2 UNK        -0.5000 
     62 CA         -0.4653  -12.8589  -45.6997 C.3       2 UNK         0.1400 
     63 CB         -0.7853  -11.7536  -46.7216 C.3       2 UNK        -0.1800 
     64 N          -0.8501  -14.1536  -46.2519 N.am      2 UNK        -0.5000 
     65 C          -2.0590  -14.7159  -46.1585 C.2       1 UNK         0.5000 
     66 O          -3.0081  -14.1790  -45.5858 O.2       1 UNK        -0.5000 
     67 C          -1.2124  -23.9178  -47.1955 C.2       11 UNK         0.5000 
     68 O          -0.6600  -24.5401  -48.1011 O.2       11 UNK        -0.5000 
     69 N          -0.8329  -24.0059  -45.9110 N.am      12 UNK        -0.5000 
     70 CA          0.3365  -24.7742  -45.4750 C.3       12 UNK         0.1400 
     71 CB          0.2413  -25.0603  -43.9690 C.3       12 UNK        -0.1800 
     72 C           1.6706  -24.0805  -45.8213 C.2       12 UNK         0.5000 
     73 O           2.6753  -24.7719  -45.9894 O.2       12 UNK        -0.5000 
     74 N           1.6616  -22.7440  -45.9384 N.am      13 UNK        -0.5000 
     75 CA          2.8156  -21.9449  -46.3560 C.3       13 UNK         0.1400 
     76 CB          2.8251  -20.6076  -45.5996 C.3       13 UNK        -0.1800 
     77 C           2.8075  -21.7073  -47.8736 C.2       13 UNK         0.5000 
     78 O           3.8490  -21.8406  -48.5164 O.2       13 UNK        -0.5000 
     79 N           1.6307  -21.3739  -48.4213 N.am      14 UNK        -0.5000 
     80 CA          1.4216  -21.0906  -49.8434 C.3       14 UNK         0.1400 
     81 CB          0.1285  -20.2780  -49.9929 C.3       14 UNK        -0.1800 
     82 C           1.3831  -22.3512  -50.7329 C.2       14 UNK         0.5000 
     83 O           1.4180  -22.2219  -51.9565 O.2       14 UNK        -0.5000 
     84 N           1.2989  -23.5355  -50.1090 N.am      15 UNK        -0.5000 
     85 CA          1.2896  -24.8741  -50.7105 C.3       15 UNK         0.1400 
     86 CB          2.6263  -25.1609  -51.4266 C.3       15 UNK        -0.1800 
     87 C           0.0573  -25.1522  -51.5987 C.2       15 UNK         0.5000 
     88 O           0.1484  -25.9570  -52.5273 O.2       15 UNK        -0.5000 
     89 N          -1.0702  -24.4933  -51.2814 N.am      16 UNK        -0.5000 
     90 CA         -2.3749  -24.5743  -51.9519 C.3       16 UNK         0.1400 
     91 CB         -3.0547  -25.9208  -51.6311 C.3       16 UNK        -0.1800 
     92 C          -2.2739  -24.2918  -53.4667 C.2       16 UNK         0.5000 
     93 O          -2.6080  -25.1475  -54.2880 O.2       16 UNK        -0.5000 
     94 N          -1.7533  -23.1003  -53.7904 N.am      17 UNK        -0.5000 
     95 CA         -1.3524  -22.6644  -55.1311 C.3       17 UNK         0.1400 
     96 CB         -0.7619  -21.2485  -55.0201 C.3       17 UNK        -0.1800 
     97 C          -2.4520  -22.6869  -56.2127 C.2       17 UNK         0.5000 
     98 O          -2.1200  -22.8167  -57.3917 O.2       17 UNK        -0.5000 
     99 N          -3.7179  -22.5228  -55.8009 N.am      18 UNK        -0.5000 
    100 CA        -4.9020  -22.2941  -56.6388 C.3       18 UNK         0.1400 
    101 CB        -5.2146  -23.5176  -57.5250 C.3       18 UNK        -0.1800 
    102 C         -4.7815  -20.9709  -57.4249 C.2       18 UNK         0.5000 
    103 O         -5.0811  -20.9161  -58.6193 O.2       18 UNK        -0.5000 
    104 N         -4.3081  -19.9338  -56.7253 N.am      19 UNK        -0.5000 
    105 CA        -3.9876  -18.6135  -57.2532 C.3       19 UNK         0.1400 
    106 CB        -2.6572  -18.6607  -58.0368 C.3       19 UNK        -0.1800 
    107 C         -3.9814  -17.6253  -56.0779 C.2       19 UNK         0.5000 
    108 O         -5.0498  -17.1629  -55.6774 O.2       19 UNK        -0.5000 
    109 N         -2.7925  -17.3446  -55.5218 N.am      20 UNK        -0.5000 
    110 CA        -2.5871  -16.4786  -54.3524 C.3       20 UNK         0.1400 
    111 CB        -1.0815  -16.2322  -54.1700 C.3       20 UNK        -0.1800 
    112 C         -3.1961  -17.0485  -53.0556 C.2       20 UNK         0.5000 
    113 O         -3.5665  -16.2844  -52.1644 O.2       20 UNK        -0.5000 
    114 N         -3.3050  -18.3781  -52.9963 N.am      21 UNK        -0.5000 
    115 CA        -4.0678  -19.1350  -52.0173 C.3       21 UNK         0.1400 
    116 CB        -3.0963  -19.8442  -51.0665 C.3       21 UNK        -0.1800 
    117 C         -4.9238  -20.1413  -52.7917 C.2       21 UNK         0.5000 
    118 O         -4.4960  -20.5856  -53.8605 O.2       21 UNK        -0.5000 
    119 N         -6.1084  -20.4702  -52.2653 N.am      22 UNK        -0.5000 
    120 CA        -7.1038  -21.3135  -52.9523 C.3       22 UNK         0.1400 
    121 C         -6.7195  -22.8160  -53.0708 C.2       22 UNK         0.5000 
    122 N         -5.8223  -23.3378  -52.2447 N.am      22 UNK        -0.7600 
    123 O         -7.2433  -23.5167  -53.9314 O.2       22 UNK        -0.5000 
    124 C124       -8.5282  -21.1753  -52.3515 C.3       23 UNK        -0.0398 
    125 S125       -9.1037  -19.4458  -52.2036 S.3       23 UNK        -0.2404 
    126 C126       -9.3093  -19.2596  -50.4006 C.3       23 UNK        -0.0205 
    127 H127       -1.2989  -15.7106  -50.7068 H         1 UNK         0.0600 
    128 H128       -0.2614  -17.1391  -50.6468 H         1 UNK         0.0600 
    129 H129        0.4388  -15.5259  -50.4702 H         1 UNK         0.0600 
    130 H130       -2.5784  -15.8053  -48.8720 H         1 UNK         0.3000 
    131 H131       -1.5149  -16.7497  -46.3004 H         1 UNK         0.0600 
    132 H132       -3.9046  -16.7307  -45.5752 H         1 UNK         0.0800 
    133 H133       -3.5541  -17.8052  -46.8847 H         1 UNK         0.0800 
    134 H134       -5.2555  -16.3935  -49.9514 H         1 UNK         0.0800 
    135 H135       -3.9517  -17.3632  -49.3384 H         1 UNK         0.0800 
    136 H136       -7.4798  -17.2667  -50.1219 H         1 UNK         0.1150 
    137 H137       -8.1762  -21.3676  -49.0847 H         1 UNK         0.1150 
    138 H138       -4.4818  -19.4957  -48.0152 H         1 UNK         0.1150 
    139 H139       -5.2755  -21.6556  -46.9261 H         1 UNK         0.0800 
    140 H140       -6.6404  -22.5092  -47.5949 H         1 UNK         0.0800 
    141 H141       -4.2023  -24.0094  -47.0254 H         1 UNK         0.0800 
    142 H142       -3.4321  -24.6420  -48.4551 H         1 UNK         0.0800 
    143 H143       -2.0103  -22.4474  -48.4761 H         1 UNK         0.0600 
    144 H144       -3.4663  -21.9414  -46.0791 H         1 UNK         0.3000 
    145 H145       -1.9439  -18.9675  -45.5226 H         1 UNK         0.0600 
    146 H146       -3.9016  -19.2480  -44.0371 H         1 UNK         0.0600 
    147 H147       -4.2823  -19.8503  -45.6352 H         1 UNK         0.0600 
    148 H148       -3.9331  -20.9800  -44.3260 H         1 UNK         0.0600 
    149 H149       -0.8762  -19.2390  -43.6333 H         1 UNK         0.3000 
    150 H150       -0.5663  -21.8671  -41.2480 H         1 UNK         0.0600 
    151 H151        1.4003  -22.1485  -42.8325 H         1 UNK         0.0600 
    152 H152        1.8121  -21.3063  -41.3460 H         1 UNK         0.0600 
    153 H153        1.5903  -20.3999  -42.8357 H         1 UNK         0.0600 
    154 H154        0.3441  -19.1607  -41.2289 H         1 UNK         0.3000 
    155 H155       -2.5653  -17.7854  -39.6392 H         1 UNK         0.0600 
    156 H156       -0.7538  -17.1436  -38.0723 H         1 UNK         0.0600 
    157 H157        0.3108  -18.3698  -38.7572 H         1 UNK         0.0600 
    158 H158       -1.1498  -18.8466  -37.9015 H         1 UNK         0.0600 
    159 H159        0.0437  -16.9627  -40.7860 H         1 UNK         0.3000 
    160 H160       -1.4695  -15.1607  -43.4238 H         1 UNK         0.0600 
    161 H161       -0.2100  -13.9714  -40.8993 H         1 UNK         0.0600 
    162 H162       -1.8071  -13.5645  -41.5189 H         1 UNK         0.0600 
    163 H163       -0.3797  -13.1680  -42.4576 H         1 UNK         0.0600 
    164 H164        1.2217  -15.1731  -42.5310 H         1 UNK         0.3000 
    165 H165        2.1403  -18.3720  -43.8228 H         1 UNK         0.0600 
    166 H166        3.1001  -15.6856  -44.8799 H         1 UNK         0.0600 
    167 H167        3.7481  -17.2827  -45.2260 H         1 UNK         0.0600 
    168 H168        2.1776  -16.8205  -45.8651 H         1 UNK         0.0600 
    169 H169        3.7996  -16.3630  -42.7357 H         1 UNK         0.3000 
    170 H170        3.3350  -17.0929  -39.2883 H         1 UNK         0.0600 
    171 H171        4.8506  -18.8466  -40.1245 H         1 UNK         0.0600 
    172 H172        5.6227  -17.7189  -41.2267 H         1 UNK         0.0600 
    173 H173        5.7799  -17.5001  -39.4843 H         1 UNK         0.0600 
    174 H174        3.7267  -14.9632  -39.5460 H         1 UNK         0.3000 
    175 H175        4.1516  -13.0080  -40.2350 H         1 UNK         0.0600 
    176 H176        6.2520  -11.7374  -40.5207 H         1 UNK         0.0600 
    177 H177        6.6097  -13.3224  -39.8545 H         1 UNK         0.0600 
    178 H178        6.9169  -13.0011  -41.5568 H         1 UNK         0.0600 
    179 H179        4.9442  -11.8363  -42.6081 H         1 UNK         0.3000 
    180 H180        2.7905  -10.7214  -43.5291 H         1 UNK         0.0600 
    181 H181        3.5987  -11.0746  -45.9214 H         1 UNK         0.0600 
    182 H182        4.8341  -11.3054  -44.6998 H         1 UNK         0.0600 
    183 H183        4.0969  -12.7029  -45.4625 H         1 UNK         0.0600 
    184 H184        0.7726  -11.2444  -44.2020 H         1 UNK         0.3000 
    185 H185       -1.0226  -12.6758  -44.7790 H         1 UNK         0.0600 
    186 H186       -1.8501  -11.7264  -46.9537 H         1 UNK         0.0600 
    187 H187       -0.5134  -10.7695  -46.3382 H         1 UNK         0.0600 
    188 H188       -0.2432  -11.9044  -47.6560 H         1 UNK         0.0600 
    189 H189       -0.0907  -14.6733  -46.6821 H         1 UNK         0.3000 
    190 H190       -1.3094  -23.4568  -45.2022 H         1 UNK         0.3000 
    191 H191        0.3263  -25.7366  -45.9917 H         1 UNK         0.0600 
    192 H192        1.0590  -25.7049  -43.6440 H         1 UNK         0.0600 
    193 H193       -0.6909  -25.5681  -43.7215 H         1 UNK         0.0600 
    194 H194        0.2930  -24.1482  -43.3769 H         1 UNK         0.0600 
    195 H195        0.7835  -22.2499  -45.8415 H         1 UNK         0.3000 
    196 H196        3.7423  -22.4678  -46.1097 H         1 UNK         0.0600 
    197 H197        3.5920  -19.9383  -45.9919 H         1 UNK         0.0600 
    198 H198        3.0515  -20.7642  -44.5464 H         1 UNK         0.0600 
    199 H199        1.8683  -20.0890  -45.6720 H         1 UNK         0.0600 
    200 H200        0.8289  -21.2325  -47.8105 H         1 UNK         0.3000 
    201 H201        2.2497  -20.4725  -50.1964 H         1 UNK         0.0600 
    202 H202        0.1655  -19.3656  -49.3972 H         1 UNK         0.0600 
    203 H203       -0.7413  -20.8495  -49.6711 H         1 UNK         0.0600 
    204 H204       -0.0305  -19.9825  -51.0307 H         1 UNK         0.0600 
    205 H205        1.2152  -23.5239  -49.1018 H         1 UNK         0.3000 
    206 H206        1.2145  -25.5735  -49.8767 H         1 UNK         0.0600 
    207 H207        3.4747  -24.9605  -50.7721 H         1 UNK         0.0600 
    208 H208        2.6926  -26.2065  -51.7295 H         1 UNK         0.0600 
    209 H209        2.7437  -24.5533  -52.3243 H         1 UNK         0.0600 
    210 H210       -1.0222  -23.8902  -50.4732 H         1 UNK         0.3000 
    211 H211       -2.9936  -23.7827  -51.5274 H         1 UNK         0.0600 
    212 H212       -2.4835  -26.7652  -52.0181 H         1 UNK         0.0600 
    213 H213       -4.0511  -25.9721  -52.0706 H         1 UNK         0.0600 
    214 H214       -3.1665  -26.0585  -50.5558 H         1 UNK         0.0600 
    215 H215       -1.4776  -22.4892  -53.0366 H         1 UNK         0.3000 
    216 H216       -0.5615  -23.3396  -55.4636 H         1 UNK         0.0600 
    217 H217       -1.4979  -20.5356  -54.6466 H         1 UNK         0.0600 
    218 H218       -0.4188  -20.8885  -55.9910 H         1 UNK         0.0600 
    219 H219        0.0962  -21.2292  -54.3477 H         1 UNK         0.0600 
    220 H220       -3.8630  -22.3523  -54.8129 H         1 UNK         0.3000 
    221 H221       -5.7408  -22.1646  -55.9545 H         1 UNK         0.0600 
    222 H222       -4.4542  -23.6754  -58.2900 H         1 UNK         0.0600 
    223 H223       -5.2841  -24.4264  -56.9270 H         1 UNK         0.0600 
    224 H224       -6.1693  -23.3917  -58.0365 H         1 UNK         0.0600 
    225 H225       -4.1810  -20.0633  -55.7256 H         1 UNK         0.3000 
    226 H226       -4.7814  -18.2976  -57.9332 H         1 UNK         0.0600 
    227 H227       -2.7588  -19.2616  -58.9407 H         1 UNK         0.0600 
    228 H228       -2.3485  -17.6628  -58.3508 H         1 UNK         0.0600 
    229 H229       -1.8488  -19.0952  -57.4477 H         1 UNK         0.0600 
    230 H230       -1.9641  -17.7566  -55.9259 H         1 UNK         0.3000 
    231 H231       -3.0722  -15.5208  -54.5513 H         1 UNK         0.0600 
    232 H232       -0.8947  -15.5612  -53.3305 H         1 UNK         0.0600 
    233 H233       -0.6465  -15.7694  -55.0560 H         1 UNK         0.0600 
    234 H234       -0.5420  -17.1599  -53.9746 H         1 UNK         0.0600 
    235 H235       -3.0230  -18.9155  -53.8030 H         1 UNK         0.3000 
    236 H236       -4.7322  -18.4730  -51.4654 H         1 UNK         0.0600 
    237 H237       -2.4792  -19.1219  -50.5325 H         1 UNK         0.0600 
    238 H238       -3.6313  -20.4269  -50.3205 H         1 UNK         0.0600 
    239 H239       -2.4358  -20.5255  -51.6037 H         1 UNK         0.0600 
    240 H240       -6.3977  -20.0725  -51.3823 H         1 UNK         0.3000 
    241 H241       -7.1621  -20.9446  -53.9785 H         1 UNK         0.0600 
    242 H242       -5.4366  -22.7901  -51.4912 H         1 UNK         0.3800 
    243 H243       -5.6127  -24.3189  -52.3201 H         1 UNK         0.3800 
    244 H244       -9.2479  -21.6982  -52.9839 H         1 UNK         0.0800 
    245 H245       -8.5828  -21.6688  -51.3815 H         1 UNK         0.0800 
    246 H246       -9.9828  -20.0323  -50.0266 H         1 UNK         0.0800 
    247 H247       -9.7988  -18.3059  -50.1976 H         1 UNK         0.0800 
@<TRIPOS>BOND
     1    1    2 1    
     2    1  127 1    
     3    1  128 1    
     4    1  129 1    
     5    2    3 2    
     6    2    4 am   BACKBONE|DICT|INTERRES
     7    4    5 1    
     8    4  130 1    
     9    5    6 1    
    10    5   65 1    
    11    5  131 1    
    12    6    7 1    
    13    6  132 1    
    14    6  133 1    
    15    7    8 1    
    16    8    9 1    
    17    8  134 1    
    18    8  135 1    
    19    9   10 ar   
    20    9   14 ar   
    21   10   11 ar   
    22   10  136 1    
    23   11   12 ar   
    24   11  126 1    
    25   12   13 ar   
    26   12  137 1    
    27   13   14 ar   
    28   13   15 1    
    29   14  138 1    
    30   15   16 1    
    31   15  139 1    
    32   15  140 1    
    33   16   17 1    
    34   17   18 1    
    35   17  141 1    
    36   17  142 1    
    37   18   19 1    
    38   18   67 1    
    39   18  143 1    
    40   19   20 am   BACKBONE|DICT|INTERRES
    41   19  144 1    
    42   20   21 2    
    43   20   22 1    
    44   22   23 1    
    45   22   24 1    
    46   22  145 1    
    47   23  146 1    
    48   23  147 1    
    49   23  148 1    
    50   24   25 am   BACKBONE|DICT|INTERRES
    51   24  149 1    
    52   25   26 2    
    53   25   27 1    
    54   27   28 1    
    55   27   29 1    
    56   27  150 1    
    57   28  151 1    
    58   28  152 1    
    59   28  153 1    
    60   29   30 am   BACKBONE|DICT|INTERRES
    61   29  154 1    
    62   30   31 2    
    63   30   32 1    
    64   32   33 1    
    65   32   34 1    
    66   32  155 1    
    67   33  156 1    
    68   33  157 1    
    69   33  158 1    
    70   34   35 am   BACKBONE|DICT|INTERRES
    71   34  159 1    
    72   35   36 2    
    73   35   37 1    
    74   37   38 1    
    75   37   39 1    
    76   37  160 1    
    77   38  161 1    
    78   38  162 1    
    79   38  163 1    
    80   39   40 am   BACKBONE|DICT|INTERRES
    81   39  164 1    
    82   40   41 2    
    83   40   42 1    
    84   42   43 1    
    85   42   44 1    
    86   42  165 1    
    87   43  166 1    
    88   43  167 1    
    89   43  168 1    
    90   44   45 am   BACKBONE|DICT|INTERRES
    91   44  169 1    
    92   45   46 2    
    93   45   47 1    
    94   47   48 1    
    95   47   49 1    
    96   47  170 1    
    97   48  171 1    
    98   48  172 1    
    99   48  173 1    
   100   49   50 am   BACKBONE|DICT|INTERRES
   101   49  174 1    
   102   50   51 2    
   103   50   52 1    
   104   52   53 1    
   105   52   54 1    
   106   52  175 1    
   107   53  176 1    
   108   53  177 1    
   109   53  178 1    
   110   54   55 am   BACKBONE|DICT|INTERRES
   111   54  179 1    
   112   55   56 2    
   113   55   57 1    
   114   57   58 1    
   115   57   59 1    
   116   57  180 1    
   117   58  181 1    
   118   58  182 1    
   119   58  183 1    
   120   59   60 am   BACKBONE|DICT|INTERRES
   121   59  184 1    
   122   60   61 2    
   123   60   62 1    
   124   62   63 1    
   125   62   64 1    
   126   62  185 1    
   127   63  186 1    
   128   63  187 1    
   129   63  188 1    
   130   64   65 am   BACKBONE|DICT|INTERRES
   131   64  189 1    
   132   65   66 2    
   133   67   68 2    
   134   67   69 am   BACKBONE|DICT|INTERRES
   135   69   70 1    
   136   69  190 1    
   137   70   71 1    
   138   70   72 1    
   139   70  191 1    
   140   71  192 1    
   141   71  193 1    
   142   71  194 1    
   143   72   73 2    
   144   72   74 am   BACKBONE|DICT|INTERRES
   145   74   75 1    
   146   74  195 1    
   147   75   76 1    
   148   75   77 1    
   149   75  196 1    
   150   76  197 1    
   151   76  198 1    
   152   76  199 1    
   153   77   78 2    
   154   77   79 am   BACKBONE|DICT|INTERRES
   155   79   80 1    
   156   79  200 1    
   157   80   81 1    
   158   80   82 1    
   159   80  201 1    
   160   81  202 1    
   161   81  203 1    
   162   81  204 1    
   163   82   83 2    
   164   82   84 am   BACKBONE|DICT|INTERRES
   165   84   85 1    
   166   84  205 1    
   167   85   86 1    
   168   85   87 1    
   169   85  206 1    
   170   86  207 1    
   171   86  208 1    
   172   86  209 1    
   173   87   88 2    
   174   87   89 am   BACKBONE|DICT|INTERRES
   175   89   90 1    
   176   89  210 1    
   177   90   91 1    
   178   90   92 1    
   179   90  211 1    
   180   91  212 1    
   181   91  213 1    
   182   91  214 1    
   183   92   93 2    
   184   92   94 am   BACKBONE|DICT|INTERRES
   185   94   95 1    
   186   94  215 1    
   187   95   96 1    
   188   95   97 1    
   189   95  216 1    
   190   96  217 1    
   191   96  218 1    
   192   96  219 1    
   193   97   98 2    
   194   97   99 am   BACKBONE|DICT|INTERRES
   195   99  100 1    
   196   99  220 1    
   197  100  101 1    
   198  100  102 1    
   199  100  221 1    
   200  101  222 1    
   201  101  223 1    
   202  101  224 1    
   203  102  103 2    
   204  102  104 am   BACKBONE|DICT|INTERRES
   205  104  105 1    
   206  104  225 1    
   207  105  106 1    
   208  105  107 1    
   209  105  226 1    
   210  106  227 1    
   211  106  228 1    
   212  106  229 1    
   213  107  108 2    
   214  107  109 am   BACKBONE|DICT|INTERRES
   215  109  110 1    
   216  109  230 1    
   217  110  111 1    
   218  110  112 1    
   219  110  231 1    
   220  111  232 1    
   221  111  233 1    
   222  111  234 1    
   223  112  113 2    
   224  112  114 am   BACKBONE|DICT|INTERRES
   225  114  115 1    
   226  114  235 1    
   227  115  116 1    
   228  115  117 1    
   229  115  236 1    
   230  116  237 1    
   231  116  238 1    
   232  116  239 1    
   233  117  118 2    
   234  117  119 am   BACKBONE|DICT|INTERRES
   235  119  120 1    
   236  119  240 1    
   237  120  121 1    
   238  120  124 1    
   239  120  241 1    
   240  121  122 am   BACKBONE|DICT|INTERRES
   241  121  123 2    
   242  122  242 1    
   243  122  243 1    
   244  124  125 1    
   245  124  244 1    
   246  124  245 1    
   247  125  126 1    
   248  126  246 1    
   249  126  247 1    
@<TRIPOS>SUBSTRUCTURE
     1 UNK         1 GROUP             0       ****    0 ROOT    
