@<TRIPOS>MOLECULE
3R540
247   249    1
SMALL
USER_CHARGES


@<TRIPOS>ATOM
      1 CA         -3.1377  -16.1786  -48.3465 C.3       0 UNK        -0.1800 
      2 C          -2.1697  -15.0864  -47.9136 C.2       0 UNK         0.5000 
      3 O          -2.5184  -13.9056  -47.9384 O.2       0 UNK        -0.5000 
      4 N          -0.9590  -15.4754  -47.4954 N.am      1 UNK        -0.5000 
      5 CA          0.1316  -14.6057  -47.0347 C.3       1 UNK         0.1400 
      6 C6          1.5118  -15.3044  -47.1633 C.3       23 UNK        -0.0398 
      7 S7          1.9359  -15.7069  -48.8904 S.3       23 UNK        -0.2404 
      8 C8          3.4750  -16.6665  -48.6739 C.3       23 UNK        -0.0205 
      9 C9          3.3619  -18.1294  -49.0999 C.ar      23 UNK        -0.0193 
     10 C10         2.8155  -18.4709  -50.3423 C.ar      23 UNK        -0.1150 
     11 C11         2.7937  -19.8004  -50.7764 C.ar      23 UNK        -0.0193 
     12 C12         3.3442  -20.7937  -49.9612 C.ar      23 UNK        -0.1150 
     13 C13         3.9170  -20.4697  -48.7277 C.ar      23 UNK        -0.0193 
     14 C14         3.9015  -19.1390  -48.2938 C.ar      23 UNK        -0.1150 
     15 C15         4.6608  -21.5344  -47.9267 C.3       23 UNK        -0.0205 
     16 S16         3.6221  -22.9460  -47.4279 S.3       23 UNK        -0.2404 
     17 C17         2.6767  -22.2123  -46.0533 C.3       23 UNK        -0.0398 
     18 CA          1.1584  -22.5060  -46.0855 C.3       11 UNK         0.1400 
     19 N           0.4981  -21.9597  -44.8965 N.am      11 UNK        -0.5000 
     20 C          -0.7902  -22.1327  -44.5710 C.2       10 UNK         0.5000 
     21 O          -1.5685  -22.8398  -45.2092 O.2       10 UNK        -0.5000 
     22 CA         -1.3086  -21.3496  -43.3514 C.3       10 UNK         0.1400 
     23 CB         -0.9450  -22.0727  -42.0462 C.3       10 UNK        -0.1800 
     24 N          -0.8115  -19.9730  -43.3093 N.am      10 UNK        -0.5000 
     25 C          -1.0965  -19.0317  -44.2214 C.2       9 UNK         0.5000 
     26 O          -1.8491  -19.2122  -45.1780 O.2       9 UNK        -0.5000 
     27 CA         -0.3770  -17.6780  -44.0736 C.3       9 UNK         0.1400 
     28 CB         -1.0329  -16.8157  -42.9856 C.3       9 UNK        -0.1800 
     29 N           1.0482  -17.8345  -43.7864 N.am      9 UNK        -0.5000 
     30 C           1.9269  -18.4278  -44.6055 C.2       8 UNK         0.5000 
     31 O           1.6386  -18.8532  -45.7227 O.2       8 UNK        -0.5000 
     32 CA          3.3517  -18.6306  -44.0648 C.3       8 UNK         0.1400 
     33 CB          4.1989  -17.3616  -44.2363 C.3       8 UNK        -0.1800 
     34 N           3.3457  -19.0404  -42.6604 N.am      8 UNK        -0.5000 
     35 C           2.9292  -20.2383  -42.2262 C.2       7 UNK         0.5000 
     36 O           2.5431  -21.1371  -42.9723 O.2       7 UNK        -0.5000 
     37 CA          2.9022  -20.4543  -40.7019 C.3       7 UNK         0.1400 
     38 CB          4.2942  -20.8476  -40.1858 C.3       7 UNK        -0.1800 
     39 N           2.4303  -19.2750  -39.9756 N.am      7 UNK        -0.5000 
     40 C           1.1816  -18.7921  -40.0453 C.2       6 UNK         0.5000 
     41 O           0.2802  -19.3210  -40.6942 O.2       6 UNK        -0.5000 
     42 CA          0.9097  -17.4652  -39.3101 C.3       6 UNK         0.1400 
     43 CB          0.5095  -17.7291  -37.8511 C.3       6 UNK        -0.1800 
     44 N           2.0415  -16.5320  -39.3440 N.am      6 UNK        -0.5000 
     45 C           2.5886  -16.0426  -40.4646 C.2       5 UNK         0.5000 
     46 O           2.2161  -16.3600  -41.5961 O.2       5 UNK        -0.5000 
     47 CA          3.7938  -15.0995  -40.2864 C.3       5 UNK         0.1400 
     48 CB          5.0729  -15.9195  -40.0528 C.3       5 UNK        -0.1800 
     49 N           4.0025  -14.2374  -41.4509 N.am      5 UNK        -0.5000 
     50 C           3.1571  -13.2833  -41.8611 C.2       4 UNK         0.5000 
     51 O           2.1501  -12.9556  -41.2276 O.2       4 UNK        -0.5000 
     52 CA          3.5187  -12.5681  -43.1804 C.3       4 UNK         0.1400 
     53 CB          4.0387  -13.5387  -44.2594 C.3       4 UNK        -0.1800 
     54 N           2.3549  -11.8653  -43.7152 N.am      4 UNK        -0.5000 
     55 C           2.0712  -10.5709  -43.5158 C.2       3 UNK         0.5000 
     56 O           2.8132   -9.7957  -42.9101 O.2       3 UNK        -0.5000 
     57 CA          0.7464  -10.0356  -44.1007 C.3       3 UNK         0.1400 
     58 CB          1.0155   -9.2010  -45.3629 C.3       3 UNK        -0.1800 
     59 N          -0.2068  -11.0945  -44.4356 N.am      3 UNK        -0.5000 
     60 C          -0.9403  -11.7771  -43.5460 C.2       2 UNK         0.5000 
     61 O          -0.9760  -11.5116  -42.3444 O.2       2 UNK        -0.5000 
     62 CA         -1.7679  -12.9622  -44.0852 C.3       2 UNK         0.1400 
     63 CB         -3.2480  -12.5733  -44.2183 C.3       2 UNK        -0.1800 
     64 N          -1.3026  -13.4882  -45.3730 N.am      2 UNK        -0.5000 
     65 C          -0.1231  -14.0798  -45.6015 C.2       1 UNK         0.5000 
     66 O           0.7376  -14.2063  -44.7319 O.2       1 UNK        -0.5000 
     67 C           0.4868  -22.0085  -47.3825 C.2       11 UNK         0.5000 
     68 O           0.1375  -22.8211  -48.2394 O.2       11 UNK        -0.5000 
     69 N           0.2666  -20.6914  -47.4726 N.am      12 UNK        -0.5000 
     70 CA         -0.4214  -20.0436  -48.5842 C.3       12 UNK         0.1400 
     71 CB         -0.3544  -18.5293  -48.3915 C.3       12 UNK        -0.1800 
     72 C          -1.8809  -20.5022  -48.7306 C.2       12 UNK         0.5000 
     73 O          -2.3179  -20.7611  -49.8491 O.2       12 UNK        -0.5000 
     74 N          -2.5981  -20.6320  -47.6053 N.am      13 UNK        -0.5000 
     75 CA         -3.9664  -21.1486  -47.5532 C.3       13 UNK         0.1400 
     76 CB         -4.5355  -20.9731  -46.1379 C.3       13 UNK        -0.1800 
     77 C          -4.0666  -22.6162  -48.0099 C.2       13 UNK         0.5000 
     78 O          -4.9825  -22.9544  -48.7602 O.2       13 UNK        -0.5000 
     79 N          -3.1075  -23.4506  -47.5853 N.am      14 UNK        -0.5000 
     80 CA         -2.9816  -24.8488  -47.9983 C.3       14 UNK         0.1400 
     81 CB         -1.9360  -25.5547  -47.1217 C.3       14 UNK        -0.1800 
     82 C          -2.6399  -25.0007  -49.4922 C.2       14 UNK         0.5000 
     83 O          -3.1818  -25.8923  -50.1459 O.2       14 UNK        -0.5000 
     84 N          -1.7709  -24.1201  -50.0092 N.am      15 UNK        -0.5000 
     85 CA         -1.4263  -24.0301  -51.4288 C.3       15 UNK         0.1400 
     86 CB         -0.2082  -23.1095  -51.6073 C.3       15 UNK        -0.1800 
     87 C          -2.6097  -23.5501  -52.2906 C.2       15 UNK         0.5000 
     88 O          -2.8294  -24.0937  -53.3733 O.2       15 UNK        -0.5000 
     89 N          -3.3503  -22.5540  -51.7863 N.am      16 UNK        -0.5000 
     90 CA         -4.5430  -21.9868  -52.4088 C.3       16 UNK         0.1400 
     91 CB         -4.9517  -20.7096  -51.6581 C.3       16 UNK        -0.1800 
     92 C          -5.7135  -22.9777  -52.4853 C.2       16 UNK         0.5000 
     93 O          -6.3042  -23.1314  -53.5557 O.2       16 UNK        -0.5000 
     94 N          -6.0258  -23.6226  -51.3517 N.am      17 UNK        -0.5000 
     95 CA         -7.1004  -24.6013  -51.1667 C.3       17 UNK         0.1400 
     96 CB         -6.6880  -25.9498  -51.7984 C.3       17 UNK        -0.1800 
     97 C          -8.4682  -24.0649  -51.6530 C.2       17 UNK         0.5000 
     98 O          -8.8214  -22.9284  -51.3303 O.2       17 UNK        -0.5000 
     99 N          -9.2022  -24.8709  -52.4303 N.am      18 UNK        -0.5000 
    100 CA       -10.4585  -24.4862  -53.0761 C.3       18 UNK         0.1400 
    101 CB       -11.3101  -25.7493  -53.2810 C.3       18 UNK        -0.1800 
    102 C        -10.2471  -23.7585  -54.4206 C.2       18 UNK         0.5000 
    103 O        -11.1859  -23.1328  -54.9149 O.2       18 UNK        -0.5000 
    104 N         -9.0438  -23.8661  -55.0042 N.am      19 UNK        -0.5000 
    105 CA        -8.6926  -23.2780  -56.3001 C.3       19 UNK         0.1400 
    106 CB        -7.4409  -23.9796  -56.8504 C.3       19 UNK        -0.1800 
    107 C         -8.4761  -21.7542  -56.2339 C.2       19 UNK         0.5000 
    108 O         -8.7951  -21.0630  -57.2021 O.2       19 UNK        -0.5000 
    109 N         -7.9623  -21.2837  -55.0882 N.am      20 UNK        -0.5000 
    110 CA        -7.5713  -19.9156  -54.7360 C.3       20 UNK         0.1400 
    111 CB        -8.6885  -18.8894  -55.0099 C.3       20 UNK        -0.1800 
    112 C         -6.2353  -19.4969  -55.3824 C.2       20 UNK         0.5000 
    113 O         -6.0283  -19.7125  -56.5781 O.2       20 UNK        -0.5000 
    114 N         -5.3748  -18.8757  -54.5600 N.am      21 UNK        -0.5000 
    115 CA        -4.0062  -18.4094  -54.8298 C.3       21 UNK         0.1400 
    116 CB        -3.9859  -17.3712  -55.9697 C.3       21 UNK        -0.1800 
    117 C         -2.9879  -19.5421  -55.0872 C.2       21 UNK         0.5000 
    118 O         -3.3529  -20.6445  -55.4969 O.2       21 UNK        -0.5000 
    119 N         -1.7062  -19.2397  -54.8452 N.am      22 UNK        -0.5000 
    120 CA        -0.5742  -20.1626  -55.0529 C.3       22 UNK         0.1400 
    121 C         -0.3029  -20.5476  -56.5405 C.2       22 UNK         0.5000 
    122 N         -0.8198  -19.8232  -57.5259 N.am      22 UNK        -0.7600 
    123 O          0.3947  -21.5233  -56.8034 O.2       22 UNK        -0.5000 
    124 C124        0.7281  -19.6222  -54.4092 C.3       23 UNK        -0.0398 
    125 S125        0.6604  -19.4685  -52.5887 S.3       23 UNK        -0.2404 
    126 C126        2.2995  -20.1558  -52.1733 C.3       23 UNK        -0.0205 
    127 H127       -2.9912  -17.0926  -47.7707 H         1 UNK         0.0600 
    128 H128       -3.0003  -16.4075  -49.4033 H         1 UNK         0.0600 
    129 H129       -4.1679  -15.8546  -48.1982 H         1 UNK         0.0600 
    130 H130       -0.7334  -16.4587  -47.5167 H         1 UNK         0.3000 
    131 H131        0.1538  -13.7239  -47.6787 H         1 UNK         0.0600 
    132 H132        2.3060  -14.6624  -46.7780 H         1 UNK         0.0800 
    133 H133        1.5353  -16.2184  -46.5692 H         1 UNK         0.0800 
    134 H134        4.2556  -16.1987  -49.2748 H         1 UNK         0.0800 
    135 H135        3.8100  -16.5947  -47.6388 H         1 UNK         0.0800 
    136 H136        2.4316  -17.6942  -50.9885 H         1 UNK         0.1150 
    137 H137        3.3753  -21.8175  -50.3068 H         1 UNK         0.1150 
    138 H138        4.3599  -18.8798  -47.3501 H         1 UNK         0.1150 
    139 H139        5.4785  -21.9128  -48.5416 H         1 UNK         0.0800 
    140 H140        5.1284  -21.1026  -47.0404 H         1 UNK         0.0800 
    141 H141        2.8485  -21.1371  -46.0332 H         1 UNK         0.0800 
    142 H142        3.1042  -22.6005  -45.1283 H         1 UNK         0.0800 
    143 H143        1.0277  -23.5895  -46.0504 H         1 UNK         0.0600 
    144 H144        1.0820  -21.4063  -44.2775 H         1 UNK         0.3000 
    145 H145       -2.3972  -21.3077  -43.4226 H         1 UNK         0.0600 
    146 H146       -1.3855  -21.5724  -41.1837 H         1 UNK         0.0600 
    147 H147       -1.3151  -23.0987  -42.0513 H         1 UNK         0.0600 
    148 H148        0.1339  -22.1123  -41.8941 H         1 UNK         0.0600 
    149 H149       -0.2247  -19.7271  -42.5169 H         1 UNK         0.3000 
    150 H150       -0.4641  -17.1484  -45.0237 H         1 UNK         0.0600 
    151 H151       -2.0658  -16.5816  -43.2456 H         1 UNK         0.0600 
    152 H152       -0.5036  -15.8711  -42.8595 H         1 UNK         0.0600 
    153 H153       -1.0427  -17.3208  -42.0201 H         1 UNK         0.0600 
    154 H154        1.3871  -17.4500  -42.9080 H         1 UNK         0.3000 
    155 H155        3.8201  -19.4245  -44.6496 H         1 UNK         0.0600 
    156 H156        3.8107  -16.5339  -43.6449 H         1 UNK         0.0600 
    157 H157        5.2314  -17.5336  -43.9324 H         1 UNK         0.0600 
    158 H158        4.2154  -17.0400  -45.2777 H         1 UNK         0.0600 
    159 H159        3.5737  -18.3298  -41.9813 H         1 UNK         0.3000 
    160 H160        2.2159  -21.2782  -40.4948 H         1 UNK         0.0600 
    161 H161        5.0228  -20.0505  -40.3392 H         1 UNK         0.0600 
    162 H162        4.6646  -21.7349  -40.7012 H         1 UNK         0.0600 
    163 H163        4.2687  -21.0790  -39.1208 H         1 UNK         0.0600 
    164 H164        3.1080  -18.7783  -39.4167 H         1 UNK         0.3000 
    165 H165        0.0694  -16.9804  -39.8108 H         1 UNK         0.0600 
    166 H166        0.2223  -16.8060  -37.3473 H         1 UNK         0.0600 
    167 H167       -0.3444  -18.4059  -37.7971 H         1 UNK         0.0600 
    168 H168        1.3241  -18.1824  -37.2849 H         1 UNK         0.0600 
    169 H169        2.4091  -16.2394  -38.4501 H         1 UNK         0.3000 
    170 H170        3.6137  -14.4641  -39.4169 H         1 UNK         0.0600 
    171 H171        4.9801  -16.5542  -39.1706 H         1 UNK         0.0600 
    172 H172        5.2968  -16.5676  -40.9014 H         1 UNK         0.0600 
    173 H173        5.9335  -15.2700  -39.8915 H         1 UNK         0.0600 
    174 H174        4.7979  -14.4578  -42.0307 H         1 UNK         0.3000 
    175 H175        4.3144  -11.8546  -42.9574 H         1 UNK         0.0600 
    176 H176        3.3375  -14.3533  -44.4382 H         1 UNK         0.0600 
    177 H177        4.1966  -13.0242  -45.2074 H         1 UNK         0.0600 
    178 H178        4.9944  -13.9804  -43.9766 H         1 UNK         0.0600 
    179 H179        1.6537  -12.4598  -44.1421 H         1 UNK         0.3000 
    180 H180        0.2952   -9.3834  -43.3499 H         1 UNK         0.0600 
    181 H181        1.4656   -9.8017  -46.1543 H         1 UNK         0.0600 
    182 H182        1.6970   -8.3766  -45.1488 H         1 UNK         0.0600 
    183 H183        0.0948   -8.7660  -45.7524 H         1 UNK         0.0600 
    184 H184       -0.2588  -11.3688  -45.4053 H         1 UNK         0.3000 
    185 H185       -1.6917  -13.7661  -43.3510 H         1 UNK         0.0600 
    186 H186       -3.6438  -12.2052  -43.2708 H         1 UNK         0.0600 
    187 H187       -3.3909  -11.7884  -44.9621 H         1 UNK         0.0600 
    188 H188       -3.8556  -13.4294  -44.5124 H         1 UNK         0.0600 
    189 H189       -1.9490  -13.4277  -46.1550 H         1 UNK         0.3000 
    190 H190        0.6233  -20.0799  -46.7426 H         1 UNK         0.3000 
    191 H191        0.1110  -20.2996  -49.5023 H         1 UNK         0.0600 
    192 H192       -0.8862  -18.2268  -47.4910 H         1 UNK         0.0600 
    193 H193       -0.7862  -18.0042  -49.2444 H         1 UNK         0.0600 
    194 H194        0.6783  -18.2048  -48.2897 H         1 UNK         0.0600 
    195 H195       -2.1839  -20.3461  -46.7226 H         1 UNK         0.3000 
    196 H196       -4.5718  -20.5472  -48.2338 H         1 UNK         0.0600 
    197 H197       -4.5331  -19.9244  -45.8400 H         1 UNK         0.0600 
    198 H198       -3.9606  -21.5315  -45.3994 H         1 UNK         0.0600 
    199 H199       -5.5667  -21.3243  -46.0858 H         1 UNK         0.0600 
    200 H200       -2.4152  -23.1072  -46.9249 H         1 UNK         0.3000 
    201 H201       -3.9454  -25.3337  -47.8296 H         1 UNK         0.0600 
    202 H202       -2.2171  -25.5195  -46.0690 H         1 UNK         0.0600 
    203 H203       -0.9516  -25.0965  -47.2192 H         1 UNK         0.0600 
    204 H204       -1.8390  -26.6052  -47.3983 H         1 UNK         0.0600 
    205 H205       -1.3095  -23.4650  -49.3842 H         1 UNK         0.3000 
    206 H206       -1.1477  -25.0288  -51.7714 H         1 UNK         0.0600 
    207 H207        0.0786  -23.0374  -52.6571 H         1 UNK         0.0600 
    208 H208       -0.4117  -22.0986  -51.2542 H         1 UNK         0.0600 
    209 H209        0.6551  -23.4847  -51.0573 H         1 UNK         0.0600 
    210 H210       -3.0427  -22.1115  -50.9238 H         1 UNK         0.3000 
    211 H211       -4.2896  -21.7163  -53.4317 H         1 UNK         0.0600 
    212 H212       -5.0937  -20.8976  -50.5945 H         1 UNK         0.0600 
    213 H213       -5.8886  -20.3058  -52.0362 H         1 UNK         0.0600 
    214 H214       -4.1921  -19.9343  -51.7609 H         1 UNK         0.0600 
    215 H215       -5.5168  -23.3788  -50.5049 H         1 UNK         0.3000 
    216 H216       -7.1955  -24.7510  -50.0905 H         1 UNK         0.0600 
    217 H217       -7.4059  -26.7370  -51.5656 H         1 UNK         0.0600 
    218 H218       -5.7235  -26.2784  -51.4106 H         1 UNK         0.0600 
    219 H219       -6.5970  -25.8828  -52.8833 H         1 UNK         0.0600 
    220 H220       -8.8472  -25.7918  -52.6444 H         1 UNK         0.3000 
    221 H221      -11.0104  -23.8100  -52.4197 H         1 UNK         0.0600 
    222 H222      -10.8152  -26.4675  -53.9360 H         1 UNK         0.0600 
    223 H223      -11.5148  -26.2451  -52.3318 H         1 UNK         0.0600 
    224 H224      -12.2728  -25.5037  -53.7313 H         1 UNK         0.0600 
    225 H225       -8.3058  -24.3485  -54.5117 H         1 UNK         0.3000 
    226 H226       -9.5141  -23.4650  -56.9952 H         1 UNK         0.0600 
    227 H227       -7.6075  -25.0505  -56.9672 H         1 UNK         0.0600 
    228 H228       -7.1719  -23.5835  -57.8304 H         1 UNK         0.0600 
    229 H229       -6.5800  -23.8424  -56.1951 H         1 UNK         0.0600 
    230 H230       -7.6661  -21.9879  -54.4187 H         1 UNK         0.3000 
    231 H231       -7.4315  -19.9428  -53.6560 H         1 UNK         0.0600 
    232 H232       -8.4409  -17.9241  -54.5671 H         1 UNK         0.0600 
    233 H233       -9.6370  -19.2116  -54.5799 H         1 UNK         0.0600 
    234 H234       -8.8398  -18.7220  -56.0764 H         1 UNK         0.0600 
    235 H235       -5.6723  -18.7348  -53.6057 H         1 UNK         0.3000 
    236 H236       -3.6906  -17.9031  -53.9161 H         1 UNK         0.0600 
    237 H237       -4.2214  -17.8198  -56.9351 H         1 UNK         0.0600 
    238 H238       -4.7035  -16.5712  -55.7877 H         1 UNK         0.0600 
    239 H239       -3.0028  -16.9083  -56.0604 H         1 UNK         0.0600 
    240 H240       -1.4678  -18.3206  -54.5023 H         1 UNK         0.3000 
    241 H241       -0.8280  -21.0966  -54.5469 H         1 UNK         0.0600 
    242 H242       -1.3994  -19.0241  -57.3278 H         1 UNK         0.3800 
    243 H243       -0.6380  -20.0859  -58.4820 H         1 UNK         0.3800 
    244 H244        1.5633  -20.2771  -54.6647 H         1 UNK         0.0800 
    245 H245        0.9802  -18.6457  -54.8261 H         1 UNK         0.0800 
    246 H246        2.2628  -21.2381  -52.3067 H         1 UNK         0.0800 
    247 H247        3.0380  -19.7805  -52.8831 H         1 UNK         0.0800 
@<TRIPOS>BOND
     1    1    2 1    
     2    1  127 1    
     3    1  128 1    
     4    1  129 1    
     5    2    3 2    
     6    2    4 am   BACKBONE|DICT|INTERRES
     7    4    5 1    
     8    4  130 1    
     9    5    6 1    
    10    5   65 1    
    11    5  131 1    
    12    6    7 1    
    13    6  132 1    
    14    6  133 1    
    15    7    8 1    
    16    8    9 1    
    17    8  134 1    
    18    8  135 1    
    19    9   10 ar   
    20    9   14 ar   
    21   10   11 ar   
    22   10  136 1    
    23   11   12 ar   
    24   11  126 1    
    25   12   13 ar   
    26   12  137 1    
    27   13   14 ar   
    28   13   15 1    
    29   14  138 1    
    30   15   16 1    
    31   15  139 1    
    32   15  140 1    
    33   16   17 1    
    34   17   18 1    
    35   17  141 1    
    36   17  142 1    
    37   18   19 1    
    38   18   67 1    
    39   18  143 1    
    40   19   20 am   BACKBONE|DICT|INTERRES
    41   19  144 1    
    42   20   21 2    
    43   20   22 1    
    44   22   23 1    
    45   22   24 1    
    46   22  145 1    
    47   23  146 1    
    48   23  147 1    
    49   23  148 1    
    50   24   25 am   BACKBONE|DICT|INTERRES
    51   24  149 1    
    52   25   26 2    
    53   25   27 1    
    54   27   28 1    
    55   27   29 1    
    56   27  150 1    
    57   28  151 1    
    58   28  152 1    
    59   28  153 1    
    60   29   30 am   BACKBONE|DICT|INTERRES
    61   29  154 1    
    62   30   31 2    
    63   30   32 1    
    64   32   33 1    
    65   32   34 1    
    66   32  155 1    
    67   33  156 1    
    68   33  157 1    
    69   33  158 1    
    70   34   35 am   BACKBONE|DICT|INTERRES
    71   34  159 1    
    72   35   36 2    
    73   35   37 1    
    74   37   38 1    
    75   37   39 1    
    76   37  160 1    
    77   38  161 1    
    78   38  162 1    
    79   38  163 1    
    80   39   40 am   BACKBONE|DICT|INTERRES
    81   39  164 1    
    82   40   41 2    
    83   40   42 1    
    84   42   43 1    
    85   42   44 1    
    86   42  165 1    
    87   43  166 1    
    88   43  167 1    
    89   43  168 1    
    90   44   45 am   BACKBONE|DICT|INTERRES
    91   44  169 1    
    92   45   46 2    
    93   45   47 1    
    94   47   48 1    
    95   47   49 1    
    96   47  170 1    
    97   48  171 1    
    98   48  172 1    
    99   48  173 1    
   100   49   50 am   BACKBONE|DICT|INTERRES
   101   49  174 1    
   102   50   51 2    
   103   50   52 1    
   104   52   53 1    
   105   52   54 1    
   106   52  175 1    
   107   53  176 1    
   108   53  177 1    
   109   53  178 1    
   110   54   55 am   BACKBONE|DICT|INTERRES
   111   54  179 1    
   112   55   56 2    
   113   55   57 1    
   114   57   58 1    
   115   57   59 1    
   116   57  180 1    
   117   58  181 1    
   118   58  182 1    
   119   58  183 1    
   120   59   60 am   BACKBONE|DICT|INTERRES
   121   59  184 1    
   122   60   61 2    
   123   60   62 1    
   124   62   63 1    
   125   62   64 1    
   126   62  185 1    
   127   63  186 1    
   128   63  187 1    
   129   63  188 1    
   130   64   65 am   BACKBONE|DICT|INTERRES
   131   64  189 1    
   132   65   66 2    
   133   67   68 2    
   134   67   69 am   BACKBONE|DICT|INTERRES
   135   69   70 1    
   136   69  190 1    
   137   70   71 1    
   138   70   72 1    
   139   70  191 1    
   140   71  192 1    
   141   71  193 1    
   142   71  194 1    
   143   72   73 2    
   144   72   74 am   BACKBONE|DICT|INTERRES
   145   74   75 1    
   146   74  195 1    
   147   75   76 1    
   148   75   77 1    
   149   75  196 1    
   150   76  197 1    
   151   76  198 1    
   152   76  199 1    
   153   77   78 2    
   154   77   79 am   BACKBONE|DICT|INTERRES
   155   79   80 1    
   156   79  200 1    
   157   80   81 1    
   158   80   82 1    
   159   80  201 1    
   160   81  202 1    
   161   81  203 1    
   162   81  204 1    
   163   82   83 2    
   164   82   84 am   BACKBONE|DICT|INTERRES
   165   84   85 1    
   166   84  205 1    
   167   85   86 1    
   168   85   87 1    
   169   85  206 1    
   170   86  207 1    
   171   86  208 1    
   172   86  209 1    
   173   87   88 2    
   174   87   89 am   BACKBONE|DICT|INTERRES
   175   89   90 1    
   176   89  210 1    
   177   90   91 1    
   178   90   92 1    
   179   90  211 1    
   180   91  212 1    
   181   91  213 1    
   182   91  214 1    
   183   92   93 2    
   184   92   94 am   BACKBONE|DICT|INTERRES
   185   94   95 1    
   186   94  215 1    
   187   95   96 1    
   188   95   97 1    
   189   95  216 1    
   190   96  217 1    
   191   96  218 1    
   192   96  219 1    
   193   97   98 2    
   194   97   99 am   BACKBONE|DICT|INTERRES
   195   99  100 1    
   196   99  220 1    
   197  100  101 1    
   198  100  102 1    
   199  100  221 1    
   200  101  222 1    
   201  101  223 1    
   202  101  224 1    
   203  102  103 2    
   204  102  104 am   BACKBONE|DICT|INTERRES
   205  104  105 1    
   206  104  225 1    
   207  105  106 1    
   208  105  107 1    
   209  105  226 1    
   210  106  227 1    
   211  106  228 1    
   212  106  229 1    
   213  107  108 2    
   214  107  109 am   BACKBONE|DICT|INTERRES
   215  109  110 1    
   216  109  230 1    
   217  110  111 1    
   218  110  112 1    
   219  110  231 1    
   220  111  232 1    
   221  111  233 1    
   222  111  234 1    
   223  112  113 2    
   224  112  114 am   BACKBONE|DICT|INTERRES
   225  114  115 1    
   226  114  235 1    
   227  115  116 1    
   228  115  117 1    
   229  115  236 1    
   230  116  237 1    
   231  116  238 1    
   232  116  239 1    
   233  117  118 2    
   234  117  119 am   BACKBONE|DICT|INTERRES
   235  119  120 1    
   236  119  240 1    
   237  120  121 1    
   238  120  124 1    
   239  120  241 1    
   240  121  122 am   BACKBONE|DICT|INTERRES
   241  121  123 2    
   242  122  242 1    
   243  122  243 1    
   244  124  125 1    
   245  124  244 1    
   246  124  245 1    
   247  125  126 1    
   248  126  246 1    
   249  126  247 1    
@<TRIPOS>SUBSTRUCTURE
     1 UNK         1 GROUP             0       ****    0 ROOT    
