@<TRIPOS>MOLECULE
3R540
247   249    1
SMALL
USER_CHARGES


@<TRIPOS>ATOM
      1 CA          7.0980  -11.4257  -45.4020 C.3       0 UNK        -0.1800 
      2 C           5.7055  -12.0136  -45.5716 C.2       0 UNK         0.5000 
      3 O           4.7606  -11.5316  -44.9499 O.2       0 UNK        -0.5000 
      4 N           5.5698  -13.0361  -46.4266 N.am      1 UNK        -0.5000 
      5 CA          4.3377  -13.7912  -46.7119 C.3       1 UNK         0.1400 
      6 C6          4.6450  -14.9471  -47.6968 C.3       23 UNK        -0.0398 
      7 S7          3.3848  -16.2662  -47.7254 S.3       23 UNK        -0.2404 
      8 C8          2.8900  -16.2043  -49.4759 C.3       23 UNK        -0.0205 
      9 C9          1.8852  -17.2945  -49.8078 C.ar      23 UNK        -0.0193 
     10 C10         0.5307  -16.9884  -49.9568 C.ar      23 UNK        -0.1150 
     11 C11        -0.3955  -17.9927  -50.2525 C.ar      23 UNK        -0.0193 
     12 C12         0.0404  -19.3141  -50.3867 C.ar      23 UNK        -0.1150 
     13 C13         1.3941  -19.6336  -50.2416 C.ar      23 UNK        -0.0193 
     14 C14         2.3129  -18.6146  -49.9693 C.ar      23 UNK        -0.1150 
     15 C15         1.8514  -21.0837  -50.3608 C.3       23 UNK        -0.0205 
     16 S16         2.9031  -21.6361  -48.9712 S.3       23 UNK        -0.2404 
     17 C17         1.9070  -21.1718  -47.5112 C.3       23 UNK        -0.0398 
     18 CA          1.1177  -22.3409  -46.8830 C.3       11 UNK         0.1400 
     19 N           0.5952  -21.9729  -45.5672 N.am      11 UNK        -0.5000 
     20 C           0.0087  -22.8108  -44.7033 C.2       10 UNK         0.5000 
     21 O          -0.1075  -24.0205  -44.8950 O.2       10 UNK        -0.5000 
     22 CA         -0.5937  -22.1812  -43.4343 C.3       10 UNK         0.1400 
     23 CB          0.4912  -21.9423  -42.3741 C.3       10 UNK        -0.1800 
     24 N          -1.3031  -20.9298  -43.7108 N.am      10 UNK        -0.5000 
     25 C          -2.3973  -20.8391  -44.4811 C.2       9 UNK         0.5000 
     26 O          -2.9475  -21.8102  -44.9995 O.2       9 UNK        -0.5000 
     27 CA         -2.9486  -19.4289  -44.7554 C.3       9 UNK         0.1400 
     28 CB         -3.7761  -18.9256  -43.5636 C.3       9 UNK        -0.1800 
     29 N          -1.8992  -18.4609  -45.0751 N.am      9 UNK        -0.5000 
     30 C          -1.0985  -18.5313  -46.1486 C.2       8 UNK         0.5000 
     31 O          -1.1863  -19.4077  -47.0076 O.2       8 UNK        -0.5000 
     32 CA          0.0238  -17.4810  -46.2473 C.3       8 UNK         0.1400 
     33 CB         -0.5240  -16.1304  -46.7286 C.3       8 UNK        -0.1800 
     34 N           0.7279  -17.2960  -44.9783 N.am      8 UNK        -0.5000 
     35 C           1.4051  -18.2584  -44.3368 C.2       7 UNK         0.5000 
     36 O           1.5624  -19.3971  -44.7742 O.2       7 UNK        -0.5000 
     37 CA          1.9406  -17.9089  -42.9400 C.3       7 UNK         0.1400 
     38 CB          3.2772  -17.1567  -43.0335 C.3       7 UNK        -0.1800 
     39 N           0.9687  -17.1244  -42.1771 N.am      7 UNK        -0.5000 
     40 C          -0.1740  -17.6229  -41.6819 C.2       6 UNK         0.5000 
     41 O          -0.5025  -18.8048  -41.7842 O.2       6 UNK        -0.5000 
     42 CA         -1.1275  -16.6307  -40.9893 C.3       6 UNK         0.1400 
     43 CB         -0.7216  -16.4253  -39.5224 C.3       6 UNK        -0.1800 
     44 N          -1.1822  -15.3330  -41.6631 N.am      6 UNK        -0.5000 
     45 C          -1.6847  -15.1365  -42.8903 C.2       5 UNK         0.5000 
     46 O          -2.2113  -16.0241  -43.5591 O.2       5 UNK        -0.5000 
     47 CA         -1.5300  -13.7255  -43.4919 C.3       5 UNK         0.1400 
     48 CB         -2.7495  -12.8576  -43.1497 C.3       5 UNK        -0.1800 
     49 N          -0.3106  -13.0310  -43.0700 N.am      5 UNK        -0.5000 
     50 C           0.9385  -13.4814  -43.2418 C.2       4 UNK         0.5000 
     51 O           1.2062  -14.5559  -43.7823 O.2       4 UNK        -0.5000 
     52 CA          2.0616  -12.5797  -42.6987 C.3       4 UNK         0.1400 
     53 CB          3.3775  -13.3484  -42.4853 C.3       4 UNK        -0.1800 
     54 N           2.3112  -11.4513  -43.5899 N.am      4 UNK        -0.5000 
     55 C           1.5452  -10.3587  -43.7057 C.2       3 UNK         0.5000 
     56 O           0.5210  -10.1715  -43.0466 O.2       3 UNK        -0.5000 
     57 CA          1.9960   -9.3019  -44.7272 C.3       3 UNK         0.1400 
     58 CB          3.0965   -8.4118  -44.1285 C.3       3 UNK        -0.1800 
     59 N           2.5001   -9.9281  -45.9496 N.am      3 UNK        -0.5000 
     60 C           1.8151  -10.0281  -47.0971 C.2       2 UNK         0.5000 
     61 O           0.6875   -9.5612  -47.2631 O.2       2 UNK        -0.5000 
     62 CA          2.4991  -10.7673  -48.2672 C.3       2 UNK         0.1400 
     63 CB          3.1986   -9.7650  -49.1982 C.3       2 UNK        -0.1800 
     64 N           3.4725  -11.7734  -47.8382 N.am      2 UNK        -0.5000 
     65 C           3.1603  -12.9110  -47.2009 C.2       1 UNK         0.5000 
     66 O           2.0020  -13.2516  -46.9645 O.2       1 UNK        -0.5000 
     67 C          -0.0002  -22.8579  -47.8121 C.2       11 UNK         0.5000 
     68 O           0.1663  -23.9118  -48.4244 O.2       11 UNK        -0.5000 
     69 N          -1.1345  -22.1441  -47.8690 N.am      12 UNK        -0.5000 
     70 CA         -2.3208  -22.5442  -48.6275 C.3       12 UNK         0.1400 
     71 CB         -3.3653  -21.4200  -48.5951 C.3       12 UNK        -0.1800 
     72 C          -2.9253  -23.8725  -48.1357 C.2       12 UNK         0.5000 
     73 O          -3.2997  -24.7052  -48.9611 O.2       12 UNK        -0.5000 
     74 N          -2.9709  -24.0687  -46.8105 N.am      13 UNK        -0.5000 
     75 CA         -3.4003  -25.3130  -46.1714 C.3       13 UNK         0.1400 
     76 CB         -3.5400  -25.1019  -44.6566 C.3       13 UNK        -0.1800 
     77 C          -2.4594  -26.4915  -46.4825 C.2       13 UNK         0.5000 
     78 O          -2.9403  -27.5706  -46.8290 O.2       13 UNK        -0.5000 
     79 N          -1.1406  -26.2572  -46.4098 N.am      14 UNK        -0.5000 
     80 CA         -0.0982  -27.2228  -46.7748 C.3       14 UNK         0.1400 
     81 CB          1.2789  -26.6675  -46.3816 C.3       14 UNK        -0.1800 
     82 C          -0.1276  -27.6055  -48.2680 C.2       14 UNK         0.5000 
     83 O           0.1326  -28.7600  -48.6073 O.2       14 UNK        -0.5000 
     84 N          -0.4964  -26.6436  -49.1237 N.am      15 UNK        -0.5000 
     85 CA         -0.7422  -26.8187  -50.5557 C.3       15 UNK         0.1400 
     86 CB         -0.6142  -25.4510  -51.2493 C.3       15 UNK        -0.1800 
     87 C          -2.1051  -27.4718  -50.8771 C.2       15 UNK         0.5000 
     88 O          -2.4305  -27.6118  -52.0554 O.2       15 UNK        -0.5000 
     89 N          -2.8890  -27.8403  -49.8514 N.am      16 UNK        -0.5000 
     90 CA         -4.2112  -28.4724  -49.9252 C.3       16 UNK         0.1400 
     91 CB         -4.1092  -29.8900  -50.5264 C.3       16 UNK        -0.1800 
     92 C          -5.2629  -27.5877  -50.6267 C.2       16 UNK         0.5000 
     93 O          -6.1016  -28.0935  -51.3743 O.2       16 UNK        -0.5000 
     94 N          -5.1842  -26.2741  -50.3695 N.am      17 UNK        -0.5000 
     95 CA         -6.0354  -25.2007  -50.8891 C.3       17 UNK         0.1400 
     96 CB         -7.5098  -25.4004  -50.4809 C.3       17 UNK        -0.1800 
     97 C          -5.8653  -24.9307  -52.3982 C.2       17 UNK         0.5000 
     98 O          -6.7028  -24.2420  -52.9824 O.2       17 UNK        -0.5000 
     99 N          -4.7664  -25.4109  -53.0032 N.am      18 UNK        -0.5000 
    100 CA        -4.4265  -25.1990  -54.4171 C.3       18 UNK         0.1400 
    101 CB        -3.2122  -26.0629  -54.7857 C.3       18 UNK        -0.1800 
    102 C         -4.1684  -23.7231  -54.7869 C.2       18 UNK         0.5000 
    103 O         -4.2970  -23.3596  -55.9563 O.2       18 UNK        -0.5000 
    104 N         -3.8411  -22.8965  -53.7832 N.am      19 UNK        -0.5000 
    105 CA        -3.7292  -21.4408  -53.8913 C.3       19 UNK         0.1400 
    106 CB        -3.0346  -20.9062  -52.6278 C.3       19 UNK        -0.1800 
    107 C         -5.0872  -20.7340  -54.0959 C.2       19 UNK         0.5000 
    108 O         -5.1017  -19.5872  -54.5458 O.2       19 UNK        -0.5000 
    109 N         -6.1952  -21.4167  -53.7618 N.am      20 UNK        -0.5000 
    110 CA        -7.5792  -20.9403  -53.8050 C.3       20 UNK         0.1400 
    111 CB        -8.0489  -20.7828  -55.2692 C.3       20 UNK        -0.1800 
    112 C         -7.7637  -19.6814  -52.9313 C.2       20 UNK         0.5000 
    113 O         -7.4549  -19.7281  -51.7391 O.2       20 UNK        -0.5000 
    114 N         -8.2383  -18.5811  -53.5291 N.am      21 UNK        -0.5000 
    115 CA        -8.3794  -17.2745  -52.8831 C.3       21 UNK         0.1400 
    116 CB        -9.3370  -16.4128  -53.7215 C.3       21 UNK        -0.1800 
    117 C         -7.0361  -16.5424  -52.6764 C.2       21 UNK         0.5000 
    118 O         -6.9872  -15.5945  -51.8917 O.2       21 UNK        -0.5000 
    119 N         -5.9806  -16.9798  -53.3789 N.am      22 UNK        -0.5000 
    120 CA        -4.6204  -16.4169  -53.3492 C.3       22 UNK         0.1400 
    121 C         -4.4918  -14.9852  -53.9613 C.2       22 UNK         0.5000 
    122 N         -5.4308  -14.5384  -54.7872 N.am      22 UNK        -0.7600 
    123 O         -3.5243  -14.2718  -53.7111 O.2       22 UNK        -0.5000 
    124 C124       -3.9535  -16.5654  -51.9508 C.3       23 UNK        -0.0398 
    125 S125       -2.1694  -16.9238  -52.0650 S.3       23 UNK        -0.2404 
    126 C126       -1.8647  -17.6454  -50.4257 C.3       23 UNK        -0.0205 
    127 H127        7.4131  -11.5074  -44.3618 H         1 UNK         0.0600 
    128 H128        7.0946  -10.3708  -45.6762 H         1 UNK         0.0600 
    129 H129        7.8338  -11.9374  -46.0226 H         1 UNK         0.0600 
    130 H130        6.3939  -13.3625  -46.9112 H         1 UNK         0.3000 
    131 H131        4.0233  -14.2324  -45.7640 H         1 UNK         0.0600 
    132 H132        4.8162  -14.5592  -48.7025 H         1 UNK         0.0800 
    133 H133        5.5782  -15.4341  -47.4099 H         1 UNK         0.0800 
    134 H134        3.7705  -16.3221  -50.1094 H         1 UNK         0.0800 
    135 H135        2.4745  -15.2198  -49.6976 H         1 UNK         0.0800 
    136 H136        0.1944  -15.9672  -49.8455 H         1 UNK         0.1150 
    137 H137       -0.6771  -20.0938  -50.5999 H         1 UNK         0.1150 
    138 H138        3.3609  -18.8531  -49.8534 H         1 UNK         0.1150 
    139 H139        0.9930  -21.7532  -50.4344 H         1 UNK         0.0800 
    140 H140        2.4093  -21.1992  -51.2906 H         1 UNK         0.0800 
    141 H141        1.2450  -20.3353  -47.7328 H         1 UNK         0.0800 
    142 H142        2.6166  -20.7861  -46.7784 H         1 UNK         0.0800 
    143 H143        1.8146  -23.1664  -46.7235 H         1 UNK         0.0600 
    144 H144        0.6956  -20.9960  -45.3032 H         1 UNK         0.3000 
    145 H145       -1.3165  -22.8896  -43.0244 H         1 UNK         0.0600 
    146 H146        0.0585  -21.5718  -41.4447 H         1 UNK         0.0600 
    147 H147        1.0197  -22.8675  -42.1410 H         1 UNK         0.0600 
    148 H148        1.2316  -21.2165  -42.7106 H         1 UNK         0.0600 
    149 H149       -0.9331  -20.0901  -43.2769 H         1 UNK         0.3000 
    150 H150       -3.6103  -19.4960  -45.6213 H         1 UNK         0.0600 
    151 H151       -4.5712  -19.6294  -43.3145 H         1 UNK         0.0600 
    152 H152       -4.2476  -17.9688  -43.7883 H         1 UNK         0.0600 
    153 H153       -3.1616  -18.7940  -42.6727 H         1 UNK         0.0600 
    154 H154       -1.8023  -17.6723  -44.4413 H         1 UNK         0.3000 
    155 H155        0.7479  -17.8383  -46.9823 H         1 UNK         0.0600 
    156 H156       -1.2216  -15.6982  -46.0137 H         1 UNK         0.0600 
    157 H157       -1.0567  -16.2375  -47.6722 H         1 UNK         0.0600 
    158 H158        0.2823  -15.4142  -46.8876 H         1 UNK         0.0600 
    159 H159        0.6915  -16.3719  -44.5604 H         1 UNK         0.3000 
    160 H160        2.1192  -18.8434  -42.4038 H         1 UNK         0.0600 
    161 H161        3.1916  -16.2416  -43.6188 H         1 UNK         0.0600 
    162 H162        4.0344  -17.7766  -43.5151 H         1 UNK         0.0600 
    163 H163        3.6536  -16.8919  -42.0455 H         1 UNK         0.0600 
    164 H164        1.1274  -16.1276  -42.1356 H         1 UNK         0.3000 
    165 H165       -2.1295  -17.0647  -41.0082 H         1 UNK         0.0600 
    166 H166       -1.4349  -15.7862  -39.0017 H         1 UNK         0.0600 
    167 H167       -0.6905  -17.3768  -38.9898 H         1 UNK         0.0600 
    168 H168        0.2650  -15.9683  -39.4361 H         1 UNK         0.0600 
    169 H169       -0.7728  -14.5471  -41.1802 H         1 UNK         0.3000 
    170 H170       -1.4828  -13.8329  -44.5767 H         1 UNK         0.0600 
    171 H171       -3.6738  -13.3362  -43.4765 H         1 UNK         0.0600 
    172 H172       -2.8309  -12.6830  -42.0762 H         1 UNK         0.0600 
    173 H173       -2.6945  -11.8877  -43.6446 H         1 UNK         0.0600 
    174 H174       -0.4257  -12.1023  -42.6818 H         1 UNK         0.3000 
    175 H175        1.7437  -12.1964  -41.7269 H         1 UNK         0.0600 
    176 H176        3.7715  -13.7446  -43.4212 H         1 UNK         0.0600 
    177 H177        4.1423  -12.7051  -42.0501 H         1 UNK         0.0600 
    178 H178        3.2339  -14.1892  -41.8059 H         1 UNK         0.0600 
    179 H179        3.1558  -11.5141  -44.1541 H         1 UNK         0.3000 
    180 H180        1.1365   -8.6663  -44.9502 H         1 UNK         0.0600 
    181 H181        3.9914   -8.9846  -43.8813 H         1 UNK         0.0600 
    182 H182        2.7526   -7.9275  -43.2137 H         1 UNK         0.0600 
    183 H183        3.3859   -7.6241  -44.8243 H         1 UNK         0.0600 
    184 H184        3.4015  -10.3868  -45.8770 H         1 UNK         0.3000 
    185 H185        1.7174  -11.2741  -48.8371 H         1 UNK         0.0600 
    186 H186        3.6193  -10.2640  -50.0714 H         1 UNK         0.0600 
    187 H187        2.4961   -9.0139  -49.5620 H         1 UNK         0.0600 
    188 H188        4.0067   -9.2388  -48.6885 H         1 UNK         0.0600 
    189 H189        4.4473  -11.5568  -47.9862 H         1 UNK         0.3000 
    190 H190       -1.1877  -21.2562  -47.3748 H         1 UNK         0.3000 
    191 H191       -2.0135  -22.6859  -49.6655 H         1 UNK         0.0600 
    192 H192       -3.7007  -21.2105  -47.5793 H         1 UNK         0.0600 
    193 H193       -4.2440  -21.6843  -49.1847 H         1 UNK         0.0600 
    194 H194       -2.9605  -20.4969  -49.0083 H         1 UNK         0.0600 
    195 H195       -2.7025  -23.3070  -46.1934 H         1 UNK         0.3000 
    196 H196       -4.3864  -25.5648  -46.5673 H         1 UNK         0.0600 
    197 H197       -3.8861  -26.0124  -44.1659 H         1 UNK         0.0600 
    198 H198       -4.2631  -24.3170  -44.4341 H         1 UNK         0.0600 
    199 H199       -2.5924  -24.8213  -44.1974 H         1 UNK         0.0600 
    200 H200       -0.8215  -25.3532  -46.0705 H         1 UNK         0.3000 
    201 H201       -0.2739  -28.1333  -46.1984 H         1 UNK         0.0600 
    202 H202        1.3313  -26.4654  -45.3117 H         1 UNK         0.0600 
    203 H203        1.5047  -25.7401  -46.9081 H         1 UNK         0.0600 
    204 H204        2.0698  -27.3805  -46.6175 H         1 UNK         0.0600 
    205 H205       -0.6098  -25.7007  -48.7633 H         1 UNK         0.3000 
    206 H206        0.0306  -27.4752  -50.9601 H         1 UNK         0.0600 
    207 H207        0.3518  -24.9910  -51.0402 H         1 UNK         0.0600 
    208 H208       -0.6959  -25.5485  -52.3321 H         1 UNK         0.0600 
    209 H209       -1.3910  -24.7601  -50.9223 H         1 UNK         0.0600 
    210 H210       -2.5604  -27.6530  -48.9116 H         1 UNK         0.3000 
    211 H211       -4.5518  -28.5801  -48.8947 H         1 UNK         0.0600 
    212 H212       -3.8335  -29.8657  -51.5810 H         1 UNK         0.0600 
    213 H213       -5.0616  -30.4159  -50.4504 H         1 UNK         0.0600 
    214 H214       -3.3666  -30.4885  -49.9989 H         1 UNK         0.0600 
    215 H215       -4.4263  -25.9476  -49.7723 H         1 UNK         0.3000 
    216 H216       -5.6887  -24.2928  -50.3937 H         1 UNK         0.0600 
    217 H217       -8.1025  -24.5140  -50.7099 H         1 UNK         0.0600 
    218 H218       -7.6016  -25.5809  -49.4099 H         1 UNK         0.0600 
    219 H219       -7.9676  -26.2397  -51.0047 H         1 UNK         0.0600 
    220 H220       -4.1319  -25.9905  -52.4689 H         1 UNK         0.3000 
    221 H221       -5.2762  -25.5364  -55.0142 H         1 UNK         0.0600 
    222 H222       -2.3320  -25.7868  -54.2046 H         1 UNK         0.0600 
    223 H223       -3.4130  -27.1200  -54.6112 H         1 UNK         0.0600 
    224 H224       -2.9573  -25.9522  -55.8404 H         1 UNK         0.0600 
    225 H225       -3.7398  -23.2916  -52.8608 H         1 UNK         0.3000 
    226 H226       -3.1026  -21.2068  -54.7545 H         1 UNK         0.0600 
    227 H227       -2.0493  -21.3539  -52.4967 H         1 UNK         0.0600 
    228 H228       -2.8930  -19.8269  -52.6900 H         1 UNK         0.0600 
    229 H229       -3.6196  -21.1079  -51.7298 H         1 UNK         0.0600 
    230 H230       -6.0905  -22.3633  -53.4138 H         1 UNK         0.3000 
    231 H231       -8.1874  -21.7209  -53.3457 H         1 UNK         0.0600 
    232 H232       -7.9261  -21.7182  -55.8154 H         1 UNK         0.0600 
    233 H233       -7.4880  -20.0163  -55.8050 H         1 UNK         0.0600 
    234 H234       -9.1070  -20.5229  -55.3194 H         1 UNK         0.0600 
    235 H235       -8.4612  -18.6257  -54.5129 H         1 UNK         0.3000 
    236 H236       -8.8267  -17.4204  -51.8976 H         1 UNK         0.0600 
    237 H237       -9.4940  -15.4378  -53.2581 H         1 UNK         0.0600 
    238 H238       -8.9492  -16.2401  -54.7261 H         1 UNK         0.0600 
    239 H239      -10.3144  -16.8866  -53.8150 H         1 UNK         0.0600 
    240 H240       -6.0895  -17.7958  -53.9702 H         1 UNK         0.3000 
    241 H241       -4.0688  -17.0515  -54.0435 H         1 UNK         0.0600 
    242 H242       -5.3425  -13.6172  -55.1869 H         1 UNK         0.3800 
    243 H243       -6.2273  -15.1109  -55.0162 H         1 UNK         0.3800 
    244 H244       -4.1139  -15.6786  -51.3354 H         1 UNK         0.0800 
    245 H245       -4.4130  -17.3928  -51.4078 H         1 UNK         0.0800 
    246 H246       -2.4841  -18.5340  -50.2996 H         1 UNK         0.0800 
    247 H247       -2.1734  -16.9396  -49.6541 H         1 UNK         0.0800 
@<TRIPOS>BOND
     1    1    2 1    
     2    1  127 1    
     3    1  128 1    
     4    1  129 1    
     5    2    3 2    
     6    2    4 am   BACKBONE|DICT|INTERRES
     7    4    5 1    
     8    4  130 1    
     9    5    6 1    
    10    5   65 1    
    11    5  131 1    
    12    6    7 1    
    13    6  132 1    
    14    6  133 1    
    15    7    8 1    
    16    8    9 1    
    17    8  134 1    
    18    8  135 1    
    19    9   10 ar   
    20    9   14 ar   
    21   10   11 ar   
    22   10  136 1    
    23   11   12 ar   
    24   11  126 1    
    25   12   13 ar   
    26   12  137 1    
    27   13   14 ar   
    28   13   15 1    
    29   14  138 1    
    30   15   16 1    
    31   15  139 1    
    32   15  140 1    
    33   16   17 1    
    34   17   18 1    
    35   17  141 1    
    36   17  142 1    
    37   18   19 1    
    38   18   67 1    
    39   18  143 1    
    40   19   20 am   BACKBONE|DICT|INTERRES
    41   19  144 1    
    42   20   21 2    
    43   20   22 1    
    44   22   23 1    
    45   22   24 1    
    46   22  145 1    
    47   23  146 1    
    48   23  147 1    
    49   23  148 1    
    50   24   25 am   BACKBONE|DICT|INTERRES
    51   24  149 1    
    52   25   26 2    
    53   25   27 1    
    54   27   28 1    
    55   27   29 1    
    56   27  150 1    
    57   28  151 1    
    58   28  152 1    
    59   28  153 1    
    60   29   30 am   BACKBONE|DICT|INTERRES
    61   29  154 1    
    62   30   31 2    
    63   30   32 1    
    64   32   33 1    
    65   32   34 1    
    66   32  155 1    
    67   33  156 1    
    68   33  157 1    
    69   33  158 1    
    70   34   35 am   BACKBONE|DICT|INTERRES
    71   34  159 1    
    72   35   36 2    
    73   35   37 1    
    74   37   38 1    
    75   37   39 1    
    76   37  160 1    
    77   38  161 1    
    78   38  162 1    
    79   38  163 1    
    80   39   40 am   BACKBONE|DICT|INTERRES
    81   39  164 1    
    82   40   41 2    
    83   40   42 1    
    84   42   43 1    
    85   42   44 1    
    86   42  165 1    
    87   43  166 1    
    88   43  167 1    
    89   43  168 1    
    90   44   45 am   BACKBONE|DICT|INTERRES
    91   44  169 1    
    92   45   46 2    
    93   45   47 1    
    94   47   48 1    
    95   47   49 1    
    96   47  170 1    
    97   48  171 1    
    98   48  172 1    
    99   48  173 1    
   100   49   50 am   BACKBONE|DICT|INTERRES
   101   49  174 1    
   102   50   51 2    
   103   50   52 1    
   104   52   53 1    
   105   52   54 1    
   106   52  175 1    
   107   53  176 1    
   108   53  177 1    
   109   53  178 1    
   110   54   55 am   BACKBONE|DICT|INTERRES
   111   54  179 1    
   112   55   56 2    
   113   55   57 1    
   114   57   58 1    
   115   57   59 1    
   116   57  180 1    
   117   58  181 1    
   118   58  182 1    
   119   58  183 1    
   120   59   60 am   BACKBONE|DICT|INTERRES
   121   59  184 1    
   122   60   61 2    
   123   60   62 1    
   124   62   63 1    
   125   62   64 1    
   126   62  185 1    
   127   63  186 1    
   128   63  187 1    
   129   63  188 1    
   130   64   65 am   BACKBONE|DICT|INTERRES
   131   64  189 1    
   132   65   66 2    
   133   67   68 2    
   134   67   69 am   BACKBONE|DICT|INTERRES
   135   69   70 1    
   136   69  190 1    
   137   70   71 1    
   138   70   72 1    
   139   70  191 1    
   140   71  192 1    
   141   71  193 1    
   142   71  194 1    
   143   72   73 2    
   144   72   74 am   BACKBONE|DICT|INTERRES
   145   74   75 1    
   146   74  195 1    
   147   75   76 1    
   148   75   77 1    
   149   75  196 1    
   150   76  197 1    
   151   76  198 1    
   152   76  199 1    
   153   77   78 2    
   154   77   79 am   BACKBONE|DICT|INTERRES
   155   79   80 1    
   156   79  200 1    
   157   80   81 1    
   158   80   82 1    
   159   80  201 1    
   160   81  202 1    
   161   81  203 1    
   162   81  204 1    
   163   82   83 2    
   164   82   84 am   BACKBONE|DICT|INTERRES
   165   84   85 1    
   166   84  205 1    
   167   85   86 1    
   168   85   87 1    
   169   85  206 1    
   170   86  207 1    
   171   86  208 1    
   172   86  209 1    
   173   87   88 2    
   174   87   89 am   BACKBONE|DICT|INTERRES
   175   89   90 1    
   176   89  210 1    
   177   90   91 1    
   178   90   92 1    
   179   90  211 1    
   180   91  212 1    
   181   91  213 1    
   182   91  214 1    
   183   92   93 2    
   184   92   94 am   BACKBONE|DICT|INTERRES
   185   94   95 1    
   186   94  215 1    
   187   95   96 1    
   188   95   97 1    
   189   95  216 1    
   190   96  217 1    
   191   96  218 1    
   192   96  219 1    
   193   97   98 2    
   194   97   99 am   BACKBONE|DICT|INTERRES
   195   99  100 1    
   196   99  220 1    
   197  100  101 1    
   198  100  102 1    
   199  100  221 1    
   200  101  222 1    
   201  101  223 1    
   202  101  224 1    
   203  102  103 2    
   204  102  104 am   BACKBONE|DICT|INTERRES
   205  104  105 1    
   206  104  225 1    
   207  105  106 1    
   208  105  107 1    
   209  105  226 1    
   210  106  227 1    
   211  106  228 1    
   212  106  229 1    
   213  107  108 2    
   214  107  109 am   BACKBONE|DICT|INTERRES
   215  109  110 1    
   216  109  230 1    
   217  110  111 1    
   218  110  112 1    
   219  110  231 1    
   220  111  232 1    
   221  111  233 1    
   222  111  234 1    
   223  112  113 2    
   224  112  114 am   BACKBONE|DICT|INTERRES
   225  114  115 1    
   226  114  235 1    
   227  115  116 1    
   228  115  117 1    
   229  115  236 1    
   230  116  237 1    
   231  116  238 1    
   232  116  239 1    
   233  117  118 2    
   234  117  119 am   BACKBONE|DICT|INTERRES
   235  119  120 1    
   236  119  240 1    
   237  120  121 1    
   238  120  124 1    
   239  120  241 1    
   240  121  122 am   BACKBONE|DICT|INTERRES
   241  121  123 2    
   242  122  242 1    
   243  122  243 1    
   244  124  125 1    
   245  124  244 1    
   246  124  245 1    
   247  125  126 1    
   248  126  246 1    
   249  126  247 1    
@<TRIPOS>SUBSTRUCTURE
     1 UNK         1 GROUP             0       ****    0 ROOT    
