@<TRIPOS>MOLECULE
3R540
247   249    1
SMALL
USER_CHARGES


@<TRIPOS>ATOM
      1 CA          0.6063   -7.5593  -45.1050 C.3       0 UNK        -0.1800 
      2 C           0.5927   -9.0552  -45.3839 C.2       0 UNK         0.5000 
      3 O           1.5668   -9.5899  -45.9146 O.2       0 UNK        -0.5000 
      4 N          -0.5008   -9.7368  -45.0213 N.am      1 UNK        -0.5000 
      5 CA         -0.7165  -11.1774  -45.2076 C.3       1 UNK         0.1400 
      6 C6         -2.2238  -11.5290  -45.2645 C.3       23 UNK        -0.0398 
      7 S7         -3.0649  -10.7448  -46.6813 S.3       23 UNK        -0.2404 
      8 C8         -4.7513  -11.4123  -46.5130 C.3       23 UNK        -0.0205 
      9 C9         -4.7878  -12.9218  -46.6989 C.ar      23 UNK        -0.0193 
     10 C10        -4.6619  -13.4759  -47.9778 C.ar      23 UNK        -0.1150 
     11 C11        -4.6621  -14.8627  -48.1530 C.ar      23 UNK        -0.0193 
     12 C12        -4.8120  -15.6896  -47.0368 C.ar      23 UNK        -0.1150 
     13 C13        -4.9250  -15.1516  -45.7541 C.ar      23 UNK        -0.0193 
     14 C14        -4.9223  -13.7645  -45.5899 C.ar      23 UNK        -0.1150 
     15 C15        -4.9948  -16.0849  -44.5561 C.3       23 UNK        -0.0205 
     16 S16        -3.3173  -16.6296  -44.1132 S.3       23 UNK        -0.2404 
     17 C17        -3.5814  -18.1996  -43.2239 C.3       23 UNK        -0.0398 
     18 CA         -4.2316  -19.3554  -44.0354 C.3       11 UNK         0.1400 
     19 N          -3.7265  -19.5078  -45.4092 N.am      11 UNK        -0.5000 
     20 C          -4.3415  -20.2614  -46.3356 C.2       10 UNK         0.5000 
     21 O          -5.3223  -20.9679  -46.1003 O.2       10 UNK        -0.5000 
     22 CA         -3.7818  -20.2449  -47.7638 C.3       10 UNK         0.1400 
     23 CB         -4.2556  -19.0219  -48.5528 C.3       10 UNK        -0.1800 
     24 N          -2.3273  -20.3050  -47.7859 N.am      10 UNK        -0.5000 
     25 C          -1.6141  -21.4327  -47.8743 C.2       9 UNK         0.5000 
     26 O          -2.1131  -22.5506  -47.9776 O.2       9 UNK        -0.5000 
     27 CA         -0.0842  -21.2951  -47.7707 C.3       9 UNK         0.1400 
     28 CB          0.5084  -20.9211  -49.1376 C.3       9 UNK        -0.1800 
     29 N           0.3199  -20.3093  -46.7694 N.am      9 UNK        -0.5000 
     30 C          -0.0492  -20.3342  -45.4787 C.2       8 UNK         0.5000 
     31 O          -0.6689  -21.2671  -44.9633 O.2       8 UNK        -0.5000 
     32 CA          0.2506  -19.0775  -44.6381 C.3       8 UNK         0.1400 
     33 CB          1.4984  -19.2935  -43.7702 C.3       8 UNK        -0.1800 
     34 N           0.4163  -17.8475  -45.4190 N.am      8 UNK        -0.5000 
     35 C          -0.4690  -17.3235  -46.2821 C.2       7 UNK         0.5000 
     36 O          -1.5579  -17.8357  -46.5404 O.2       7 UNK        -0.5000 
     37 CA         -0.0215  -16.0589  -47.0352 C.3       7 UNK         0.1400 
     38 CB         -0.4939  -14.7981  -46.3043 C.3       7 UNK        -0.1800 
     39 N           1.4317  -16.0151  -47.2305 N.am      7 UNK        -0.5000 
     40 C           2.0830  -16.8486  -48.0572 C.2       6 UNK         0.5000 
     41 O           1.5025  -17.6913  -48.7452 O.2       6 UNK        -0.5000 
     42 CA          3.6204  -16.7564  -48.1119 C.3       6 UNK         0.1400 
     43 CB          4.2009  -17.2100  -49.4678 C.3       6 UNK        -0.1800 
     44 N           4.1469  -15.4481  -47.7186 N.am      6 UNK        -0.5000 
     45 C           3.9945  -14.2706  -48.3461 C.2       5 UNK         0.5000 
     46 O           3.3750  -14.1338  -49.4015 O.2       5 UNK        -0.5000 
     47 CA          4.6302  -13.0316  -47.6784 C.3       5 UNK         0.1400 
     48 CB          3.5829  -11.9274  -47.4530 C.3       5 UNK        -0.1800 
     49 N           5.2544  -13.3574  -46.3936 N.am      5 UNK        -0.5000 
     50 C           6.5334  -13.7226  -46.2242 C.2       4 UNK         0.5000 
     51 O           7.3653  -13.7358  -47.1314 O.2       4 UNK        -0.5000 
     52 CA          6.9491  -14.1793  -44.8094 C.3       4 UNK         0.1400 
     53 CB          7.6173  -13.0234  -44.0496 C.3       4 UNK        -0.1800 
     54 N           5.8324  -14.6885  -44.0078 N.am      4 UNK        -0.5000 
     55 C           5.1406  -15.8096  -44.2620 C.2       3 UNK         0.5000 
     56 O           5.4058  -16.5810  -45.1825 O.2       3 UNK        -0.5000 
     57 CA          3.8914  -16.0623  -43.3934 C.3       3 UNK         0.1400 
     58 CB          4.2478  -16.8922  -42.1521 C.3       3 UNK        -0.1800 
     59 N           3.2374  -14.8161  -42.9803 N.am      3 UNK        -0.5000 
     60 C           2.6757  -13.9470  -43.8307 C.2       2 UNK         0.5000 
     61 O           2.5641  -14.1622  -45.0415 O.2       2 UNK        -0.5000 
     62 CA          2.2774  -12.5844  -43.2389 C.3       2 UNK         0.1400 
     63 CB          3.5290  -11.7129  -43.0417 C.3       2 UNK        -0.1800 
     64 N           1.3645  -11.8674  -44.1221 N.am      2 UNK        -0.5000 
     65 C           0.0348  -11.9933  -44.1305 C.2       1 UNK         0.5000 
     66 O          -0.5859  -12.6902  -43.3257 O.2       1 UNK        -0.5000 
     67 C          -4.1698  -20.6613  -43.2122 C.2       11 UNK         0.5000 
     68 O          -5.0509  -20.8758  -42.3780 O.2       11 UNK        -0.5000 
     69 N          -3.1399  -21.4913  -43.4381 N.am      12 UNK        -0.5000 
     70 CA         -2.8913  -22.7161  -42.6765 C.3       12 UNK         0.1400 
     71 CB         -1.5604  -22.5860  -41.9166 C.3       12 UNK        -0.1800 
     72 C          -2.8894  -23.9677  -43.5669 C.2       12 UNK         0.5000 
     73 O          -3.5294  -24.9555  -43.2053 O.2       12 UNK        -0.5000 
     74 N          -2.1782  -23.9276  -44.7038 N.am      13 UNK        -0.5000 
     75 CA         -1.9317  -25.1071  -45.5480 C.3       13 UNK         0.1400 
     76 CB         -0.5403  -25.0009  -46.1951 C.3       13 UNK        -0.1800 
     77 C          -3.0338  -25.3999  -46.5907 C.2       13 UNK         0.5000 
     78 O          -2.8016  -26.2036  -47.4959 O.2       13 UNK        -0.5000 
     79 N          -4.2082  -24.7654  -46.4549 N.am      14 UNK        -0.5000 
     80 CA         -5.4221  -24.9754  -47.2572 C.3       14 UNK         0.1400 
     81 CB         -6.0122  -26.3753  -46.9862 C.3       14 UNK        -0.1800 
     82 C          -5.2133  -24.6977  -48.7606 C.2       14 UNK         0.5000 
     83 O          -5.6086  -25.4986  -49.6090 O.2       14 UNK        -0.5000 
     84 N          -4.5593  -23.5673  -49.0484 N.am      15 UNK        -0.5000 
     85 CA         -4.1478  -23.0749  -50.3670 C.3       15 UNK         0.1400 
     86 CB         -5.3684  -22.7993  -51.2639 C.3       15 UNK        -0.1800 
     87 C          -3.0922  -23.9871  -51.0153 C.2       15 UNK         0.5000 
     88 O          -3.1606  -24.2513  -52.2163 O.2       15 UNK        -0.5000 
     89 N          -2.1558  -24.4632  -50.1812 N.am      16 UNK        -0.5000 
     90 CA         -1.1386  -25.4828  -50.4505 C.3       16 UNK         0.1400 
     91 CB         -0.0397  -24.9347  -51.3807 C.3       16 UNK        -0.1800 
     92 C          -1.7697  -26.7981  -50.9500 C.2       16 UNK         0.5000 
     93 O          -1.4014  -27.3039  -52.0108 O.2       16 UNK        -0.5000 
     94 N          -2.7365  -27.2999  -50.1681 N.am      17 UNK        -0.5000 
     95 CA         -3.5742  -28.4732  -50.4291 C.3       17 UNK         0.1400 
     96 CB         -2.7340  -29.7667  -50.3838 C.3       17 UNK        -0.1800 
     97 C          -4.4037  -28.3269  -51.7229 C.2       17 UNK         0.5000 
     98 O          -4.3319  -29.1791  -52.6107 O.2       17 UNK        -0.5000 
     99 N          -5.1810  -27.2364  -51.7895 N.am      18 UNK        -0.5000 
    100 CA        -6.1088  -26.8662  -52.8632 C.3       18 UNK         0.1400 
    101 CB        -7.2750  -27.8733  -52.9492 C.3       18 UNK        -0.1800 
    102 C         -5.4273  -26.6113  -54.2256 C.2       18 UNK         0.5000 
    103 O         -6.0153  -26.8914  -55.2719 O.2       18 UNK        -0.5000 
    104 N         -4.2120  -26.0504  -54.1941 N.am      19 UNK        -0.5000 
    105 CA        -3.4498  -25.6272  -55.3717 C.3       19 UNK         0.1400 
    106 CB        -1.9547  -25.8465  -55.0942 C.3       19 UNK        -0.1800 
    107 C         -3.7220  -24.1562  -55.7525 C.2       19 UNK         0.5000 
    108 O         -3.1717  -23.6849  -56.7483 O.2       19 UNK        -0.5000 
    109 N         -4.5477  -23.4597  -54.9543 N.am      20 UNK        -0.5000 
    110 CA        -4.9190  -22.0421  -55.0570 C.3       20 UNK         0.1400 
    111 CB        -5.6123  -21.7354  -56.4019 C.3       20 UNK        -0.1800 
    112 C         -3.7476  -21.0831  -54.7469 C.2       20 UNK         0.5000 
    113 O         -3.7379  -19.9500  -55.2317 O.2       20 UNK        -0.5000 
    114 N         -2.7782  -21.5471  -53.9464 N.am      21 UNK        -0.5000 
    115 CA        -1.5961  -20.7823  -53.5566 C.3       21 UNK         0.1400 
    116 CB        -0.5076  -21.7584  -53.0891 C.3       21 UNK        -0.1800 
    117 C         -1.9082  -19.7708  -52.4396 C.2       21 UNK         0.5000 
    118 O         -2.5717  -20.1252  -51.4653 O.2       21 UNK        -0.5000 
    119 N         -1.3666  -18.5585  -52.5770 N.am      22 UNK        -0.5000 
    120 CA        -1.3269  -17.5012  -51.5626 C.3       22 UNK         0.1400 
    121 C         -0.2138  -16.5050  -51.9756 C.2       22 UNK         0.5000 
    122 N          0.8471  -16.3741  -51.1943 N.am      22 UNK        -0.7600 
    123 O         -0.3071  -15.8496  -53.0111 O.2       22 UNK        -0.5000 
    124 C124       -2.6988  -16.8005  -51.3440 C.3       23 UNK        -0.0398 
    125 S125       -2.6894  -15.7580  -49.8432 S.3       23 UNK        -0.2404 
    126 C126       -4.4596  -15.4723  -49.5336 C.3       23 UNK        -0.0205 
    127 H127       -0.3193   -7.2258  -44.6352 H         1 UNK         0.0600 
    128 H128        0.7342   -7.0060  -46.0353 H         1 UNK         0.0600 
    129 H129        1.4343   -7.3094  -44.4416 H         1 UNK         0.0600 
    130 H130       -1.2610   -9.2416  -44.5776 H         1 UNK         0.3000 
    131 H131       -0.2830  -11.4664  -46.1678 H         1 UNK         0.0600 
    132 H132       -2.3495  -12.6087  -45.3540 H         1 UNK         0.0800 
    133 H133       -2.7285  -11.2336  -44.3431 H         1 UNK         0.0800 
    134 H134       -5.1564  -11.1312  -45.5396 H         1 UNK         0.0800 
    135 H135       -5.3940  -10.9417  -47.2583 H         1 UNK         0.0800 
    136 H136       -4.5357  -12.8265  -48.8329 H         1 UNK         0.1150 
    137 H137       -4.8065  -16.7605  -47.1496 H         1 UNK         0.1150 
    138 H138       -4.9978  -13.3428  -44.5974 H         1 UNK         0.1150 
    139 H139       -5.4581  -15.5906  -43.7011 H         1 UNK         0.0800 
    140 H140       -5.6238  -16.9395  -44.8044 H         1 UNK         0.0800 
    141 H141       -4.1833  -17.9845  -42.3392 H         1 UNK         0.0800 
    142 H142       -2.6053  -18.5058  -42.8454 H         1 UNK         0.0800 
    143 H143       -5.2924  -19.1152  -44.1288 H         1 UNK         0.0600 
    144 H144       -2.9530  -18.9102  -45.6878 H         1 UNK         0.3000 
    145 H145       -4.2025  -21.1130  -48.2622 H         1 UNK         0.0600 
    146 H146       -4.1846  -19.2050  -49.6235 H         1 UNK         0.0600 
    147 H147       -5.2972  -18.7793  -48.3385 H         1 UNK         0.0600 
    148 H148       -3.6426  -18.1506  -48.3303 H         1 UNK         0.0600 
    149 H149       -1.8455  -19.4289  -47.6106 H         1 UNK         0.3000 
    150 H150        0.3314  -22.2566  -47.4698 H         1 UNK         0.0600 
    151 H151        0.2603  -21.6730  -49.8876 H         1 UNK         0.0600 
    152 H152        1.5952  -20.8494  -49.0937 H         1 UNK         0.0600 
    153 H153        0.1238  -19.9654  -49.4959 H         1 UNK         0.0600 
    154 H154        0.8001  -19.4909  -47.1164 H         1 UNK         0.3000 
    155 H155       -0.6026  -18.9281  -43.9760 H         1 UNK         0.0600 
    156 H156        1.4089  -20.2038  -43.1755 H         1 UNK         0.0600 
    157 H157        1.6400  -18.4678  -43.0729 H         1 UNK         0.0600 
    158 H158        2.4009  -19.3838  -44.3761 H         1 UNK         0.0600 
    159 H159        1.2858  -17.3526  -45.2950 H         1 UNK         0.3000 
    160 H160       -0.4920  -16.0749  -48.0187 H         1 UNK         0.0600 
    161 H161       -0.1087  -14.7591  -45.2854 H         1 UNK         0.0600 
    162 H162       -1.5832  -14.7750  -46.2446 H         1 UNK         0.0600 
    163 H163       -0.1749  -13.8964  -46.8264 H         1 UNK         0.0600 
    164 H164        1.9516  -15.3368  -46.6833 H         1 UNK         0.3000 
    165 H165        3.9795  -17.4590  -47.3593 H         1 UNK         0.0600 
    166 H166        3.9368  -18.2467  -49.6798 H         1 UNK         0.0600 
    167 H167        5.2891  -17.1479  -49.4707 H         1 UNK         0.0600 
    168 H168        3.8277  -16.6052  -50.2943 H         1 UNK         0.0600 
    169 H169        4.6770  -15.4542  -46.8563 H         1 UNK         0.3000 
    170 H170        5.3851  -12.6437  -48.3651 H         1 UNK         0.0600 
    171 H171        3.1711  -11.5797  -48.4010 H         1 UNK         0.0600 
    172 H172        2.7468  -12.2753  -46.8467 H         1 UNK         0.0600 
    173 H173        4.0196  -11.0616  -46.9550 H         1 UNK         0.0600 
    174 H174        4.6229  -13.4173  -45.6070 H         1 UNK         0.3000 
    175 H175        7.6784  -14.9839  -44.9241 H         1 UNK         0.0600 
    176 H176        6.9265  -12.1947  -43.8882 H         1 UNK         0.0600 
    177 H177        7.9842  -13.3502  -43.0764 H         1 UNK         0.0600 
    178 H178        8.4729  -12.6343  -44.6034 H         1 UNK         0.0600 
    179 H179        5.5482  -14.1206  -43.2238 H         1 UNK         0.3000 
    180 H180        3.1820  -16.6332  -43.9954 H         1 UNK         0.0600 
    181 H181        4.9505  -16.3678  -41.5034 H         1 UNK         0.0600 
    182 H182        4.7068  -17.8403  -42.4360 H         1 UNK         0.0600 
    183 H183        3.3593  -17.1261  -41.5654 H         1 UNK         0.0600 
    184 H184        3.2960  -14.5794  -42.0000 H         1 UNK         0.3000 
    185 H185        1.8011  -12.7464  -42.2697 H         1 UNK         0.0600 
    186 H186        4.2334  -12.1773  -42.3508 H         1 UNK         0.0600 
    187 H187        4.0541  -11.5402  -43.9825 H         1 UNK         0.0600 
    188 H188        3.2669  -10.7399  -42.6254 H         1 UNK         0.0600 
    189 H189        1.7818  -11.2567  -44.8170 H         1 UNK         0.3000 
    190 H190       -2.4487  -21.2532  -44.1421 H         1 UNK         0.3000 
    191 H191       -3.6735  -22.8676  -41.9298 H         1 UNK         0.0600 
    192 H192       -0.7146  -22.4526  -42.5913 H         1 UNK         0.0600 
    193 H193       -1.5797  -21.7360  -41.2345 H         1 UNK         0.0600 
    194 H194       -1.3641  -23.4772  -41.3193 H         1 UNK         0.0600 
    195 H195       -1.6733  -23.0812  -44.9433 H         1 UNK         0.3000 
    196 H196       -1.8984  -25.9859  -44.9006 H         1 UNK         0.0600 
    197 H197        0.2201  -24.7209  -45.4659 H         1 UNK         0.0600 
    198 H198       -0.5213  -24.2732  -47.0010 H         1 UNK         0.0600 
    199 H199       -0.2395  -25.9574  -46.6241 H         1 UNK         0.0600 
    200 H200       -4.2905  -24.1079  -45.6927 H         1 UNK         0.3000 
    201 H201       -6.1495  -24.2395  -46.9115 H         1 UNK         0.0600 
    202 H202       -6.9743  -26.4970  -47.4853 H         1 UNK         0.0600 
    203 H203       -6.1780  -26.5333  -45.9206 H         1 UNK         0.0600 
    204 H204       -5.3565  -27.1695  -47.3447 H         1 UNK         0.0600 
    205 H205       -4.1582  -23.0614  -48.2686 H         1 UNK         0.3000 
    206 H206       -3.6486  -22.1217  -50.2034 H         1 UNK         0.0600 
    207 H207       -6.1217  -22.2140  -50.7368 H         1 UNK         0.0600 
    208 H208       -5.8384  -23.7177  -51.6151 H         1 UNK         0.0600 
    209 H209       -5.0672  -22.2215  -52.1342 H         1 UNK         0.0600 
    210 H210       -2.1959  -24.1300  -49.2234 H         1 UNK         0.3000 
    211 H211       -0.6710  -25.7116  -49.4916 H         1 UNK         0.0600 
    212 H212        0.4210  -24.0412  -50.9603 H         1 UNK         0.0600 
    213 H213        0.7525  -25.6703  -51.5235 H         1 UNK         0.0600 
    214 H214       -0.4308  -24.6824  -52.3648 H         1 UNK         0.0600 
    215 H215       -2.9286  -26.8142  -49.2945 H         1 UNK         0.3000 
    216 H216       -4.2921  -28.5215  -49.6088 H         1 UNK         0.0600 
    217 H217       -3.3711  -30.6473  -50.4727 H         1 UNK         0.0600 
    218 H218       -2.0049  -29.8086  -51.1934 H         1 UNK         0.0600 
    219 H219       -2.1934  -29.8514  -49.4411 H         1 UNK         0.0600 
    220 H220       -5.1829  -26.6025  -50.9911 H         1 UNK         0.3000 
    221 H221       -6.5353  -25.9081  -52.5640 H         1 UNK         0.0600 
    222 H222       -6.9428  -28.8496  -53.3030 H         1 UNK         0.0600 
    223 H223       -7.7484  -28.0113  -51.9771 H         1 UNK         0.0600 
    224 H224       -8.0462  -27.5224  -53.6359 H         1 UNK         0.0600 
    225 H225       -3.8031  -25.8037  -53.2977 H         1 UNK         0.3000 
    226 H226       -3.7258  -26.2432  -56.2298 H         1 UNK         0.0600 
    227 H227       -1.7509  -26.8833  -54.8257 H         1 UNK         0.0600 
    228 H228       -1.3521  -25.6133  -55.9727 H         1 UNK         0.0600 
    229 H229       -1.6041  -25.2147  -54.2790 H         1 UNK         0.0600 
    230 H230       -4.8997  -23.9458  -54.1424 H         1 UNK         0.3000 
    231 H231       -5.6636  -21.8678  -54.2809 H         1 UNK         0.0600 
    232 H232       -6.0511  -20.7371  -56.3948 H         1 UNK         0.0600 
    233 H233       -6.4191  -22.4409  -56.6003 H         1 UNK         0.0600 
    234 H234       -4.9159  -21.7758  -57.2396 H         1 UNK         0.0600 
    235 H235       -2.8697  -22.4760  -53.5545 H         1 UNK         0.3000 
    236 H236       -1.2215  -20.2494  -54.4334 H         1 UNK         0.0600 
    237 H237       -0.2819  -22.5009  -53.8548 H         1 UNK         0.0600 
    238 H238        0.4192  -21.2311  -52.8599 H         1 UNK         0.0600 
    239 H239       -0.8143  -22.2857  -52.1862 H         1 UNK         0.0600 
    240 H240       -0.8373  -18.3455  -53.4119 H         1 UNK         0.3000 
    241 H241       -1.0337  -17.9733  -50.6219 H         1 UNK         0.0600 
    242 H242        1.5647  -15.7157  -51.4527 H         1 UNK         0.3800 
    243 H243        0.9596  -16.9229  -50.3457 H         1 UNK         0.3800 
    244 H244       -2.9752  -16.1936  -52.2076 H         1 UNK         0.0800 
    245 H245       -3.4852  -17.5466  -51.2323 H         1 UNK         0.0800 
    246 H246       -5.0091  -16.4111  -49.6108 H         1 UNK         0.0800 
    247 H247       -4.8614  -14.8127  -50.3040 H         1 UNK         0.0800 
@<TRIPOS>BOND
     1    1    2 1    
     2    1  127 1    
     3    1  128 1    
     4    1  129 1    
     5    2    3 2    
     6    2    4 am   BACKBONE|DICT|INTERRES
     7    4    5 1    
     8    4  130 1    
     9    5    6 1    
    10    5   65 1    
    11    5  131 1    
    12    6    7 1    
    13    6  132 1    
    14    6  133 1    
    15    7    8 1    
    16    8    9 1    
    17    8  134 1    
    18    8  135 1    
    19    9   10 ar   
    20    9   14 ar   
    21   10   11 ar   
    22   10  136 1    
    23   11   12 ar   
    24   11  126 1    
    25   12   13 ar   
    26   12  137 1    
    27   13   14 ar   
    28   13   15 1    
    29   14  138 1    
    30   15   16 1    
    31   15  139 1    
    32   15  140 1    
    33   16   17 1    
    34   17   18 1    
    35   17  141 1    
    36   17  142 1    
    37   18   19 1    
    38   18   67 1    
    39   18  143 1    
    40   19   20 am   BACKBONE|DICT|INTERRES
    41   19  144 1    
    42   20   21 2    
    43   20   22 1    
    44   22   23 1    
    45   22   24 1    
    46   22  145 1    
    47   23  146 1    
    48   23  147 1    
    49   23  148 1    
    50   24   25 am   BACKBONE|DICT|INTERRES
    51   24  149 1    
    52   25   26 2    
    53   25   27 1    
    54   27   28 1    
    55   27   29 1    
    56   27  150 1    
    57   28  151 1    
    58   28  152 1    
    59   28  153 1    
    60   29   30 am   BACKBONE|DICT|INTERRES
    61   29  154 1    
    62   30   31 2    
    63   30   32 1    
    64   32   33 1    
    65   32   34 1    
    66   32  155 1    
    67   33  156 1    
    68   33  157 1    
    69   33  158 1    
    70   34   35 am   BACKBONE|DICT|INTERRES
    71   34  159 1    
    72   35   36 2    
    73   35   37 1    
    74   37   38 1    
    75   37   39 1    
    76   37  160 1    
    77   38  161 1    
    78   38  162 1    
    79   38  163 1    
    80   39   40 am   BACKBONE|DICT|INTERRES
    81   39  164 1    
    82   40   41 2    
    83   40   42 1    
    84   42   43 1    
    85   42   44 1    
    86   42  165 1    
    87   43  166 1    
    88   43  167 1    
    89   43  168 1    
    90   44   45 am   BACKBONE|DICT|INTERRES
    91   44  169 1    
    92   45   46 2    
    93   45   47 1    
    94   47   48 1    
    95   47   49 1    
    96   47  170 1    
    97   48  171 1    
    98   48  172 1    
    99   48  173 1    
   100   49   50 am   BACKBONE|DICT|INTERRES
   101   49  174 1    
   102   50   51 2    
   103   50   52 1    
   104   52   53 1    
   105   52   54 1    
   106   52  175 1    
   107   53  176 1    
   108   53  177 1    
   109   53  178 1    
   110   54   55 am   BACKBONE|DICT|INTERRES
   111   54  179 1    
   112   55   56 2    
   113   55   57 1    
   114   57   58 1    
   115   57   59 1    
   116   57  180 1    
   117   58  181 1    
   118   58  182 1    
   119   58  183 1    
   120   59   60 am   BACKBONE|DICT|INTERRES
   121   59  184 1    
   122   60   61 2    
   123   60   62 1    
   124   62   63 1    
   125   62   64 1    
   126   62  185 1    
   127   63  186 1    
   128   63  187 1    
   129   63  188 1    
   130   64   65 am   BACKBONE|DICT|INTERRES
   131   64  189 1    
   132   65   66 2    
   133   67   68 2    
   134   67   69 am   BACKBONE|DICT|INTERRES
   135   69   70 1    
   136   69  190 1    
   137   70   71 1    
   138   70   72 1    
   139   70  191 1    
   140   71  192 1    
   141   71  193 1    
   142   71  194 1    
   143   72   73 2    
   144   72   74 am   BACKBONE|DICT|INTERRES
   145   74   75 1    
   146   74  195 1    
   147   75   76 1    
   148   75   77 1    
   149   75  196 1    
   150   76  197 1    
   151   76  198 1    
   152   76  199 1    
   153   77   78 2    
   154   77   79 am   BACKBONE|DICT|INTERRES
   155   79   80 1    
   156   79  200 1    
   157   80   81 1    
   158   80   82 1    
   159   80  201 1    
   160   81  202 1    
   161   81  203 1    
   162   81  204 1    
   163   82   83 2    
   164   82   84 am   BACKBONE|DICT|INTERRES
   165   84   85 1    
   166   84  205 1    
   167   85   86 1    
   168   85   87 1    
   169   85  206 1    
   170   86  207 1    
   171   86  208 1    
   172   86  209 1    
   173   87   88 2    
   174   87   89 am   BACKBONE|DICT|INTERRES
   175   89   90 1    
   176   89  210 1    
   177   90   91 1    
   178   90   92 1    
   179   90  211 1    
   180   91  212 1    
   181   91  213 1    
   182   91  214 1    
   183   92   93 2    
   184   92   94 am   BACKBONE|DICT|INTERRES
   185   94   95 1    
   186   94  215 1    
   187   95   96 1    
   188   95   97 1    
   189   95  216 1    
   190   96  217 1    
   191   96  218 1    
   192   96  219 1    
   193   97   98 2    
   194   97   99 am   BACKBONE|DICT|INTERRES
   195   99  100 1    
   196   99  220 1    
   197  100  101 1    
   198  100  102 1    
   199  100  221 1    
   200  101  222 1    
   201  101  223 1    
   202  101  224 1    
   203  102  103 2    
   204  102  104 am   BACKBONE|DICT|INTERRES
   205  104  105 1    
   206  104  225 1    
   207  105  106 1    
   208  105  107 1    
   209  105  226 1    
   210  106  227 1    
   211  106  228 1    
   212  106  229 1    
   213  107  108 2    
   214  107  109 am   BACKBONE|DICT|INTERRES
   215  109  110 1    
   216  109  230 1    
   217  110  111 1    
   218  110  112 1    
   219  110  231 1    
   220  111  232 1    
   221  111  233 1    
   222  111  234 1    
   223  112  113 2    
   224  112  114 am   BACKBONE|DICT|INTERRES
   225  114  115 1    
   226  114  235 1    
   227  115  116 1    
   228  115  117 1    
   229  115  236 1    
   230  116  237 1    
   231  116  238 1    
   232  116  239 1    
   233  117  118 2    
   234  117  119 am   BACKBONE|DICT|INTERRES
   235  119  120 1    
   236  119  240 1    
   237  120  121 1    
   238  120  124 1    
   239  120  241 1    
   240  121  122 am   BACKBONE|DICT|INTERRES
   241  121  123 2    
   242  122  242 1    
   243  122  243 1    
   244  124  125 1    
   245  124  244 1    
   246  124  245 1    
   247  125  126 1    
   248  126  246 1    
   249  126  247 1    
@<TRIPOS>SUBSTRUCTURE
     1 UNK         1 GROUP             0       ****    0 ROOT    
