@<TRIPOS>MOLECULE
3R540
247   249    1
SMALL
USER_CHARGES


@<TRIPOS>ATOM
      1 CA         -3.1079  -16.4612  -50.3463 C.3       0 UNK        -0.1800 
      2 C          -2.0110  -16.4478  -49.2918 C.2       0 UNK         0.5000 
      3 O          -1.4752  -17.5017  -48.9595 O.2       0 UNK        -0.5000 
      4 N          -1.6978  -15.2527  -48.7701 N.am      1 UNK        -0.5000 
      5 CA         -0.6217  -14.9117  -47.8222 C.3       1 UNK         0.1400 
      6 C6          0.7694  -14.7370  -48.4956 C.3       23 UNK        -0.0398 
      7 S7          1.6649  -16.2691  -48.9264 S.3       23 UNK        -0.2404 
      8 C8          1.3610  -16.3636  -50.7206 C.3       23 UNK        -0.0205 
      9 C9          1.7800  -17.7038  -51.3076 C.ar      23 UNK        -0.0193 
     10 C10         2.6550  -17.7543  -52.3975 C.ar      23 UNK        -0.1150 
     11 C11         3.0020  -18.9807  -52.9708 C.ar      23 UNK        -0.0193 
     12 C12         2.5030  -20.1639  -52.4186 C.ar      23 UNK        -0.1150 
     13 C13         1.6231  -20.1287  -51.3350 C.ar      23 UNK        -0.0193 
     14 C14         1.2548  -18.8942  -50.7935 C.ar      23 UNK        -0.1150 
     15 C15         1.0424  -21.4222  -50.7855 C.3       23 UNK        -0.0205 
     16 S16         1.4214  -21.6508  -49.0159 S.3       23 UNK        -0.2404 
     17 C17        -0.2270  -21.4994  -48.2465 C.3       23 UNK        -0.0398 
     18 CA         -0.6284  -22.8105  -47.5316 C.3       11 UNK         0.1400 
     19 N           0.2183  -23.1043  -46.3725 N.am      11 UNK        -0.5000 
     20 C           0.2984  -24.3002  -45.7731 C.2       10 UNK         0.5000 
     21 O          -0.3197  -25.2945  -46.1500 O.2       10 UNK        -0.5000 
     22 CA          1.1722  -24.3829  -44.5079 C.3       10 UNK         0.1400 
     23 CB          2.6510  -24.5615  -44.8814 C.3       10 UNK        -0.1800 
     24 N           1.0246  -23.2046  -43.6523 N.am      10 UNK        -0.5000 
     25 C          -0.1121  -22.8565  -43.0323 C.2       9 UNK         0.5000 
     26 O          -1.1342  -23.5412  -43.0544 O.2       9 UNK        -0.5000 
     27 CA         -0.1287  -21.4913  -42.3177 C.3       9 UNK         0.1400 
     28 CB          0.2592  -21.6495  -40.8408 C.3       9 UNK        -0.1800 
     29 N           0.7460  -20.4950  -42.9418 N.am      9 UNK        -0.5000 
     30 C           0.6289  -20.0306  -44.1916 C.2       8 UNK         0.5000 
     31 O          -0.2636  -20.3904  -44.9615 O.2       8 UNK        -0.5000 
     32 CA          1.6968  -19.0112  -44.6436 C.3       8 UNK         0.1400 
     33 CB          1.6614  -18.7535  -46.1587 C.3       8 UNK        -0.1800 
     34 N           1.5844  -17.7331  -43.9390 N.am      8 UNK        -0.5000 
     35 C           1.9335  -17.5183  -42.6621 C.2       7 UNK         0.5000 
     36 O           2.3890  -18.3975  -41.9263 O.2       7 UNK        -0.5000 
     37 CA          1.7545  -16.0808  -42.1342 C.3       7 UNK         0.1400 
     38 CB          2.3862  -15.8520  -40.7452 C.3       7 UNK        -0.1800 
     39 N           2.2108  -15.0690  -43.0898 N.am      7 UNK        -0.5000 
     40 C           3.4533  -14.9042  -43.5706 C.2       6 UNK         0.5000 
     41 O           4.4135  -15.6000  -43.2381 O.2       6 UNK        -0.5000 
     42 CA          3.6835  -13.7706  -44.5842 C.3       6 UNK         0.1400 
     43 CB          3.7290  -14.3252  -46.0170 C.3       6 UNK        -0.1800 
     44 N           2.6850  -12.7020  -44.4749 N.am      6 UNK        -0.5000 
     45 C           2.9435  -11.4044  -44.6929 C.2       5 UNK         0.5000 
     46 O           4.0185  -10.9845  -45.1240 O.2       5 UNK        -0.5000 
     47 CA          1.8290  -10.3917  -44.3496 C.3       5 UNK         0.1400 
     48 CB          0.9718  -10.1004  -45.5910 C.3       5 UNK        -0.1800 
     49 N           0.9516  -10.8324  -43.2635 N.am      5 UNK        -0.5000 
     50 C           1.3347  -11.1073  -42.0091 C.2       4 UNK         0.5000 
     51 O           2.4636  -10.8664  -41.5796 O.2       4 UNK        -0.5000 
     52 CA          0.3077  -11.7914  -41.0765 C.3       4 UNK         0.1400 
     53 CB         -0.0682  -10.8564  -39.9155 C.3       4 UNK        -0.1800 
     54 N          -0.9333  -12.2804  -41.6971 N.am      4 UNK        -0.5000 
     55 C          -1.0461  -13.1376  -42.7205 C.2       3 UNK         0.5000 
     56 O          -0.0868  -13.5385  -43.3846 O.2       3 UNK        -0.5000 
     57 CA         -2.4795  -13.5669  -43.0894 C.3       3 UNK         0.1400 
     58 CB         -3.2279  -12.4093  -43.7700 C.3       3 UNK        -0.1800 
     59 N          -2.4864  -14.7125  -43.9961 N.am      3 UNK        -0.5000 
     60 C          -2.1353  -15.9663  -43.6791 C.2       2 UNK         0.5000 
     61 O          -1.8998  -16.3453  -42.5316 O.2       2 UNK        -0.5000 
     62 CA         -2.0127  -16.9605  -44.8513 C.3       2 UNK         0.1400 
     63 CB         -3.2787  -17.8200  -44.9710 C.3       2 UNK        -0.1800 
     64 N          -1.7649  -16.2970  -46.1333 N.am      2 UNK        -0.5000 
     65 C          -0.6194  -15.6933  -46.4817 C.2       1 UNK         0.5000 
     66 O           0.3781  -15.6872  -45.7576 O.2       1 UNK        -0.5000 
     67 C          -2.1197  -22.8005  -47.1523 C.2       11 UNK         0.5000 
     68 O          -2.9445  -23.2046  -47.9720 O.2       11 UNK        -0.5000 
     69 N          -2.4460  -22.3737  -45.9244 N.am      12 UNK        -0.5000 
     70 CA         -3.7944  -22.4625  -45.3628 C.3       12 UNK         0.1400 
     71 CB         -3.8775  -21.6503  -44.0623 C.3       12 UNK        -0.1800 
     72 C          -4.2252  -23.9232  -45.1385 C.2       12 UNK         0.5000 
     73 O          -5.3244  -24.2984  -45.5457 O.2       12 UNK        -0.5000 
     74 N          -3.3347  -24.7273  -44.5397 N.am      13 UNK        -0.5000 
     75 CA         -3.5348  -26.1543  -44.2771 C.3       13 UNK         0.1400 
     76 CB         -2.3886  -26.6757  -43.3971 C.3       13 UNK        -0.1800 
     77 C          -3.6634  -26.9968  -45.5603 C.2       13 UNK         0.5000 
     78 O          -4.5163  -27.8829  -45.6227 O.2       13 UNK        -0.5000 
     79 N          -2.8349  -26.6903  -46.5679 N.am      14 UNK        -0.5000 
     80 CA         -2.8485  -27.3324  -47.8851 C.3       14 UNK         0.1400 
     81 CB         -1.5061  -27.0553  -48.5813 C.3       14 UNK        -0.1800 
     82 C          -4.0122  -26.8751  -48.7882 C.2       14 UNK         0.5000 
     83 O          -4.2457  -27.5015  -49.8220 O.2       14 UNK        -0.5000 
     84 N          -4.6838  -25.7762  -48.4109 N.am      15 UNK        -0.5000 
     85 CA         -5.7241  -25.0522  -49.1534 C.3       15 UNK         0.1400 
     86 CB         -6.9512  -25.9424  -49.4350 C.3       15 UNK        -0.1800 
     87 C          -5.2002  -24.3440  -50.4222 C.2       15 UNK         0.5000 
     88 O          -5.9946  -23.8785  -51.2393 O.2       15 UNK        -0.5000 
     89 N          -3.8734  -24.2088  -50.5389 N.am      16 UNK        -0.5000 
     90 CA         -3.1859  -23.4525  -51.5833 C.3       16 UNK         0.1400 
     91 CB         -1.6879  -23.7825  -51.5324 C.3       16 UNK        -0.1800 
     92 C          -3.4252  -21.9367  -51.4534 C.2       16 UNK         0.5000 
     93 O          -3.4817  -21.2425  -52.4682 O.2       16 UNK        -0.5000 
     94 N          -3.6128  -21.4605  -50.2130 N.am      17 UNK        -0.5000 
     95 CA         -4.0190  -20.0883  -49.9093 C.3       17 UNK         0.1400 
     96 CB         -3.8526  -19.8136  -48.4074 C.3       17 UNK        -0.1800 
     97 C          -5.4683  -19.8072  -50.3455 C.2       17 UNK         0.5000 
     98 O          -5.7432  -18.7339  -50.8788 O.2       17 UNK        -0.5000 
     99 N          -6.3605  -20.7895  -50.1474 N.am      18 UNK        -0.5000 
    100 CA        -7.7648  -20.7323  -50.5637 C.3       18 UNK         0.1400 
    101 CB        -8.5535  -21.8587  -49.8783 C.3       18 UNK        -0.1800 
    102 C         -7.9211  -20.7968  -52.0945 C.2       18 UNK         0.5000 
    103 O         -8.7708  -20.1010  -52.6510 O.2       18 UNK        -0.5000 
    104 N         -7.0629  -21.5923  -52.7486 N.am      19 UNK        -0.5000 
    105 CA        -6.9173  -21.6585  -54.2049 C.3       19 UNK         0.1400 
    106 CB        -6.1174  -22.9206  -54.5629 C.3       19 UNK        -0.1800 
    107 C         -6.2435  -20.4084  -54.8123 C.2       19 UNK         0.5000 
    108 O         -6.3172  -20.2197  -56.0271 O.2       19 UNK        -0.5000 
    109 N         -5.6019  -19.5919  -53.9628 N.am      20 UNK        -0.5000 
    110 CA        -4.8514  -18.3729  -54.2701 C.3       20 UNK         0.1400 
    111 CB        -5.7887  -17.2691  -54.8023 C.3       20 UNK        -0.1800 
    112 C         -3.6355  -18.6391  -55.1802 C.2       20 UNK         0.5000 
    113 O         -3.3958  -17.8940  -56.1329 O.2       20 UNK        -0.5000 
    114 N         -2.8879  -19.7069  -54.8701 N.am      21 UNK        -0.5000 
    115 CA        -1.6395  -20.0680  -55.5389 C.3       21 UNK         0.1400 
    116 CB        -1.2166  -21.4744  -55.0858 C.3       21 UNK        -0.1800 
    117 C         -0.5363  -19.0412  -55.2241 C.2       21 UNK         0.5000 
    118 O         -0.3032  -18.7714  -54.0464 O.2       21 UNK        -0.5000 
    119 N          0.0847  -18.4949  -56.2794 N.am      22 UNK        -0.5000 
    120 CA         1.2054  -17.5262  -56.3483 C.3       22 UNK         0.1400 
    121 C          1.2685  -16.3023  -55.3772 C.2       22 UNK         0.5000 
    122 N          0.3992  -16.1655  -54.3903 N.am      22 UNK        -0.7600 
    123 O          2.1010  -15.4184  -55.5629 O.2       22 UNK        -0.5000 
    124 C124        2.5954  -18.1880  -56.6000 C.3       23 UNK        -0.0398 
    125 S125        2.9924  -19.6907  -55.6397 S.3       23 UNK        -0.2404 
    126 C126        3.8989  -19.0426  -54.1969 C.3       23 UNK        -0.0205 
    127 H127       -3.3124  -15.4618  -50.7306 H         1 UNK         0.0600 
    128 H128       -4.0292  -16.8577  -49.9216 H         1 UNK         0.0600 
    129 H129       -2.8158  -17.0907  -51.1871 H         1 UNK         0.0600 
    130 H130       -2.2259  -14.4535  -49.0922 H         1 UNK         0.3000 
    131 H131       -0.8980  -13.9061  -47.5015 H         1 UNK         0.0600 
    132 H132        0.6645  -14.1250  -49.3922 H         1 UNK         0.0800 
    133 H133        1.4136  -14.1523  -47.8398 H         1 UNK         0.0800 
    134 H134        1.8905  -15.5444  -51.2090 H         1 UNK         0.0800 
    135 H135        0.3021  -16.2154  -50.9282 H         1 UNK         0.0800 
    136 H136        3.0407  -16.8374  -52.8200 H         1 UNK         0.1150 
    137 H137        2.7752  -21.1117  -52.8612 H         1 UNK         0.1150 
    138 H138        0.5613  -18.8592  -49.9649 H         1 UNK         0.1150 
    139 H139        1.4384  -22.2812  -51.3290 H         1 UNK         0.0800 
    140 H140       -0.0306  -21.4191  -50.9727 H         1 UNK         0.0800 
    141 H141       -0.9616  -21.2335  -49.0067 H         1 UNK         0.0800 
    142 H142       -0.2156  -20.6602  -47.5511 H         1 UNK         0.0800 
    143 H143       -0.5013  -23.6285  -48.2439 H         1 UNK         0.0600 
    144 H144        0.7140  -22.3207  -45.9736 H         1 UNK         0.3000 
    145 H145        0.8537  -25.2585  -43.9382 H         1 UNK         0.0600 
    146 H146        2.7907  -25.4446  -45.5062 H         1 UNK         0.0600 
    147 H147        3.2690  -24.6924  -43.9929 H         1 UNK         0.0600 
    148 H148        3.0352  -23.7037  -45.4350 H         1 UNK         0.0600 
    149 H149        1.8215  -22.5905  -43.5741 H         1 UNK         0.3000 
    150 H150       -1.1501  -21.1087  -42.3647 H         1 UNK         0.0600 
    151 H151        1.2851  -22.0029  -40.7299 H         1 UNK         0.0600 
    152 H152       -0.3925  -22.3670  -40.3402 H         1 UNK         0.0600 
    153 H153        0.1707  -20.7032  -40.3068 H         1 UNK         0.0600 
    154 H154        1.4683  -20.0835  -42.3579 H         1 UNK         0.3000 
    155 H155        2.6738  -19.4405  -44.4124 H         1 UNK         0.0600 
    156 H156        1.8756  -19.6669  -46.7130 H         1 UNK         0.0600 
    157 H157        2.4099  -18.0170  -46.4514 H         1 UNK         0.0600 
    158 H158        0.6883  -18.3892  -46.4898 H         1 UNK         0.0600 
    159 H159        1.2245  -16.9540  -44.4843 H         1 UNK         0.3000 
    160 H160        0.6806  -15.9309  -42.0269 H         1 UNK         0.0600 
    161 H161        3.4607  -16.0363  -40.7509 H         1 UNK         0.0600 
    162 H162        1.9451  -16.5181  -40.0028 H         1 UNK         0.0600 
    163 H163        2.2226  -14.8308  -40.4017 H         1 UNK         0.0600 
    164 H164        1.4561  -14.4899  -43.4482 H         1 UNK         0.3000 
    165 H165        4.6654  -13.3527  -44.3514 H         1 UNK         0.0600 
    166 H166        4.5782  -14.9974  -46.1438 H         1 UNK         0.0600 
    167 H167        2.8327  -14.8978  -46.2474 H         1 UNK         0.0600 
    168 H168        3.8287  -13.5306  -46.7563 H         1 UNK         0.0600 
    169 H169        1.7702  -12.9552  -44.1207 H         1 UNK         0.3000 
    170 H170        2.3100   -9.4635  -44.0349 H         1 UNK         0.0600 
    171 H171        0.2292   -9.3290  -45.3864 H         1 UNK         0.0600 
    172 H172        0.4455  -10.9923  -45.9341 H         1 UNK         0.0600 
    173 H173        1.5889   -9.7450  -46.4173 H         1 UNK         0.0600 
    174 H174        0.0094  -11.0824  -43.5239 H         1 UNK         0.3000 
    175 H175        0.8129  -12.6632  -40.6566 H         1 UNK         0.0600 
    176 H176        0.8195  -10.5029  -39.3890 H         1 UNK         0.0600 
    177 H177       -0.6113   -9.9790  -40.2686 H         1 UNK         0.0600 
    178 H178       -0.6928  -11.3669  -39.1823 H         1 UNK         0.0600 
    179 H179       -1.7834  -11.9771  -41.2442 H         1 UNK         0.3000 
    180 H180       -3.0047  -13.8448  -42.1733 H         1 UNK         0.0600 
    181 H181       -2.7271  -12.0881  -44.6845 H         1 UNK         0.0600 
    182 H182       -3.2995  -11.5414  -43.1134 H         1 UNK         0.0600 
    183 H183       -4.2464  -12.6981  -44.0303 H         1 UNK         0.0600 
    184 H184       -2.6329  -14.5051  -44.9716 H         1 UNK         0.3000 
    185 H185       -1.1728  -17.6218  -44.6356 H         1 UNK         0.0600 
    186 H186       -3.5214  -18.2892  -44.0170 H         1 UNK         0.0600 
    187 H187       -4.1432  -17.2280  -45.2735 H         1 UNK         0.0600 
    188 H188       -3.1412  -18.6174  -45.7016 H         1 UNK         0.0600 
    189 H189       -2.5238  -16.2894  -46.7981 H         1 UNK         0.3000 
    190 H190       -1.7167  -21.9996  -45.3298 H         1 UNK         0.3000 
    191 H191       -4.4884  -22.0187  -46.0781 H         1 UNK         0.0600 
    192 H192       -3.5111  -20.6360  -44.2084 H         1 UNK         0.0600 
    193 H193       -4.9092  -21.5799  -43.7164 H         1 UNK         0.0600 
    194 H194       -3.2968  -22.1005  -43.2584 H         1 UNK         0.0600 
    195 H195       -2.4692  -24.3218  -44.1935 H         1 UNK         0.3000 
    196 H196       -4.4665  -26.2604  -43.7176 H         1 UNK         0.0600 
    197 H197       -2.5234  -27.7327  -43.1642 H         1 UNK         0.0600 
    198 H198       -2.3425  -26.1369  -42.4505 H         1 UNK         0.0600 
    199 H199       -1.4217  -26.5677  -43.8895 H         1 UNK         0.0600 
    200 H200       -2.1043  -26.0017  -46.4083 H         1 UNK         0.3000 
    201 H201       -2.9454  -28.4110  -47.7459 H         1 UNK         0.0600 
    202 H202       -1.4571  -27.5464  -49.5541 H         1 UNK         0.0600 
    203 H203       -0.6705  -27.4285  -47.9888 H         1 UNK         0.0600 
    204 H204       -1.3507  -25.9881  -48.7439 H         1 UNK         0.0600 
    205 H205       -4.4008  -25.3387  -47.5436 H         1 UNK         0.3000 
    206 H206       -6.0512  -24.2531  -48.4866 H         1 UNK         0.0600 
    207 H207       -7.2997  -26.4320  -48.5256 H         1 UNK         0.0600 
    208 H208       -7.7815  -25.3513  -49.8225 H         1 UNK         0.0600 
    209 H209       -6.7344  -26.7152  -50.1725 H         1 UNK         0.0600 
    210 H210       -3.3070  -24.5402  -49.7707 H         1 UNK         0.3000 
    211 H211       -3.5752  -23.7728  -52.5513 H         1 UNK         0.0600 
    212 H212       -1.5153  -24.8477  -51.6878 H         1 UNK         0.0600 
    213 H213       -1.1424  -23.2500  -52.3118 H         1 UNK         0.0600 
    214 H214       -1.2483  -23.5110  -50.5730 H         1 UNK         0.0600 
    215 H215       -3.5301  -22.1041  -49.4315 H         1 UNK         0.3000 
    216 H216       -3.3612  -19.4108  -50.4571 H         1 UNK         0.0600 
    217 H217       -4.4623  -20.4859  -47.8054 H         1 UNK         0.0600 
    218 H218       -4.1523  -18.7940  -48.1626 H         1 UNK         0.0600 
    219 H219       -2.8150  -19.9226  -48.0943 H         1 UNK         0.0600 
    220 H220       -6.0460  -21.6522  -49.7315 H         1 UNK         0.3000 
    221 H221       -8.1782  -19.7788  -50.2280 H         1 UNK         0.0600 
    222 H222       -8.2032  -22.8447  -50.1821 H         1 UNK         0.0600 
    223 H223       -8.4740  -21.7933  -48.7930 H         1 UNK         0.0600 
    224 H224       -9.6129  -21.7983  -50.1302 H         1 UNK         0.0600 
    225 H225       -6.4631  -22.2057  -52.2058 H         1 UNK         0.3000 
    226 H226       -7.9125  -21.7453  -54.6457 H         1 UNK         0.0600 
    227 H227       -6.5851  -23.8163  -54.1534 H         1 UNK         0.0600 
    228 H228       -6.0553  -23.0506  -55.6440 H         1 UNK         0.0600 
    229 H229       -5.0979  -22.8690  -54.1810 H         1 UNK         0.0600 
    230 H230       -5.5884  -19.8636  -52.9896 H         1 UNK         0.3000 
    231 H231       -4.4434  -18.0232  -53.3206 H         1 UNK         0.0600 
    232 H232       -6.2030  -17.5225  -55.7785 H         1 UNK         0.0600 
    233 H233       -5.2562  -16.3234  -54.9087 H         1 UNK         0.0600 
    234 H234       -6.6202  -17.0975  -54.1186 H         1 UNK         0.0600 
    235 H235       -3.1325  -20.2513  -54.0462 H         1 UNK         0.3000 
    236 H236       -1.8210  -20.0925  -56.6153 H         1 UNK         0.0600 
    237 H237       -1.0165  -21.5038  -54.0140 H         1 UNK         0.0600 
    238 H238       -1.9904  -22.2109  -55.3029 H         1 UNK         0.0600 
    239 H239       -0.3070  -21.7913  -55.5974 H         1 UNK         0.0600 
    240 H240       -0.2472  -18.7839  -57.1880 H         1 UNK         0.3000 
    241 H241        0.9793  -17.0142  -57.2848 H         1 UNK         0.0600 
    242 H242       -0.1499  -16.9822  -54.1326 H         1 UNK         0.3800 
    243 H243        0.4365  -15.3577  -53.7922 H         1 UNK         0.3800 
    244 H244        2.6329  -18.4975  -57.6452 H         1 UNK         0.0800 
    245 H245        3.4117  -17.4705  -56.5050 H         1 UNK         0.0800 
    246 H246        4.7389  -19.7052  -53.9841 H         1 UNK         0.0800 
    247 H247        4.3295  -18.0658  -54.4212 H         1 UNK         0.0800 
@<TRIPOS>BOND
     1    1    2 1    
     2    1  127 1    
     3    1  128 1    
     4    1  129 1    
     5    2    3 2    
     6    2    4 am   BACKBONE|DICT|INTERRES
     7    4    5 1    
     8    4  130 1    
     9    5    6 1    
    10    5   65 1    
    11    5  131 1    
    12    6    7 1    
    13    6  132 1    
    14    6  133 1    
    15    7    8 1    
    16    8    9 1    
    17    8  134 1    
    18    8  135 1    
    19    9   10 ar   
    20    9   14 ar   
    21   10   11 ar   
    22   10  136 1    
    23   11   12 ar   
    24   11  126 1    
    25   12   13 ar   
    26   12  137 1    
    27   13   14 ar   
    28   13   15 1    
    29   14  138 1    
    30   15   16 1    
    31   15  139 1    
    32   15  140 1    
    33   16   17 1    
    34   17   18 1    
    35   17  141 1    
    36   17  142 1    
    37   18   19 1    
    38   18   67 1    
    39   18  143 1    
    40   19   20 am   BACKBONE|DICT|INTERRES
    41   19  144 1    
    42   20   21 2    
    43   20   22 1    
    44   22   23 1    
    45   22   24 1    
    46   22  145 1    
    47   23  146 1    
    48   23  147 1    
    49   23  148 1    
    50   24   25 am   BACKBONE|DICT|INTERRES
    51   24  149 1    
    52   25   26 2    
    53   25   27 1    
    54   27   28 1    
    55   27   29 1    
    56   27  150 1    
    57   28  151 1    
    58   28  152 1    
    59   28  153 1    
    60   29   30 am   BACKBONE|DICT|INTERRES
    61   29  154 1    
    62   30   31 2    
    63   30   32 1    
    64   32   33 1    
    65   32   34 1    
    66   32  155 1    
    67   33  156 1    
    68   33  157 1    
    69   33  158 1    
    70   34   35 am   BACKBONE|DICT|INTERRES
    71   34  159 1    
    72   35   36 2    
    73   35   37 1    
    74   37   38 1    
    75   37   39 1    
    76   37  160 1    
    77   38  161 1    
    78   38  162 1    
    79   38  163 1    
    80   39   40 am   BACKBONE|DICT|INTERRES
    81   39  164 1    
    82   40   41 2    
    83   40   42 1    
    84   42   43 1    
    85   42   44 1    
    86   42  165 1    
    87   43  166 1    
    88   43  167 1    
    89   43  168 1    
    90   44   45 am   BACKBONE|DICT|INTERRES
    91   44  169 1    
    92   45   46 2    
    93   45   47 1    
    94   47   48 1    
    95   47   49 1    
    96   47  170 1    
    97   48  171 1    
    98   48  172 1    
    99   48  173 1    
   100   49   50 am   BACKBONE|DICT|INTERRES
   101   49  174 1    
   102   50   51 2    
   103   50   52 1    
   104   52   53 1    
   105   52   54 1    
   106   52  175 1    
   107   53  176 1    
   108   53  177 1    
   109   53  178 1    
   110   54   55 am   BACKBONE|DICT|INTERRES
   111   54  179 1    
   112   55   56 2    
   113   55   57 1    
   114   57   58 1    
   115   57   59 1    
   116   57  180 1    
   117   58  181 1    
   118   58  182 1    
   119   58  183 1    
   120   59   60 am   BACKBONE|DICT|INTERRES
   121   59  184 1    
   122   60   61 2    
   123   60   62 1    
   124   62   63 1    
   125   62   64 1    
   126   62  185 1    
   127   63  186 1    
   128   63  187 1    
   129   63  188 1    
   130   64   65 am   BACKBONE|DICT|INTERRES
   131   64  189 1    
   132   65   66 2    
   133   67   68 2    
   134   67   69 am   BACKBONE|DICT|INTERRES
   135   69   70 1    
   136   69  190 1    
   137   70   71 1    
   138   70   72 1    
   139   70  191 1    
   140   71  192 1    
   141   71  193 1    
   142   71  194 1    
   143   72   73 2    
   144   72   74 am   BACKBONE|DICT|INTERRES
   145   74   75 1    
   146   74  195 1    
   147   75   76 1    
   148   75   77 1    
   149   75  196 1    
   150   76  197 1    
   151   76  198 1    
   152   76  199 1    
   153   77   78 2    
   154   77   79 am   BACKBONE|DICT|INTERRES
   155   79   80 1    
   156   79  200 1    
   157   80   81 1    
   158   80   82 1    
   159   80  201 1    
   160   81  202 1    
   161   81  203 1    
   162   81  204 1    
   163   82   83 2    
   164   82   84 am   BACKBONE|DICT|INTERRES
   165   84   85 1    
   166   84  205 1    
   167   85   86 1    
   168   85   87 1    
   169   85  206 1    
   170   86  207 1    
   171   86  208 1    
   172   86  209 1    
   173   87   88 2    
   174   87   89 am   BACKBONE|DICT|INTERRES
   175   89   90 1    
   176   89  210 1    
   177   90   91 1    
   178   90   92 1    
   179   90  211 1    
   180   91  212 1    
   181   91  213 1    
   182   91  214 1    
   183   92   93 2    
   184   92   94 am   BACKBONE|DICT|INTERRES
   185   94   95 1    
   186   94  215 1    
   187   95   96 1    
   188   95   97 1    
   189   95  216 1    
   190   96  217 1    
   191   96  218 1    
   192   96  219 1    
   193   97   98 2    
   194   97   99 am   BACKBONE|DICT|INTERRES
   195   99  100 1    
   196   99  220 1    
   197  100  101 1    
   198  100  102 1    
   199  100  221 1    
   200  101  222 1    
   201  101  223 1    
   202  101  224 1    
   203  102  103 2    
   204  102  104 am   BACKBONE|DICT|INTERRES
   205  104  105 1    
   206  104  225 1    
   207  105  106 1    
   208  105  107 1    
   209  105  226 1    
   210  106  227 1    
   211  106  228 1    
   212  106  229 1    
   213  107  108 2    
   214  107  109 am   BACKBONE|DICT|INTERRES
   215  109  110 1    
   216  109  230 1    
   217  110  111 1    
   218  110  112 1    
   219  110  231 1    
   220  111  232 1    
   221  111  233 1    
   222  111  234 1    
   223  112  113 2    
   224  112  114 am   BACKBONE|DICT|INTERRES
   225  114  115 1    
   226  114  235 1    
   227  115  116 1    
   228  115  117 1    
   229  115  236 1    
   230  116  237 1    
   231  116  238 1    
   232  116  239 1    
   233  117  118 2    
   234  117  119 am   BACKBONE|DICT|INTERRES
   235  119  120 1    
   236  119  240 1    
   237  120  121 1    
   238  120  124 1    
   239  120  241 1    
   240  121  122 am   BACKBONE|DICT|INTERRES
   241  121  123 2    
   242  122  242 1    
   243  122  243 1    
   244  124  125 1    
   245  124  244 1    
   246  124  245 1    
   247  125  126 1    
   248  126  246 1    
   249  126  247 1    
@<TRIPOS>SUBSTRUCTURE
     1 UNK         1 GROUP             0       ****    0 ROOT    
