@<TRIPOS>MOLECULE
3R540
247   249    1
SMALL
USER_CHARGES


@<TRIPOS>ATOM
      1 CA         -4.8794  -18.1661  -45.9597 C.3       0 UNK        -0.1800 
      2 C          -4.8879  -17.6708  -47.3982 C.2       0 UNK         0.5000 
      3 O          -5.8867  -17.1099  -47.8463 O.2       0 UNK        -0.5000 
      4 N          -3.7726  -17.8619  -48.1165 N.am      1 UNK        -0.5000 
      5 CA         -3.5664  -17.3801  -49.4924 C.3       1 UNK         0.1400 
      6 C6         -2.3129  -18.0110  -50.1452 C.3       23 UNK        -0.0398 
      7 S7         -2.3025  -19.8315  -50.1475 S.3       23 UNK        -0.2404 
      8 C8         -1.1365  -20.1522  -51.5195 C.3       23 UNK        -0.0205 
      9 C9          0.3514  -19.9360  -51.2391 C.ar      23 UNK        -0.0193 
     10 C10         1.2374  -20.1172  -52.3050 C.ar      23 UNK        -0.1150 
     11 C11         2.6085  -19.9148  -52.1432 C.ar      23 UNK        -0.0193 
     12 C12         3.1021  -19.5437  -50.8914 C.ar      23 UNK        -0.1150 
     13 C13         2.2404  -19.3795  -49.8040 C.ar      23 UNK        -0.0193 
     14 C14         0.8656  -19.5761  -49.9850 C.ar      23 UNK        -0.1150 
     15 C15         2.8182  -18.9824  -48.4475 C.3       23 UNK        -0.0205 
     16 S16         2.2957  -20.0526  -47.0648 S.3       23 UNK        -0.2404 
     17 C17         2.7625  -21.7206  -47.6578 C.3       23 UNK        -0.0398 
     18 CA          1.9147  -22.8713  -47.0608 C.3       11 UNK         0.1400 
     19 N           2.0978  -23.0098  -45.6131 N.am      11 UNK        -0.5000 
     20 C           1.7357  -24.0942  -44.9138 C.2       10 UNK         0.5000 
     21 O           1.2034  -25.0854  -45.4145 O.2       10 UNK        -0.5000 
     22 CA          1.9788  -24.0509  -43.3954 C.3       10 UNK         0.1400 
     23 CB          3.4541  -24.3298  -43.0719 C.3       10 UNK        -0.1800 
     24 N           1.5762  -22.7906  -42.7692 N.am      10 UNK        -0.5000 
     25 C           0.3364  -22.2871  -42.7669 C.2       9 UNK         0.5000 
     26 O          -0.6010  -22.7873  -43.3867 O.2       9 UNK        -0.5000 
     27 CA          0.0888  -21.0146  -41.9402 C.3       9 UNK         0.1400 
     28 CB         -0.0961  -21.3423  -40.4474 C.3       9 UNK        -0.1800 
     29 N           1.0791  -19.9547  -42.1393 N.am      9 UNK        -0.5000 
     30 C           2.3711  -19.8961  -41.7920 C.2       8 UNK         0.5000 
     31 O           2.9902  -20.8219  -41.2658 O.2       8 UNK        -0.5000 
     32 CA          3.0877  -18.5632  -42.0838 C.3       8 UNK         0.1400 
     33 CB          3.6212  -18.5454  -43.5246 C.3       8 UNK        -0.1800 
     34 N           2.2214  -17.3992  -41.8698 N.am      8 UNK        -0.5000 
     35 C           1.7619  -17.0027  -40.6729 C.2       7 UNK         0.5000 
     36 O           2.0928  -17.5240  -39.6071 O.2       7 UNK        -0.5000 
     37 CA          0.7436  -15.8460  -40.6616 C.3       7 UNK         0.1400 
     38 CB          1.4515  -14.4856  -40.7530 C.3       7 UNK        -0.1800 
     39 N          -0.2475  -15.9600  -41.7324 N.am      7 UNK        -0.5000 
     40 C          -1.2002  -16.9030  -41.7889 C.2       6 UNK         0.5000 
     41 O          -1.3953  -17.7348  -40.9028 O.2       6 UNK        -0.5000 
     42 CA         -2.0581  -16.9485  -43.0676 C.3       6 UNK         0.1400 
     43 CB         -3.2424  -15.9756  -42.9707 C.3       6 UNK        -0.1800 
     44 N          -1.2811  -16.6483  -44.2690 N.am      6 UNK        -0.5000 
     45 C          -0.2920  -17.4151  -44.7456 C.2       5 UNK         0.5000 
     46 O           0.0159  -18.5042  -44.2688 O.2       5 UNK        -0.5000 
     47 CA          0.5101  -16.8583  -45.9305 C.3       5 UNK         0.1400 
     48 CB         -0.1959  -17.1803  -47.2497 C.3       5 UNK        -0.1800 
     49 N           0.7250  -15.4166  -45.8258 N.am      5 UNK        -0.5000 
     50 C           1.5434  -14.8436  -44.9332 C.2       4 UNK         0.5000 
     51 O           2.2165  -15.4772  -44.1209 O.2       4 UNK        -0.5000 
     52 CA          1.5858  -13.3047  -44.9259 C.3       4 UNK         0.1400 
     53 CB          2.5782  -12.7877  -45.9779 C.3       4 UNK        -0.1800 
     54 N           0.2709  -12.7060  -45.1644 N.am      4 UNK        -0.5000 
     55 C          -0.7562  -12.7723  -44.3054 C.2       3 UNK         0.5000 
     56 O          -0.6919  -13.3215  -43.2054 O.2       3 UNK        -0.5000 
     57 CA         -2.0939  -12.1731  -44.7852 C.3       3 UNK         0.1400 
     58 CB         -2.1247  -10.6559  -44.5479 C.3       3 UNK        -0.1800 
     59 N          -2.3862  -12.4547  -46.1969 N.am      3 UNK        -0.5000 
     60 C          -2.5206  -13.6877  -46.7010 C.2       2 UNK         0.5000 
     61 O          -2.4000  -14.7110  -46.0195 O.2       2 UNK        -0.5000 
     62 CA         -2.7891  -13.8146  -48.2104 C.3       2 UNK         0.1400 
     63 CB         -1.5650  -13.3508  -49.0244 C.3       2 UNK        -0.1800 
     64 N          -3.0578  -15.2245  -48.4550 N.am      2 UNK        -0.5000 
     65 C          -3.4581  -15.8376  -49.5722 C.2       1 UNK         0.5000 
     66 O          -3.7080  -15.2536  -50.6261 O.2       1 UNK        -0.5000 
     67 C           0.4222  -22.7749  -47.4428 C.2       11 UNK         0.5000 
     68 O          -0.0040  -23.4099  -48.4077 O.2       11 UNK        -0.5000 
     69 N          -0.3497  -22.0271  -46.6408 N.am      12 UNK        -0.5000 
     70 CA         -1.7905  -21.8597  -46.7949 C.3       12 UNK         0.1400 
     71 CB         -2.2848  -20.7371  -45.8738 C.3       12 UNK        -0.1800 
     72 C          -2.5597  -23.1623  -46.5373 C.2       12 UNK         0.5000 
     73 O          -3.4802  -23.4711  -47.2915 O.2       12 UNK        -0.5000 
     74 N          -2.1489  -23.9171  -45.5097 N.am      13 UNK        -0.5000 
     75 CA         -2.6880  -25.2348  -45.1777 C.3       13 UNK         0.1400 
     76 CB         -2.1247  -25.6962  -43.8251 C.3       13 UNK        -0.1800 
     77 C          -2.4080  -26.2790  -46.2728 C.2       13 UNK         0.5000 
     78 O          -3.3061  -27.0486  -46.6143 O.2       13 UNK        -0.5000 
     79 N          -1.1856  -26.2653  -46.8245 N.am      14 UNK        -0.5000 
     80 CA         -0.7627  -27.1349  -47.9238 C.3       14 UNK         0.1400 
     81 CB          0.7565  -27.0156  -48.1186 C.3       14 UNK        -0.1800 
     82 C          -1.5074  -26.8409  -49.2396 C.2       14 UNK         0.5000 
     83 O          -1.9169  -27.7763  -49.9282 O.2       14 UNK        -0.5000 
     84 N          -1.6844  -25.5511  -49.5551 N.am      15 UNK        -0.5000 
     85 CA         -2.4033  -25.0789  -50.7405 C.3       15 UNK         0.1400 
     86 CB         -1.9771  -23.6343  -51.0247 C.3       15 UNK        -0.1800 
     87 C          -3.9370  -25.1534  -50.6096 C.2       15 UNK         0.5000 
     88 O          -4.6278  -25.0769  -51.6261 O.2       15 UNK        -0.5000 
     89 N          -4.4337  -25.2704  -49.3704 N.am      16 UNK        -0.5000 
     90 CA         -5.8382  -25.2101  -48.9571 C.3       16 UNK         0.1400 
     91 CB         -6.6449  -26.3895  -49.5403 C.3       16 UNK        -0.1800 
     92 C          -6.4702  -23.8278  -49.2342 C.2       16 UNK         0.5000 
     93 O          -7.6083  -23.7542  -49.6999 O.2       16 UNK        -0.5000 
     94 N          -5.7068  -22.7680  -48.9203 N.am      17 UNK        -0.5000 
     95 CA         -6.0313  -21.3416  -49.0360 C.3       17 UNK         0.1400 
     96 CB         -7.0842  -20.9469  -47.9815 C.3       17 UNK        -0.1800 
     97 C          -6.4414  -20.9352  -50.4670 C.2       17 UNK         0.5000 
     98 O          -7.6305  -20.7861  -50.7591 O.2       17 UNK        -0.5000 
     99 N          -5.4377  -20.7877  -51.3412 N.am      18 UNK        -0.5000 
    100 CA        -5.5944  -20.3678  -52.7364 C.3       18 UNK         0.1400 
    101 CB        -4.2623  -20.5944  -53.4682 C.3       18 UNK        -0.1800 
    102 C         -6.0538  -18.8998  -52.8830 C.2       18 UNK         0.5000 
    103 O         -6.0943  -18.1512  -51.9054 O.2       18 UNK        -0.5000 
    104 N         -6.3818  -18.5076  -54.1209 N.am      19 UNK        -0.5000 
    105 CA        -6.8835  -17.1743  -54.4713 C.3       19 UNK         0.1400 
    106 CB        -7.4030  -17.2070  -55.9174 C.3       19 UNK        -0.1800 
    107 C         -5.8612  -16.0309  -54.2952 C.2       19 UNK         0.5000 
    108 O         -6.2719  -14.8783  -54.1521 O.2       19 UNK        -0.5000 
    109 N         -4.5642  -16.3555  -54.3170 N.am      20 UNK        -0.5000 
    110 CA        -3.4521  -15.4294  -54.1323 C.3       20 UNK         0.1400 
    111 CB        -3.1680  -14.6835  -55.4495 C.3       20 UNK        -0.1800 
    112 C         -2.2201  -16.2174  -53.6678 C.2       20 UNK         0.5000 
    113 O         -2.1871  -17.4416  -53.8155 O.2       20 UNK        -0.5000 
    114 N         -1.2271  -15.5006  -53.1316 N.am      21 UNK        -0.5000 
    115 CA         0.0661  -16.0336  -52.7147 C.3       21 UNK         0.1400 
    116 CB         0.3703  -15.5321  -51.2901 C.3       21 UNK        -0.1800 
    117 C          1.1310  -15.5326  -53.7156 C.2       21 UNK         0.5000 
    118 O          1.4911  -14.3580  -53.6385 O.2       21 UNK        -0.5000 
    119 N          1.6380  -16.3281  -54.6678 N.am      22 UNK        -0.5000 
    120 CA         1.2597  -17.7038  -55.0439 C.3       22 UNK         0.1400 
    121 C          0.1807  -17.7662  -56.1656 C.2       22 UNK         0.5000 
    122 N         -0.2527  -16.6488  -56.7380 N.am      22 UNK        -0.7600 
    123 O         -0.2705  -18.8496  -56.5254 O.2       22 UNK        -0.5000 
    124 C124        2.4989  -18.5479  -55.4461 C.3       23 UNK        -0.0398 
    125 S125        3.8444  -18.5451  -54.2078 S.3       23 UNK        -0.2404 
    126 C126        3.5626  -20.1049  -53.3118 C.3       23 UNK        -0.0205 
    127 H127       -3.8652  -18.2335  -45.5659 H         1 UNK         0.0600 
    128 H128       -5.3485  -19.1476  -45.8950 H         1 UNK         0.0600 
    129 H129       -5.4369  -17.4801  -45.3220 H         1 UNK         0.0600 
    130 H130       -3.0007  -18.3705  -47.7132 H         1 UNK         0.3000 
    131 H131       -4.4377  -17.6738  -50.0762 H         1 UNK         0.0600 
    132 H132       -1.4050  -17.6764  -49.6477 H         1 UNK         0.0800 
    133 H133       -2.2330  -17.6732  -51.1771 H         1 UNK         0.0800 
    134 H134       -1.2711  -21.1790  -51.8512 H         1 UNK         0.0800 
    135 H135       -1.4127  -19.5293  -52.3695 H         1 UNK         0.0800 
    136 H136        0.8549  -20.4120  -53.2723 H         1 UNK         0.1150 
    137 H137        4.1644  -19.3869  -50.7657 H         1 UNK         0.1150 
    138 H138        0.2072  -19.4617  -49.1400 H         1 UNK         0.1150 
    139 H139        3.9088  -18.9862  -48.4801 H         1 UNK         0.0800 
    140 H140        2.5280  -17.9548  -48.2302 H         1 UNK         0.0800 
    141 H141        3.8156  -21.8798  -47.4227 H         1 UNK         0.0800 
    142 H142        2.6989  -21.7606  -48.7455 H         1 UNK         0.0800 
    143 H143        2.2855  -23.7942  -47.5127 H         1 UNK         0.0600 
    144 H144        2.5051  -22.2239  -45.1278 H         1 UNK         0.3000 
    145 H145        1.3776  -24.8444  -42.9467 H         1 UNK         0.0600 
    146 H146        3.6131  -24.4071  -41.9962 H         1 UNK         0.0600 
    147 H147        3.7813  -25.2707  -43.5166 H         1 UNK         0.0600 
    148 H148        4.1062  -23.5417  -43.4505 H         1 UNK         0.0600 
    149 H149        2.2785  -22.2926  -42.2289 H         1 UNK         0.3000 
    150 H150       -0.8525  -20.5931  -42.2971 H         1 UNK         0.0600 
    151 H151       -0.9084  -22.0560  -40.3047 H         1 UNK         0.0600 
    152 H152       -0.3459  -20.4463  -39.8787 H         1 UNK         0.0600 
    153 H153        0.8017  -21.7789  -40.0092 H         1 UNK         0.0600 
    154 H154        0.7238  -19.1756  -42.6881 H         1 UNK         0.3000 
    155 H155        3.9376  -18.4843  -41.4030 H         1 UNK         0.0600 
    156 H156        4.1785  -17.6308  -43.7279 H         1 UNK         0.0600 
    157 H157        2.8138  -18.6127  -44.2539 H         1 UNK         0.0600 
    158 H158        4.2945  -19.3845  -43.7034 H         1 UNK         0.0600 
    159 H159        1.9633  -16.8651  -42.6932 H         1 UNK         0.3000 
    160 H160        0.2120  -15.8825  -39.7084 H         1 UNK         0.0600 
    161 H161        0.7373  -13.6649  -40.6836 H         1 UNK         0.0600 
    162 H162        1.9976  -14.3740  -41.6893 H         1 UNK         0.0600 
    163 H163        2.1676  -14.3639  -39.9395 H         1 UNK         0.0600 
    164 H164       -0.1993  -15.2720  -42.4748 H         1 UNK         0.3000 
    165 H165       -2.4549  -17.9611  -43.1685 H         1 UNK         0.0600 
    166 H166       -3.8751  -16.0344  -43.8563 H         1 UNK         0.0600 
    167 H167       -3.8670  -16.2057  -42.1068 H         1 UNK         0.0600 
    168 H168       -2.9079  -14.9429  -42.8696 H         1 UNK         0.0600 
    169 H169       -1.5225  -15.7946  -44.7654 H         1 UNK         0.3000 
    170 H170        1.4851  -17.3487  -45.9352 H         1 UNK         0.0600 
    171 H171       -0.3301  -18.2561  -47.3550 H         1 UNK         0.0600 
    172 H172       -1.1812  -16.7249  -47.2934 H         1 UNK         0.0600 
    173 H173        0.3785  -16.8297  -48.1070 H         1 UNK         0.0600 
    174 H174        0.1707  -14.8249  -46.4248 H         1 UNK         0.3000 
    175 H175        1.9338  -12.9857  -43.9410 H         1 UNK         0.0600 
    176 H176        2.6717  -11.7026  -45.9316 H         1 UNK         0.0600 
    177 H177        3.5725  -13.2057  -45.8143 H         1 UNK         0.0600 
    178 H178        2.2717  -13.0560  -46.9898 H         1 UNK         0.0600 
    179 H179        0.1335  -12.2351  -46.0464 H         1 UNK         0.3000 
    180 H180       -2.8870  -12.6261  -44.1864 H         1 UNK         0.0600 
    181 H181       -1.3767  -10.1375  -45.1489 H         1 UNK         0.0600 
    182 H182       -1.9261  -10.4206  -43.5013 H         1 UNK         0.0600 
    183 H183       -3.1014  -10.2383  -44.7932 H         1 UNK         0.0600 
    184 H184       -2.4931  -11.6562  -46.8059 H         1 UNK         0.3000 
    185 H185       -3.6707  -13.2265  -48.4709 H         1 UNK         0.0600 
    186 H186       -1.7380  -13.4484  -50.0960 H         1 UNK         0.0600 
    187 H187       -1.3377  -12.3013  -48.8357 H         1 UNK         0.0600 
    188 H188       -0.6749  -13.9304  -48.7765 H         1 UNK         0.0600 
    189 H189       -2.9370  -15.7795  -47.6161 H         1 UNK         0.3000 
    190 H190        0.0821  -21.5599  -45.8572 H         1 UNK         0.3000 
    191 H191       -1.9851  -21.5654  -47.8269 H         1 UNK         0.0600 
    192 H192       -1.8361  -19.7818  -46.1422 H         1 UNK         0.0600 
    193 H193       -3.3664  -20.6281  -45.9493 H         1 UNK         0.0600 
    194 H194       -2.0478  -20.9346  -44.8279 H         1 UNK         0.0600 
    195 H195       -1.4232  -23.5558  -44.8953 H         1 UNK         0.3000 
    196 H196       -3.7712  -25.1374  -45.0796 H         1 UNK         0.0600 
    197 H197       -2.5201  -26.6746  -43.5495 H         1 UNK         0.0600 
    198 H198       -2.3930  -25.0007  -43.0297 H         1 UNK         0.0600 
    199 H199       -1.0372  -25.7740  -43.8468 H         1 UNK         0.0600 
    200 H200       -0.4871  -25.6298  -46.4529 H         1 UNK         0.3000 
    201 H201       -0.9863  -28.1653  -47.6398 H         1 UNK         0.0600 
    202 H202        1.2930  -27.3071  -47.2155 H         1 UNK         0.0600 
    203 H203        1.0525  -25.9962  -48.3680 H         1 UNK         0.0600 
    204 H204        1.0998  -27.6649  -48.9249 H         1 UNK         0.0600 
    205 H205       -1.2582  -24.8378  -48.9699 H         1 UNK         0.3000 
    206 H206       -2.1140  -25.6945  -51.5948 H         1 UNK         0.0600 
    207 H207       -2.2371  -22.9715  -50.1981 H         1 UNK         0.0600 
    208 H208       -0.9007  -23.5643  -51.1834 H         1 UNK         0.0600 
    209 H209       -2.4662  -23.2534  -51.9218 H         1 UNK         0.0600 
    210 H210       -3.7672  -25.2669  -48.6089 H         1 UNK         0.3000 
    211 H211       -5.8335  -25.3259  -47.8722 H         1 UNK         0.0600 
    212 H212       -6.7559  -26.3136  -50.6221 H         1 UNK         0.0600 
    213 H213       -7.6473  -26.4239  -49.1123 H         1 UNK         0.0600 
    214 H214       -6.1647  -27.3423  -49.3175 H         1 UNK         0.0600 
    215 H215       -4.8034  -22.9749  -48.4996 H         1 UNK         0.3000 
    216 H216       -5.1171  -20.7953  -48.7971 H         1 UNK         0.0600 
    217 H217       -6.7324  -21.1675  -46.9737 H         1 UNK         0.0600 
    218 H218       -8.0274  -21.4738  -48.1295 H         1 UNK         0.0600 
    219 H219       -7.2957  -19.8777  -48.0260 H         1 UNK         0.0600 
    220 H220       -4.4886  -20.8957  -51.0139 H         1 UNK         0.3000 
    221 H221       -6.3540  -21.0062  -53.1922 H         1 UNK         0.0600 
    222 H222       -3.5077  -19.8815  -53.1407 H         1 UNK         0.0600 
    223 H223       -3.8773  -21.6002  -53.2994 H         1 UNK         0.0600 
    224 H224       -4.3763  -20.4707  -54.5455 H         1 UNK         0.0600 
    225 H225       -6.3145  -19.1714  -54.8788 H         1 UNK         0.3000 
    226 H226       -7.7271  -16.9540  -53.8138 H         1 UNK         0.0600 
    227 H227       -8.1958  -17.9458  -56.0366 H         1 UNK         0.0600 
    228 H228       -7.8171  -16.2401  -56.2067 H         1 UNK         0.0600 
    229 H229       -6.6080  -17.4477  -56.6244 H         1 UNK         0.0600 
    230 H230       -4.2884  -17.3267  -54.3879 H         1 UNK         0.3000 
    231 H231       -3.7090  -14.7110  -53.3510 H         1 UNK         0.0600 
    232 H232       -4.0251  -14.0862  -55.7604 H         1 UNK         0.0600 
    233 H233       -2.9341  -15.3772  -56.2577 H         1 UNK         0.0600 
    234 H234       -2.3227  -14.0025  -55.3447 H         1 UNK         0.0600 
    235 H235       -1.3193  -14.4958  -53.0819 H         1 UNK         0.3000 
    236 H236        0.0383  -17.1184  -52.6489 H         1 UNK         0.0600 
    237 H237        1.3085  -15.9516  -50.9245 H         1 UNK         0.0600 
    238 H238        0.4533  -14.4457  -51.2427 H         1 UNK         0.0600 
    239 H239       -0.4102  -15.8259  -50.5915 H         1 UNK         0.0600 
    240 H240        2.3449  -15.9272  -55.2653 H         1 UNK         0.3000 
    241 H241        0.8129  -18.2143  -54.1985 H         1 UNK         0.0600 
    242 H242        0.1201  -15.7525  -56.4690 H         1 UNK         0.3800 
    243 H243       -0.9445  -16.7068  -57.4682 H         1 UNK         0.3800 
    244 H244        2.9196  -18.1681  -56.3788 H         1 UNK         0.0800 
    245 H245        2.2089  -19.5793  -55.6530 H         1 UNK         0.0800 
    246 H246        4.5222  -20.4679  -52.9404 H         1 UNK         0.0800 
    247 H247        3.1953  -20.8774  -53.9887 H         1 UNK         0.0800 
@<TRIPOS>BOND
     1    1    2 1    
     2    1  127 1    
     3    1  128 1    
     4    1  129 1    
     5    2    3 2    
     6    2    4 am   BACKBONE|DICT|INTERRES
     7    4    5 1    
     8    4  130 1    
     9    5    6 1    
    10    5   65 1    
    11    5  131 1    
    12    6    7 1    
    13    6  132 1    
    14    6  133 1    
    15    7    8 1    
    16    8    9 1    
    17    8  134 1    
    18    8  135 1    
    19    9   10 ar   
    20    9   14 ar   
    21   10   11 ar   
    22   10  136 1    
    23   11   12 ar   
    24   11  126 1    
    25   12   13 ar   
    26   12  137 1    
    27   13   14 ar   
    28   13   15 1    
    29   14  138 1    
    30   15   16 1    
    31   15  139 1    
    32   15  140 1    
    33   16   17 1    
    34   17   18 1    
    35   17  141 1    
    36   17  142 1    
    37   18   19 1    
    38   18   67 1    
    39   18  143 1    
    40   19   20 am   BACKBONE|DICT|INTERRES
    41   19  144 1    
    42   20   21 2    
    43   20   22 1    
    44   22   23 1    
    45   22   24 1    
    46   22  145 1    
    47   23  146 1    
    48   23  147 1    
    49   23  148 1    
    50   24   25 am   BACKBONE|DICT|INTERRES
    51   24  149 1    
    52   25   26 2    
    53   25   27 1    
    54   27   28 1    
    55   27   29 1    
    56   27  150 1    
    57   28  151 1    
    58   28  152 1    
    59   28  153 1    
    60   29   30 am   BACKBONE|DICT|INTERRES
    61   29  154 1    
    62   30   31 2    
    63   30   32 1    
    64   32   33 1    
    65   32   34 1    
    66   32  155 1    
    67   33  156 1    
    68   33  157 1    
    69   33  158 1    
    70   34   35 am   BACKBONE|DICT|INTERRES
    71   34  159 1    
    72   35   36 2    
    73   35   37 1    
    74   37   38 1    
    75   37   39 1    
    76   37  160 1    
    77   38  161 1    
    78   38  162 1    
    79   38  163 1    
    80   39   40 am   BACKBONE|DICT|INTERRES
    81   39  164 1    
    82   40   41 2    
    83   40   42 1    
    84   42   43 1    
    85   42   44 1    
    86   42  165 1    
    87   43  166 1    
    88   43  167 1    
    89   43  168 1    
    90   44   45 am   BACKBONE|DICT|INTERRES
    91   44  169 1    
    92   45   46 2    
    93   45   47 1    
    94   47   48 1    
    95   47   49 1    
    96   47  170 1    
    97   48  171 1    
    98   48  172 1    
    99   48  173 1    
   100   49   50 am   BACKBONE|DICT|INTERRES
   101   49  174 1    
   102   50   51 2    
   103   50   52 1    
   104   52   53 1    
   105   52   54 1    
   106   52  175 1    
   107   53  176 1    
   108   53  177 1    
   109   53  178 1    
   110   54   55 am   BACKBONE|DICT|INTERRES
   111   54  179 1    
   112   55   56 2    
   113   55   57 1    
   114   57   58 1    
   115   57   59 1    
   116   57  180 1    
   117   58  181 1    
   118   58  182 1    
   119   58  183 1    
   120   59   60 am   BACKBONE|DICT|INTERRES
   121   59  184 1    
   122   60   61 2    
   123   60   62 1    
   124   62   63 1    
   125   62   64 1    
   126   62  185 1    
   127   63  186 1    
   128   63  187 1    
   129   63  188 1    
   130   64   65 am   BACKBONE|DICT|INTERRES
   131   64  189 1    
   132   65   66 2    
   133   67   68 2    
   134   67   69 am   BACKBONE|DICT|INTERRES
   135   69   70 1    
   136   69  190 1    
   137   70   71 1    
   138   70   72 1    
   139   70  191 1    
   140   71  192 1    
   141   71  193 1    
   142   71  194 1    
   143   72   73 2    
   144   72   74 am   BACKBONE|DICT|INTERRES
   145   74   75 1    
   146   74  195 1    
   147   75   76 1    
   148   75   77 1    
   149   75  196 1    
   150   76  197 1    
   151   76  198 1    
   152   76  199 1    
   153   77   78 2    
   154   77   79 am   BACKBONE|DICT|INTERRES
   155   79   80 1    
   156   79  200 1    
   157   80   81 1    
   158   80   82 1    
   159   80  201 1    
   160   81  202 1    
   161   81  203 1    
   162   81  204 1    
   163   82   83 2    
   164   82   84 am   BACKBONE|DICT|INTERRES
   165   84   85 1    
   166   84  205 1    
   167   85   86 1    
   168   85   87 1    
   169   85  206 1    
   170   86  207 1    
   171   86  208 1    
   172   86  209 1    
   173   87   88 2    
   174   87   89 am   BACKBONE|DICT|INTERRES
   175   89   90 1    
   176   89  210 1    
   177   90   91 1    
   178   90   92 1    
   179   90  211 1    
   180   91  212 1    
   181   91  213 1    
   182   91  214 1    
   183   92   93 2    
   184   92   94 am   BACKBONE|DICT|INTERRES
   185   94   95 1    
   186   94  215 1    
   187   95   96 1    
   188   95   97 1    
   189   95  216 1    
   190   96  217 1    
   191   96  218 1    
   192   96  219 1    
   193   97   98 2    
   194   97   99 am   BACKBONE|DICT|INTERRES
   195   99  100 1    
   196   99  220 1    
   197  100  101 1    
   198  100  102 1    
   199  100  221 1    
   200  101  222 1    
   201  101  223 1    
   202  101  224 1    
   203  102  103 2    
   204  102  104 am   BACKBONE|DICT|INTERRES
   205  104  105 1    
   206  104  225 1    
   207  105  106 1    
   208  105  107 1    
   209  105  226 1    
   210  106  227 1    
   211  106  228 1    
   212  106  229 1    
   213  107  108 2    
   214  107  109 am   BACKBONE|DICT|INTERRES
   215  109  110 1    
   216  109  230 1    
   217  110  111 1    
   218  110  112 1    
   219  110  231 1    
   220  111  232 1    
   221  111  233 1    
   222  111  234 1    
   223  112  113 2    
   224  112  114 am   BACKBONE|DICT|INTERRES
   225  114  115 1    
   226  114  235 1    
   227  115  116 1    
   228  115  117 1    
   229  115  236 1    
   230  116  237 1    
   231  116  238 1    
   232  116  239 1    
   233  117  118 2    
   234  117  119 am   BACKBONE|DICT|INTERRES
   235  119  120 1    
   236  119  240 1    
   237  120  121 1    
   238  120  124 1    
   239  120  241 1    
   240  121  122 am   BACKBONE|DICT|INTERRES
   241  121  123 2    
   242  122  242 1    
   243  122  243 1    
   244  124  125 1    
   245  124  244 1    
   246  124  245 1    
   247  125  126 1    
   248  126  246 1    
   249  126  247 1    
@<TRIPOS>SUBSTRUCTURE
     1 UNK         1 GROUP             0       ****    0 ROOT    
