@<TRIPOS>MOLECULE
3R540
247   249    1
SMALL
USER_CHARGES


@<TRIPOS>ATOM
      1 CA          2.4813   -9.5237  -49.9512 C.3       0 UNK        -0.1800 
      2 C           2.2319  -10.6275  -48.9335 C.2       0 UNK         0.5000 
      3 O           2.5857  -10.4759  -47.7634 O.2       0 UNK        -0.5000 
      4 N           1.6177  -11.7343  -49.3686 N.am      1 UNK        -0.5000 
      5 CA          1.2902  -12.9091  -48.5515 C.3       1 UNK         0.1400 
      6 C6          1.1876  -14.1970  -49.4078 C.3       23 UNK        -0.0398 
      7 S7          2.7927  -14.6471  -50.1460 S.3       23 UNK        -0.2404 
      8 C8          2.2809  -15.2548  -51.7830 C.3       23 UNK        -0.0205 
      9 C9          1.4699  -16.5403  -51.6925 C.ar      23 UNK        -0.0193 
     10 C10         0.1264  -16.5591  -52.0758 C.ar      23 UNK        -0.1150 
     11 C11        -0.6054  -17.7492  -52.0371 C.ar      23 UNK        -0.0193 
     12 C12         0.0105  -18.9231  -51.5950 C.ar      23 UNK        -0.1150 
     13 C13         1.3534  -18.9178  -51.1931 C.ar      23 UNK        -0.0193 
     14 C14         2.0743  -17.7218  -51.2548 C.ar      23 UNK        -0.1150 
     15 C15         2.0777  -20.1855  -50.7425 C.3       23 UNK        -0.0205 
     16 S16         1.0183  -21.4473  -49.9644 S.3       23 UNK        -0.2404 
     17 C17         0.6801  -20.6858  -48.3436 C.3       23 UNK        -0.0398 
     18 CA         -0.3682  -21.4998  -47.5474 C.3       11 UNK         0.1400 
     19 N          -0.1943  -21.3816  -46.0978 N.am      11 UNK        -0.5000 
     20 C          -0.8171  -22.1618  -45.2022 C.2       10 UNK         0.5000 
     21 O          -1.5777  -23.0802  -45.5097 O.2       10 UNK        -0.5000 
     22 CA         -0.5921  -21.8338  -43.7155 C.3       10 UNK         0.1400 
     23 CB          0.7496  -22.3989  -43.2267 C.3       10 UNK        -0.1800 
     24 N          -0.6535  -20.3978  -43.4422 N.am      10 UNK        -0.5000 
     25 C          -1.7453  -19.6390  -43.6160 C.2       9 UNK         0.5000 
     26 O          -2.8347  -20.0819  -43.9768 O.2       9 UNK        -0.5000 
     27 CA         -1.5807  -18.1236  -43.4030 C.3       9 UNK         0.1400 
     28 CB         -1.6011  -17.7806  -41.9073 C.3       9 UNK        -0.1800 
     29 N          -0.3593  -17.5992  -44.0157 N.am      9 UNK        -0.5000 
     30 C          -0.0832  -17.6553  -45.3272 C.2       8 UNK         0.5000 
     31 O          -0.8493  -18.1144  -46.1718 O.2       8 UNK        -0.5000 
     32 CA          1.3055  -17.1677  -45.7651 C.3       8 UNK         0.1400 
     33 CB          1.3363  -15.6393  -45.8564 C.3       8 UNK        -0.1800 
     34 N           2.3554  -17.6306  -44.8606 N.am      8 UNK        -0.5000 
     35 C           2.7313  -18.9109  -44.7372 C.2       7 UNK         0.5000 
     36 O           2.2592  -19.8307  -45.4052 O.2       7 UNK        -0.5000 
     37 CA          3.7767  -19.2156  -43.6500 C.3       7 UNK         0.1400 
     38 CB          5.1947  -18.9183  -44.1597 C.3       7 UNK        -0.1800 
     39 N           3.5333  -18.4639  -42.4173 N.am      7 UNK        -0.5000 
     40 C           2.4698  -18.6462  -41.6220 C.2       6 UNK         0.5000 
     41 O           1.5957  -19.4863  -41.8327 O.2       6 UNK        -0.5000 
     42 CA          2.3411  -17.7073  -40.4092 C.3       6 UNK         0.1400 
     43 CB          3.1222  -18.2650  -39.2102 C.3       6 UNK        -0.1800 
     44 N           2.7783  -16.3343  -40.6790 N.am      6 UNK        -0.5000 
     45 C           2.1975  -15.5127  -41.5627 C.2       5 UNK         0.5000 
     46 O           1.2728  -15.8503  -42.3059 O.2       5 UNK        -0.5000 
     47 CA          2.7532  -14.0822  -41.6425 C.3       5 UNK         0.1400 
     48 CB          3.5063  -13.8551  -42.9621 C.3       5 UNK        -0.1800 
     49 N           1.6476  -13.1350  -41.5459 N.am      5 UNK        -0.5000 
     50 C           1.1558  -12.6641  -40.3898 C.2       4 UNK         0.5000 
     51 O           1.6821  -12.8619  -39.2938 O.2       4 UNK        -0.5000 
     52 CA         -0.1578  -11.8563  -40.4589 C.3       4 UNK         0.1400 
     53 CB          0.1373  -10.3539  -40.5853 C.3       4 UNK        -0.1800 
     54 N          -1.0089  -12.2690  -41.5740 N.am      4 UNK        -0.5000 
     55 C          -1.5872  -13.4719  -41.6915 C.2       3 UNK         0.5000 
     56 O          -1.6460  -14.2806  -40.7652 O.2       3 UNK        -0.5000 
     57 CA         -2.1776  -13.8494  -43.0699 C.3       3 UNK         0.1400 
     58 CB         -3.6678  -14.2087  -42.9564 C.3       3 UNK        -0.1800 
     59 N          -2.0134  -12.8355  -44.1215 N.am      3 UNK        -0.5000 
     60 C          -0.8489  -12.4577  -44.6642 C.2       2 UNK         0.5000 
     61 O           0.2491  -12.8553  -44.2689 O.2       2 UNK        -0.5000 
     62 CA         -0.9187  -11.4082  -45.7863 C.3       2 UNK         0.1400 
     63 CB         -0.6879  -10.0003  -45.2167 C.3       2 UNK        -0.1800 
     64 N           0.0946  -11.6811  -46.8009 N.am      2 UNK        -0.5000 
     65 C           0.0198  -12.6601  -47.7090 C.2       1 UNK         0.5000 
     66 O          -0.9928  -13.3384  -47.8909 O.2       1 UNK        -0.5000 
     67 C          -1.8113  -21.1740  -47.9862 C.2       11 UNK         0.5000 
     68 O          -2.3721  -21.9106  -48.7932 O.2       11 UNK        -0.5000 
     69 N          -2.4108  -20.1232  -47.4099 N.am      12 UNK        -0.5000 
     70 CA         -3.8030  -19.7353  -47.6430 C.3       12 UNK         0.1400 
     71 CB         -4.0544  -18.3453  -47.0413 C.3       12 UNK        -0.1800 
     72 C          -4.8208  -20.7585  -47.1001 C.2       12 UNK         0.5000 
     73 O          -5.8804  -20.9326  -47.7028 O.2       12 UNK        -0.5000 
     74 N          -4.4890  -21.4269  -45.9869 N.am      13 UNK        -0.5000 
     75 CA         -5.2869  -22.5096  -45.4107 C.3       13 UNK         0.1400 
     76 CB         -4.8180  -22.7953  -43.9757 C.3       13 UNK        -0.1800 
     77 C          -5.2445  -23.7867  -46.2702 C.2       13 UNK         0.5000 
     78 O          -6.2838  -24.4167  -46.4697 O.2       13 UNK        -0.5000 
     79 N          -4.0517  -24.1386  -46.7707 N.am      14 UNK        -0.5000 
     80 CA         -3.8350  -25.2652  -47.6810 C.3       14 UNK         0.1400 
     81 CB         -2.3358  -25.5818  -47.7381 C.3       14 UNK        -0.1800 
     82 C          -4.3939  -25.0063  -49.0933 C.2       14 UNK         0.5000 
     83 O          -4.9277  -25.9262  -49.7154 O.2       14 UNK        -0.5000 
     84 N          -4.2766  -23.7560  -49.5601 N.am      15 UNK        -0.5000 
     85 CA         -4.7738  -23.2220  -50.8249 C.3       15 UNK         0.1400 
     86 CB         -6.3201  -23.1703  -50.7933 C.3       15 UNK        -0.1800 
     87 C          -4.1780  -23.9796  -52.0286 C.2       15 UNK         0.5000 
     88 O          -2.9526  -24.0572  -52.1527 O.2       15 UNK        -0.5000 
     89 N          -5.0498  -24.5560  -52.8675 N.am      16 UNK        -0.5000 
     90 CA         -4.7202  -25.3147  -54.0760 C.3       16 UNK         0.1400 
     91 CB         -6.0292  -25.7280  -54.7659 C.3       16 UNK        -0.1800 
     92 C          -3.8205  -26.5469  -53.8429 C.2       16 UNK         0.5000 
     93 O          -3.1786  -27.0097  -54.7864 O.2       16 UNK        -0.5000 
     94 N          -3.7805  -27.0575  -52.6034 N.am      17 UNK        -0.5000 
     95 CA         -2.9006  -28.1518  -52.1951 C.3       17 UNK         0.1400 
     96 CB         -3.4338  -28.7693  -50.8931 C.3       17 UNK        -0.1800 
     97 C          -1.4317  -27.7168  -52.0191 C.2       17 UNK         0.5000 
     98 O          -0.5515  -28.5765  -52.0796 O.2       17 UNK        -0.5000 
     99 N          -1.1871  -26.4177  -51.7920 N.am      18 UNK        -0.5000 
    100 CA         0.1448  -25.8578  -51.5640 C.3       18 UNK         0.1400 
    101 CB         0.1372  -25.0173  -50.2790 C.3       18 UNK        -0.1800 
    102 C          0.6283  -25.0188  -52.7546 C.2       18 UNK         0.5000 
    103 O          1.7719  -25.1897  -53.1803 O.2       18 UNK        -0.5000 
    104 N         -0.2289  -24.1300  -53.2703 N.am      19 UNK        -0.5000 
    105 CA         0.1010  -23.1963  -54.3447 C.3       19 UNK         0.1400 
    106 CB         0.9569  -22.0319  -53.7967 C.3       19 UNK        -0.1800 
    107 C         -1.1936  -22.7541  -55.0450 C.2       19 UNK         0.5000 
    108 O         -1.9808  -23.6114  -55.4467 O.2       19 UNK        -0.5000 
    109 N         -1.3914  -21.4392  -55.2026 N.am      20 UNK        -0.5000 
    110 CA        -2.6159  -20.8415  -55.7301 C.3       20 UNK         0.1400 
    111 CB        -2.3258  -19.3912  -56.1481 C.3       20 UNK        -0.1800 
    112 C         -3.7580  -20.9047  -54.6997 C.2       20 UNK         0.5000 
    113 O         -3.5096  -20.9562  -53.4927 O.2       20 UNK        -0.5000 
    114 N         -5.0002  -20.8709  -55.1914 N.am      21 UNK        -0.5000 
    115 CA        -6.2256  -21.0225  -54.4057 C.3       21 UNK         0.1400 
    116 CB        -7.3434  -21.5276  -55.3360 C.3       21 UNK        -0.1800 
    117 C         -6.6301  -19.7557  -53.6137 C.2       21 UNK         0.5000 
    118 O         -7.7980  -19.3640  -53.6466 O.2       21 UNK        -0.5000 
    119 N         -5.6737  -19.1401  -52.9054 N.am      22 UNK        -0.5000 
    120 CA        -5.9126  -18.0103  -51.9866 C.3       22 UNK         0.1400 
    121 C         -6.3815  -18.4295  -50.5609 C.2       22 UNK         0.5000 
    122 N         -6.4300  -19.7158  -50.2421 N.am      22 UNK        -0.7600 
    123 O         -6.7052  -17.5772  -49.7386 O.2       22 UNK        -0.5000 
    124 C124       -4.7194  -17.0188  -51.9507 C.3       23 UNK        -0.0398 
    125 S125       -3.2083  -17.6266  -51.1139 S.3       23 UNK        -0.2404 
    126 C126       -2.0509  -17.7701  -52.5059 C.3       23 UNK        -0.0205 
    127 H127        2.1183   -9.7963  -50.9425 H         1 UNK         0.0600 
    128 H128        3.5489   -9.3166  -50.0252 H         1 UNK         0.0600 
    129 H129        1.9757   -8.6086  -49.6431 H         1 UNK         0.0600 
    130 H130        1.3377  -11.7899  -50.3372 H         1 UNK         0.3000 
    131 H131        2.0998  -13.0663  -47.8349 H         1 UNK         0.0600 
    132 H132        0.8620  -15.0476  -48.8074 H         1 UNK         0.0800 
    133 H133        0.4368  -14.0742  -50.1902 H         1 UNK         0.0800 
    134 H134        1.7236  -14.4735  -52.3022 H         1 UNK         0.0800 
    135 H135        3.1729  -15.4414  -52.3825 H         1 UNK         0.0800 
    136 H136       -0.3470  -15.6508  -52.4215 H         1 UNK         0.1150 
    137 H137       -0.5639  -19.8382  -51.5744 H         1 UNK         0.1150 
    138 H138        3.1164  -17.7070  -50.9669 H         1 UNK         0.1150 
    139 H139        2.5568  -20.6298  -51.6152 H         1 UNK         0.0800 
    140 H140        2.8805  -19.9342  -50.0474 H         1 UNK         0.0800 
    141 H141        1.6286  -20.6646  -47.8069 H         1 UNK         0.0800 
    142 H142        0.3766  -19.6441  -48.4669 H         1 UNK         0.0800 
    143 H143       -0.2052  -22.5570  -47.7710 H         1 UNK         0.0600 
    144 H144        0.4492  -20.6690  -45.7694 H         1 UNK         0.3000 
    145 H145       -1.3896  -22.3151  -43.1459 H         1 UNK         0.0600 
    146 H146        0.8740  -22.2443  -42.1548 H         1 UNK         0.0600 
    147 H147        0.8119  -23.4722  -43.4103 H         1 UNK         0.0600 
    148 H148        1.5940  -21.9288  -43.7313 H         1 UNK         0.0600 
    149 H149        0.1942  -19.9654  -43.0860 H         1 UNK         0.3000 
    150 H150       -2.4272  -17.6239  -43.8783 H         1 UNK         0.0600 
    151 H151       -2.5423  -18.0876  -41.4499 H         1 UNK         0.0600 
    152 H152       -1.4953  -16.7093  -41.7478 H         1 UNK         0.0600 
    153 H153       -0.7960  -18.2771  -41.3665 H         1 UNK         0.0600 
    154 H154        0.3132  -17.1599  -43.3931 H         1 UNK         0.3000 
    155 H155        1.5042  -17.5723  -46.7602 H         1 UNK         0.0600 
    156 H156        2.2736  -15.2810  -46.2817 H         1 UNK         0.0600 
    157 H157        1.2094  -15.1832  -44.8768 H         1 UNK         0.0600 
    158 H158        0.5234  -15.2766  -46.4839 H         1 UNK         0.0600 
    159 H159        2.7531  -16.9454  -44.2363 H         1 UNK         0.3000 
    160 H160        3.7137  -20.2808  -43.4170 H         1 UNK         0.0600 
    161 H161        5.3306  -17.8597  -44.3849 H         1 UNK         0.0600 
    162 H162        5.4060  -19.4779  -45.0720 H         1 UNK         0.0600 
    163 H163        5.9460  -19.2042  -43.4234 H         1 UNK         0.0600 
    164 H164        4.2052  -17.7524  -42.1705 H         1 UNK         0.3000 
    165 H165        1.2845  -17.6691  -40.1362 H         1 UNK         0.0600 
    166 H166        4.1947  -18.2959  -39.4060 H         1 UNK         0.0600 
    167 H167        2.9604  -17.6599  -38.3179 H         1 UNK         0.0600 
    168 H168        2.8020  -19.2808  -38.9743 H         1 UNK         0.0600 
    169 H169        3.5335  -15.9840  -40.1073 H         1 UNK         0.3000 
    170 H170        3.4552  -13.9199  -40.8218 H         1 UNK         0.0600 
    171 H171        4.3106  -14.5811  -43.0862 H         1 UNK         0.0600 
    172 H172        2.8478  -13.9395  -43.8259 H         1 UNK         0.0600 
    173 H173        3.9566  -12.8628  -42.9880 H         1 UNK         0.0600 
    174 H174        1.1247  -12.9817  -42.4025 H         1 UNK         0.3000 
    175 H175       -0.7048  -12.0249  -39.5290 H         1 UNK         0.0600 
    176 H176       -0.7823   -9.7685  -40.5725 H         1 UNK         0.0600 
    177 H177        0.7545  -10.0066  -39.7557 H         1 UNK         0.0600 
    178 H178        0.6694  -10.1245  -41.5095 H         1 UNK         0.0600 
    179 H179       -1.0125  -11.6683  -42.3841 H         1 UNK         0.3000 
    180 H180       -1.6417  -14.7436  -43.3959 H         1 UNK         0.0600 
    181 H181       -4.0619  -14.5639  -43.9087 H         1 UNK         0.0600 
    182 H182       -3.8266  -15.0047  -42.2275 H         1 UNK         0.0600 
    183 H183       -4.2641  -13.3512  -42.6424 H         1 UNK         0.0600 
    184 H184       -2.8674  -12.4310  -44.4783 H         1 UNK         0.3000 
    185 H185       -1.9058  -11.4415  -46.2524 H         1 UNK         0.0600 
    186 H186       -0.7430   -9.2447  -46.0007 H         1 UNK         0.0600 
    187 H187       -1.4435   -9.7500  -44.4711 H         1 UNK         0.0600 
    188 H188        0.2886   -9.9143  -44.7376 H         1 UNK         0.0600 
    189 H189        0.9675  -11.1692  -46.7295 H         1 UNK         0.3000 
    190 H190       -1.8702  -19.5233  -46.7903 H         1 UNK         0.3000 
    191 H191       -3.9500  -19.6667  -48.7227 H         1 UNK         0.0600 
    192 H192       -5.0791  -18.0203  -47.2264 H         1 UNK         0.0600 
    193 H193       -3.3932  -17.6005  -47.4850 H         1 UNK         0.0600 
    194 H194       -3.8933  -18.3382  -45.9629 H         1 UNK         0.0600 
    195 H195       -3.6420  -21.1670  -45.4928 H         1 UNK         0.3000 
    196 H196       -6.3257  -22.1761  -45.3620 H         1 UNK         0.0600 
    197 H197       -5.4155  -23.5860  -43.5205 H         1 UNK         0.0600 
    198 H198       -4.9159  -21.9106  -43.3465 H         1 UNK         0.0600 
    199 H199       -3.7759  -23.1128  -43.9451 H         1 UNK         0.0600 
    200 H200       -3.2335  -23.5964  -46.5105 H         1 UNK         0.3000 
    201 H201       -4.3505  -26.1389  -47.2769 H         1 UNK         0.0600 
    202 H202       -1.9600  -25.8843  -46.7606 H         1 UNK         0.0600 
    203 H203       -1.7616  -24.7127  -48.0595 H         1 UNK         0.0600 
    204 H204       -2.1325  -26.3966  -48.4342 H         1 UNK         0.0600 
    205 H205       -3.7025  -23.1021  -49.0312 H         1 UNK         0.3000 
    206 H206       -4.4020  -22.1986  -50.8944 H         1 UNK         0.0600 
    207 H207       -6.6687  -22.6204  -49.9189 H         1 UNK         0.0600 
    208 H208       -6.7289  -22.6674  -51.6683 H         1 UNK         0.0600 
    209 H209       -6.7654  -24.1646  -50.7421 H         1 UNK         0.0600 
    210 H210       -6.0321  -24.4819  -52.6486 H         1 UNK         0.3000 
    211 H211       -4.1872  -24.6414  -54.7463 H         1 UNK         0.0600 
    212 H212       -6.6276  -26.3834  -54.1318 H         1 UNK         0.0600 
    213 H213       -5.8295  -26.2630  -55.6953 H         1 UNK         0.0600 
    214 H214       -6.6353  -24.8580  -55.0188 H         1 UNK         0.0600 
    215 H215       -4.3326  -26.6218  -51.8749 H         1 UNK         0.3000 
    216 H216       -2.9270  -28.9230  -52.9679 H         1 UNK         0.0600 
    217 H217       -2.8547  -29.6509  -50.6156 H         1 UNK         0.0600 
    218 H218       -4.4725  -29.0828  -50.9983 H         1 UNK         0.0600 
    219 H219       -3.3761  -28.0678  -50.0608 H         1 UNK         0.0600 
    220 H220       -1.9565  -25.7564  -51.8179 H         1 UNK         0.3000 
    221 H221        0.8763  -26.6556  -51.4194 H         1 UNK         0.0600 
    222 H222       -0.0163  -25.6499  -49.4063 H         1 UNK         0.0600 
    223 H223        1.0921  -24.5096  -50.1379 H         1 UNK         0.0600 
    224 H224       -0.6436  -24.2551  -50.2937 H         1 UNK         0.0600 
    225 H225       -1.1763  -24.0648  -52.9039 H         1 UNK         0.3000 
    226 H226        0.6854  -23.7245  -55.1007 H         1 UNK         0.0600 
    227 H227        0.4177  -21.4665  -53.0374 H         1 UNK         0.0600 
    228 H228        1.8771  -22.3968  -53.3410 H         1 UNK         0.0600 
    229 H229        1.2525  -21.3427  -54.5885 H         1 UNK         0.0600 
    230 H230       -0.7116  -20.8024  -54.8154 H         1 UNK         0.3000 
    231 H231       -2.9225  -21.4012  -56.6165 H         1 UNK         0.0600 
    232 H232       -3.2252  -18.9001  -56.5217 H         1 UNK         0.0600 
    233 H233       -1.5848  -19.3565  -56.9470 H         1 UNK         0.0600 
    234 H234       -1.9459  -18.7945  -55.3199 H         1 UNK         0.0600 
    235 H235       -5.1260  -20.7728  -56.1887 H         1 UNK         0.3000 
    236 H236       -6.0485  -21.8053  -53.6682 H         1 UNK         0.0600 
    237 H237       -7.5927  -20.7911  -56.1009 H         1 UNK         0.0600 
    238 H238       -7.0515  -22.4490  -55.8401 H         1 UNK         0.0600 
    239 H239       -8.2544  -21.7438  -54.7764 H         1 UNK         0.0600 
    240 H240       -4.7403  -19.5401  -52.9087 H         1 UNK         0.3000 
    241 H241       -6.7507  -17.4387  -52.3897 H         1 UNK         0.0600 
    242 H242       -6.6525  -19.9998  -49.2948 H         1 UNK         0.3800 
    243 H243       -6.1687  -20.4085  -50.9193 H         1 UNK         0.3800 
    244 H244       -4.4823  -16.7053  -52.9676 H         1 UNK         0.0800 
    245 H245       -5.0235  -16.1048  -51.4381 H         1 UNK         0.0800 
    246 H246       -2.2532  -18.7001  -53.0341 H         1 UNK         0.0800 
    247 H247       -2.2153  -16.9621  -53.2200 H         1 UNK         0.0800 
@<TRIPOS>BOND
     1    1    2 1    
     2    1  127 1    
     3    1  128 1    
     4    1  129 1    
     5    2    3 2    
     6    2    4 am   BACKBONE|DICT|INTERRES
     7    4    5 1    
     8    4  130 1    
     9    5    6 1    
    10    5   65 1    
    11    5  131 1    
    12    6    7 1    
    13    6  132 1    
    14    6  133 1    
    15    7    8 1    
    16    8    9 1    
    17    8  134 1    
    18    8  135 1    
    19    9   10 ar   
    20    9   14 ar   
    21   10   11 ar   
    22   10  136 1    
    23   11   12 ar   
    24   11  126 1    
    25   12   13 ar   
    26   12  137 1    
    27   13   14 ar   
    28   13   15 1    
    29   14  138 1    
    30   15   16 1    
    31   15  139 1    
    32   15  140 1    
    33   16   17 1    
    34   17   18 1    
    35   17  141 1    
    36   17  142 1    
    37   18   19 1    
    38   18   67 1    
    39   18  143 1    
    40   19   20 am   BACKBONE|DICT|INTERRES
    41   19  144 1    
    42   20   21 2    
    43   20   22 1    
    44   22   23 1    
    45   22   24 1    
    46   22  145 1    
    47   23  146 1    
    48   23  147 1    
    49   23  148 1    
    50   24   25 am   BACKBONE|DICT|INTERRES
    51   24  149 1    
    52   25   26 2    
    53   25   27 1    
    54   27   28 1    
    55   27   29 1    
    56   27  150 1    
    57   28  151 1    
    58   28  152 1    
    59   28  153 1    
    60   29   30 am   BACKBONE|DICT|INTERRES
    61   29  154 1    
    62   30   31 2    
    63   30   32 1    
    64   32   33 1    
    65   32   34 1    
    66   32  155 1    
    67   33  156 1    
    68   33  157 1    
    69   33  158 1    
    70   34   35 am   BACKBONE|DICT|INTERRES
    71   34  159 1    
    72   35   36 2    
    73   35   37 1    
    74   37   38 1    
    75   37   39 1    
    76   37  160 1    
    77   38  161 1    
    78   38  162 1    
    79   38  163 1    
    80   39   40 am   BACKBONE|DICT|INTERRES
    81   39  164 1    
    82   40   41 2    
    83   40   42 1    
    84   42   43 1    
    85   42   44 1    
    86   42  165 1    
    87   43  166 1    
    88   43  167 1    
    89   43  168 1    
    90   44   45 am   BACKBONE|DICT|INTERRES
    91   44  169 1    
    92   45   46 2    
    93   45   47 1    
    94   47   48 1    
    95   47   49 1    
    96   47  170 1    
    97   48  171 1    
    98   48  172 1    
    99   48  173 1    
   100   49   50 am   BACKBONE|DICT|INTERRES
   101   49  174 1    
   102   50   51 2    
   103   50   52 1    
   104   52   53 1    
   105   52   54 1    
   106   52  175 1    
   107   53  176 1    
   108   53  177 1    
   109   53  178 1    
   110   54   55 am   BACKBONE|DICT|INTERRES
   111   54  179 1    
   112   55   56 2    
   113   55   57 1    
   114   57   58 1    
   115   57   59 1    
   116   57  180 1    
   117   58  181 1    
   118   58  182 1    
   119   58  183 1    
   120   59   60 am   BACKBONE|DICT|INTERRES
   121   59  184 1    
   122   60   61 2    
   123   60   62 1    
   124   62   63 1    
   125   62   64 1    
   126   62  185 1    
   127   63  186 1    
   128   63  187 1    
   129   63  188 1    
   130   64   65 am   BACKBONE|DICT|INTERRES
   131   64  189 1    
   132   65   66 2    
   133   67   68 2    
   134   67   69 am   BACKBONE|DICT|INTERRES
   135   69   70 1    
   136   69  190 1    
   137   70   71 1    
   138   70   72 1    
   139   70  191 1    
   140   71  192 1    
   141   71  193 1    
   142   71  194 1    
   143   72   73 2    
   144   72   74 am   BACKBONE|DICT|INTERRES
   145   74   75 1    
   146   74  195 1    
   147   75   76 1    
   148   75   77 1    
   149   75  196 1    
   150   76  197 1    
   151   76  198 1    
   152   76  199 1    
   153   77   78 2    
   154   77   79 am   BACKBONE|DICT|INTERRES
   155   79   80 1    
   156   79  200 1    
   157   80   81 1    
   158   80   82 1    
   159   80  201 1    
   160   81  202 1    
   161   81  203 1    
   162   81  204 1    
   163   82   83 2    
   164   82   84 am   BACKBONE|DICT|INTERRES
   165   84   85 1    
   166   84  205 1    
   167   85   86 1    
   168   85   87 1    
   169   85  206 1    
   170   86  207 1    
   171   86  208 1    
   172   86  209 1    
   173   87   88 2    
   174   87   89 am   BACKBONE|DICT|INTERRES
   175   89   90 1    
   176   89  210 1    
   177   90   91 1    
   178   90   92 1    
   179   90  211 1    
   180   91  212 1    
   181   91  213 1    
   182   91  214 1    
   183   92   93 2    
   184   92   94 am   BACKBONE|DICT|INTERRES
   185   94   95 1    
   186   94  215 1    
   187   95   96 1    
   188   95   97 1    
   189   95  216 1    
   190   96  217 1    
   191   96  218 1    
   192   96  219 1    
   193   97   98 2    
   194   97   99 am   BACKBONE|DICT|INTERRES
   195   99  100 1    
   196   99  220 1    
   197  100  101 1    
   198  100  102 1    
   199  100  221 1    
   200  101  222 1    
   201  101  223 1    
   202  101  224 1    
   203  102  103 2    
   204  102  104 am   BACKBONE|DICT|INTERRES
   205  104  105 1    
   206  104  225 1    
   207  105  106 1    
   208  105  107 1    
   209  105  226 1    
   210  106  227 1    
   211  106  228 1    
   212  106  229 1    
   213  107  108 2    
   214  107  109 am   BACKBONE|DICT|INTERRES
   215  109  110 1    
   216  109  230 1    
   217  110  111 1    
   218  110  112 1    
   219  110  231 1    
   220  111  232 1    
   221  111  233 1    
   222  111  234 1    
   223  112  113 2    
   224  112  114 am   BACKBONE|DICT|INTERRES
   225  114  115 1    
   226  114  235 1    
   227  115  116 1    
   228  115  117 1    
   229  115  236 1    
   230  116  237 1    
   231  116  238 1    
   232  116  239 1    
   233  117  118 2    
   234  117  119 am   BACKBONE|DICT|INTERRES
   235  119  120 1    
   236  119  240 1    
   237  120  121 1    
   238  120  124 1    
   239  120  241 1    
   240  121  122 am   BACKBONE|DICT|INTERRES
   241  121  123 2    
   242  122  242 1    
   243  122  243 1    
   244  124  125 1    
   245  124  244 1    
   246  124  245 1    
   247  125  126 1    
   248  126  246 1    
   249  126  247 1    
@<TRIPOS>SUBSTRUCTURE
     1 UNK         1 GROUP             0       ****    0 ROOT    
