@<TRIPOS>MOLECULE
3R540
247   249    1
SMALL
USER_CHARGES


@<TRIPOS>ATOM
      1 CA          0.6617  -12.2191  -47.1615 C.3       0 UNK        -0.1800 
      2 C           0.2878  -13.6881  -47.0373 C.2       0 UNK         0.5000 
      3 O           0.1456  -14.1907  -45.9241 O.2       0 UNK        -0.5000 
      4 N           0.1016  -14.3733  -48.1730 N.am      1 UNK        -0.5000 
      5 CA         -0.1820  -15.8142  -48.2743 C.3       1 UNK         0.1400 
      6 C6         -0.1921  -16.3016  -49.7459 C.3       23 UNK        -0.0398 
      7 S7          1.3198  -15.8430  -50.6640 S.3       23 UNK        -0.2404 
      8 C8          1.1948  -16.8913  -52.1525 C.3       23 UNK        -0.0205 
      9 C9          1.3166  -18.3695  -51.8172 C.ar      23 UNK        -0.0193 
     10 C10         0.2327  -19.2317  -52.0097 C.ar      23 UNK        -0.1150 
     11 C11         0.3239  -20.5761  -51.6390 C.ar      23 UNK        -0.0193 
     12 C12         1.5050  -21.0538  -51.0684 C.ar      23 UNK        -0.1150 
     13 C13         2.5879  -20.1977  -50.8585 C.ar      23 UNK        -0.0193 
     14 C14         2.5020  -18.8650  -51.2676 C.ar      23 UNK        -0.1150 
     15 C15         3.8052  -20.6875  -50.0912 C.3       23 UNK        -0.0205 
     16 S16         3.9397  -19.9446  -48.4227 S.3       23 UNK        -0.2404 
     17 C17         2.2047  -19.7151  -47.8831 C.3       23 UNK        -0.0398 
     18 CA          1.5240  -21.0275  -47.4319 C.3       11 UNK         0.1400 
     19 N           2.1211  -21.5728  -46.2065 N.am      11 UNK        -0.5000 
     20 C           2.0062  -22.8585  -45.8474 C.2       10 UNK         0.5000 
     21 O           1.3799  -23.6908  -46.5026 O.2       10 UNK        -0.5000 
     22 CA          2.6718  -23.2889  -44.5301 C.3       10 UNK         0.1400 
     23 CB          4.1816  -23.4893  -44.7298 C.3       10 UNK        -0.1800 
     24 N           2.4569  -22.3657  -43.4174 N.am      10 UNK        -0.5000 
     25 C           1.2818  -21.9836  -42.9037 C.2       9 UNK         0.5000 
     26 O           0.1951  -22.3079  -43.3808 O.2       9 UNK        -0.5000 
     27 CA          1.3144  -21.0789  -41.6521 C.3       9 UNK         0.1400 
     28 CB          1.4350  -21.9158  -40.3658 C.3       9 UNK        -0.1800 
     29 N           2.3216  -20.0111  -41.6927 N.am      9 UNK        -0.5000 
     30 C           3.6601  -20.0970  -41.7454 C.2       8 UNK         0.5000 
     31 O           4.2832  -21.1557  -41.6463 O.2       8 UNK        -0.5000 
     32 CA          4.4147  -18.7799  -42.0279 C.3       8 UNK         0.1400 
     33 CB          5.8341  -19.0120  -42.5849 C.3       8 UNK        -0.1800 
     34 N           3.6659  -17.8755  -42.9078 N.am      8 UNK        -0.5000 
     35 C           3.1917  -18.1310  -44.1400 C.2       7 UNK         0.5000 
     36 O           3.3586  -19.1984  -44.7332 O.2       7 UNK        -0.5000 
     37 CA          2.3192  -17.0404  -44.7978 C.3       7 UNK         0.1400 
     38 CB          0.8600  -17.5175  -44.8716 C.3       7 UNK        -0.1800 
     39 N           2.3381  -15.7778  -44.0627 N.am      7 UNK        -0.5000 
     40 C           3.3191  -14.8674  -44.0907 C.2       6 UNK         0.5000 
     41 O           4.3149  -14.9528  -44.8091 O.2       6 UNK        -0.5000 
     42 CA          3.1744  -13.6798  -43.1170 C.3       6 UNK         0.1400 
     43 CB          2.6618  -12.4320  -43.8504 C.3       6 UNK        -0.1800 
     44 N           2.2878  -13.9748  -41.9843 N.am      6 UNK        -0.5000 
     45 C           2.5899  -14.8195  -40.9872 C.2       5 UNK         0.5000 
     46 O           3.6565  -15.4291  -40.9072 O.2       5 UNK        -0.5000 
     47 CA          1.4833  -15.0772  -39.9510 C.3       5 UNK         0.1400 
     48 CB          1.2196  -13.8302  -39.0927 C.3       5 UNK        -0.1800 
     49 N           0.2360  -15.5108  -40.5812 N.am      5 UNK        -0.5000 
     50 C           0.0556  -16.6738  -41.2182 C.2       4 UNK         0.5000 
     51 O           0.9391  -17.5195  -41.3559 O.2       4 UNK        -0.5000 
     52 CA         -1.3285  -16.9306  -41.8424 C.3       4 UNK         0.1400 
     53 CB         -2.3761  -17.2894  -40.7722 C.3       4 UNK        -0.1800 
     54 N          -1.7906  -15.8553  -42.7313 N.am      4 UNK        -0.5000 
     55 C          -2.1642  -14.6066  -42.4151 C.2       3 UNK         0.5000 
     56 O          -2.1578  -14.1624  -41.2660 O.2       3 UNK        -0.5000 
     57 CA         -2.5848  -13.6778  -43.5701 C.3       3 UNK         0.1400 
     58 CB         -1.6248  -12.4819  -43.6727 C.3       3 UNK        -0.1800 
     59 N          -2.6561  -14.3450  -44.8754 N.am      3 UNK        -0.5000 
     60 C          -3.7259  -15.0245  -45.3171 C.2       2 UNK         0.5000 
     61 O          -4.7094  -15.2575  -44.6142 O.2       2 UNK        -0.5000 
     62 CA         -3.7311  -15.5023  -46.7833 C.3       2 UNK         0.1400 
     63 CB         -4.8074  -14.7477  -47.5804 C.3       2 UNK        -0.1800 
     64 N          -2.4476  -15.3092  -47.4570 N.am      2 UNK        -0.5000 
     65 C          -1.4894  -16.2383  -47.5652 C.2       1 UNK         0.5000 
     66 O          -1.5958  -17.3805  -47.1219 O.2       1 UNK        -0.5000 
     67 C          -0.0067  -20.8516  -47.3080 C.2       11 UNK         0.5000 
     68 O          -0.7049  -20.8889  -48.3209 O.2       11 UNK        -0.5000 
     69 N          -0.5105  -20.7039  -46.0747 N.am      12 UNK        -0.5000 
     70 CA         -1.9361  -20.5595  -45.7767 C.3       12 UNK         0.1400 
     71 CB         -2.1055  -19.7454  -44.4848 C.3       12 UNK        -0.1800 
     72 C          -2.6759  -21.9075  -45.6818 C.2       12 UNK         0.5000 
     73 O          -3.9028  -21.9050  -45.5768 O.2       12 UNK        -0.5000 
     74 N          -1.9463  -23.0323  -45.7351 N.am      13 UNK        -0.5000 
     75 CA         -2.4861  -24.3926  -45.6441 C.3       13 UNK         0.1400 
     76 CB         -1.3263  -25.3975  -45.6064 C.3       13 UNK        -0.1800 
     77 C          -3.4751  -24.7499  -46.7717 C.2       13 UNK         0.5000 
     78 O          -4.3777  -25.5584  -46.5523 O.2       13 UNK        -0.5000 
     79 N          -3.3321  -24.1049  -47.9380 N.am      14 UNK        -0.5000 
     80 CA         -4.2363  -24.2007  -49.0866 C.3       14 UNK         0.1400 
     81 CB         -3.4556  -23.8204  -50.3569 C.3       14 UNK        -0.1800 
     82 C          -5.5079  -23.3414  -48.8981 C.2       14 UNK         0.5000 
     83 O          -5.8441  -22.5414  -49.7736 O.2       14 UNK        -0.5000 
     84 N          -6.1706  -23.5014  -47.7430 N.am      15 UNK        -0.5000 
     85 CA         -7.3998  -22.8280  -47.3069 C.3       15 UNK         0.1400 
     86 CB         -8.6062  -23.3628  -48.1055 C.3       15 UNK        -0.1800 
     87 C          -7.2904  -21.2880  -47.3351 C.2       15 UNK         0.5000 
     88 O          -8.1429  -20.6179  -47.9185 O.2       15 UNK        -0.5000 
     89 N          -6.2166  -20.7645  -46.7247 N.am      16 UNK        -0.5000 
     90 CA         -5.8004  -19.3569  -46.7221 C.3       16 UNK         0.1400 
     91 CB         -6.8313  -18.4566  -46.0092 C.3       16 UNK        -0.1800 
     92 C          -5.4212  -18.8646  -48.1335 C.2       16 UNK         0.5000 
     93 O          -5.7773  -17.7514  -48.5197 O.2       16 UNK        -0.5000 
     94 N          -4.6990  -19.7237  -48.8683 N.am      17 UNK        -0.5000 
     95 CA         -4.1972  -19.5250  -50.2308 C.3       17 UNK         0.1400 
     96 CB         -3.0942  -18.4483  -50.2502 C.3       17 UNK        -0.1800 
     97 C          -5.3210  -19.2779  -51.2594 C.2       17 UNK         0.5000 
     98 O          -5.2169  -18.3807  -52.0974 O.2       17 UNK        -0.5000 
     99 N          -6.3819  -20.0899  -51.1708 N.am      18 UNK        -0.5000 
    100 CA        -7.5418  -20.0456  -52.0621 C.3       18 UNK         0.1400 
    101 CB        -8.7505  -20.6532  -51.3356 C.3       18 UNK        -0.1800 
    102 C         -7.3002  -20.7754  -53.3968 C.2       18 UNK         0.5000 
    103 O         -8.0315  -20.5289  -54.3573 O.2       18 UNK        -0.5000 
    104 N         -6.3026  -21.6702  -53.4326 N.am      19 UNK        -0.5000 
    105 CA        -5.9004  -22.4396  -54.6095 C.3       19 UNK         0.1400 
    106 CB        -4.8436  -23.4730  -54.1899 C.3       19 UNK        -0.1800 
    107 C         -5.3706  -21.5428  -55.7459 C.2       19 UNK         0.5000 
    108 O         -4.6030  -20.6120  -55.4884 O.2       19 UNK        -0.5000 
    109 N         -5.7783  -21.8502  -56.9830 N.am      20 UNK        -0.5000 
    110 CA        -5.3502  -21.1500  -58.1933 C.3       20 UNK         0.1400 
    111 CB        -6.2785  -21.5377  -59.3546 C.3       20 UNK        -0.1800 
    112 C         -3.8858  -21.4726  -58.5396 C.2       20 UNK         0.5000 
    113 O         -3.4820  -22.6343  -58.4483 O.2       20 UNK        -0.5000 
    114 N         -3.1316  -20.4372  -58.9374 N.am      21 UNK        -0.5000 
    115 CA        -1.7142  -20.4667  -59.3327 C.3       21 UNK         0.1400 
    116 CB        -1.5320  -21.2670  -60.6399 C.3       21 UNK        -0.1800 
    117 C         -0.7484  -20.9284  -58.2155 C.2       21 UNK         0.5000 
    118 O          0.3644  -21.3695  -58.5092 O.2       21 UNK        -0.5000 
    119 N         -1.1879  -20.8193  -56.9566 N.am      22 UNK        -0.5000 
    120 CA        -0.4234  -21.1724  -55.7550 C.3       22 UNK         0.1400 
    121 C          0.7093  -20.1513  -55.4526 C.2       22 UNK         0.5000 
    122 N          1.8450  -20.6071  -54.9431 N.am      22 UNK        -0.7600 
    123 O          0.5568  -18.9478  -55.6527 O.2       22 UNK        -0.5000 
    124 C124       -1.3848  -21.3526  -54.5548 C.3       23 UNK        -0.0398 
    125 S125       -0.7630  -22.5165  -53.2970 S.3       23 UNK        -0.2404 
    126 C126       -0.8653  -21.5085  -51.7882 C.3       23 UNK        -0.0205 
    127 H127        0.0008  -11.6103  -46.5447 H         1 UNK         0.0600 
    128 H128        1.6855  -12.0649  -46.8216 H         1 UNK         0.0600 
    129 H129        0.5866  -11.8679  -48.1908 H         1 UNK         0.0600 
    130 H130        0.2422  -13.9041  -49.0568 H         1 UNK         0.3000 
    131 H131        0.6316  -16.3297  -47.7594 H         1 UNK         0.0600 
    132 H132       -0.2910  -17.3877  -49.7693 H         1 UNK         0.0800 
    133 H133       -1.0527  -15.8992  -50.2835 H         1 UNK         0.0800 
    134 H134        1.9907  -16.6193  -52.8469 H         1 UNK         0.0800 
    135 H135        0.2544  -16.6814  -52.6647 H         1 UNK         0.0800 
    136 H136       -0.6855  -18.8524  -52.4333 H         1 UNK         0.1150 
    137 H137        1.5609  -22.0845  -50.7478 H         1 UNK         0.1150 
    138 H138        3.3316  -18.1953  -51.0888 H         1 UNK         0.1150 
    139 H139        3.7786  -21.7732  -49.9866 H         1 UNK         0.0800 
    140 H140        4.7086  -20.4583  -50.6579 H         1 UNK         0.0800 
    141 H141        2.2246  -19.0001  -47.0664 H         1 UNK         0.0800 
    142 H142        1.6324  -19.2184  -48.6667 H         1 UNK         0.0800 
    143 H143        1.6743  -21.7586  -48.2286 H         1 UNK         0.0600 
    144 H144        2.6543  -20.9295  -45.6286 H         1 UNK         0.3000 
    145 H145        2.2362  -24.2478  -44.2424 H         1 UNK         0.0600 
    146 H146        4.6470  -23.8978  -43.8326 H         1 UNK         0.0600 
    147 H147        4.3806  -24.1859  -45.5453 H         1 UNK         0.0600 
    148 H148        4.6828  -22.5500  -44.9683 H         1 UNK         0.0600 
    149 H149        3.2891  -22.0347  -42.9360 H         1 UNK         0.3000 
    150 H150        0.3521  -20.5655  -41.6177 H         1 UNK         0.0600 
    151 H151        0.6194  -22.6364  -40.2945 H         1 UNK         0.0600 
    152 H152        1.3885  -21.2832  -39.4794 H         1 UNK         0.0600 
    153 H153        2.3686  -22.4776  -40.3289 H         1 UNK         0.0600 
    154 H154        1.9271  -19.0741  -41.7441 H         1 UNK         0.3000 
    155 H155        4.5096  -18.2690  -41.0688 H         1 UNK         0.0600 
    156 H156        6.4449  -19.5770  -41.8799 H         1 UNK         0.0600 
    157 H157        6.3438  -18.0662  -42.7687 H         1 UNK         0.0600 
    158 H158        5.8139  -19.5697  -43.5219 H         1 UNK         0.0600 
    159 H159        3.4391  -16.9796  -42.4949 H         1 UNK         0.3000 
    160 H160        2.6869  -16.8608  -45.8100 H         1 UNK         0.0600 
    161 H161        0.1726  -16.6948  -45.0615 H         1 UNK         0.0600 
    162 H162        0.5505  -18.0052  -43.9493 H         1 UNK         0.0600 
    163 H163        0.7155  -18.2389  -45.6711 H         1 UNK         0.0600 
    164 H164        1.5562  -15.6035  -43.4510 H         1 UNK         0.3000 
    165 H165        4.1684  -13.4572  -42.7231 H         1 UNK         0.0600 
    166 H166        3.3262  -12.1625  -44.6724 H         1 UNK         0.0600 
    167 H167        1.6707  -12.5926  -44.2720 H         1 UNK         0.0600 
    168 H168        2.6084  -11.5731  -43.1813 H         1 UNK         0.0600 
    169 H169        1.3872  -13.5193  -41.9800 H         1 UNK         0.3000 
    170 H170        1.8250  -15.8772  -39.2907 H         1 UNK         0.0600 
    171 H171        2.1378  -13.4799  -38.6195 H         1 UNK         0.0600 
    172 H172        0.8175  -13.0063  -39.6834 H         1 UNK         0.0600 
    173 H173        0.5071  -14.0469  -38.2965 H         1 UNK         0.0600 
    174 H174       -0.5527  -14.8698  -40.5519 H         1 UNK         0.3000 
    175 H175       -1.2231  -17.8108  -42.4750 H         1 UNK         0.0600 
    176 H176       -2.5351  -16.4794  -40.0603 H         1 UNK         0.0600 
    177 H177       -3.3368  -17.5282  -41.2284 H         1 UNK         0.0600 
    178 H178       -2.0614  -18.1640  -40.2014 H         1 UNK         0.0600 
    179 H179       -1.8159  -16.0888  -43.7134 H         1 UNK         0.3000 
    180 H180       -3.5735  -13.2864  -43.3215 H         1 UNK         0.0600 
    181 H181       -0.5966  -12.8060  -43.8244 H         1 UNK         0.0600 
    182 H182       -1.8963  -11.8231  -44.4976 H         1 UNK         0.0600 
    183 H183       -1.6454  -11.8840  -42.7607 H         1 UNK         0.0600 
    184 H184       -1.8405  -14.2508  -45.4713 H         1 UNK         0.3000 
    185 H185       -3.9897  -16.5623  -46.7773 H         1 UNK         0.0600 
    186 H186       -4.8416  -15.0896  -48.6152 H         1 UNK         0.0600 
    187 H187       -5.7981  -14.9145  -47.1554 H         1 UNK         0.0600 
    188 H188       -4.6269  -13.6721  -47.5871 H         1 UNK         0.0600 
    189 H189       -2.2721  -14.3929  -47.8432 H         1 UNK         0.3000 
    190 H190        0.1135  -20.7636  -45.2828 H         1 UNK         0.3000 
    191 H191       -2.4109  -19.9970  -46.5835 H         1 UNK         0.0600 
    192 H192       -3.1554  -19.6634  -44.2009 H         1 UNK         0.0600 
    193 H193       -1.7353  -18.7305  -44.6213 H         1 UNK         0.0600 
    194 H194       -1.5728  -20.1959  -43.6471 H         1 UNK         0.0600 
    195 H195       -0.9409  -22.9497  -45.7991 H         1 UNK         0.3000 
    196 H196       -3.0292  -24.4645  -44.6997 H         1 UNK         0.0600 
    197 H197       -1.6943  -26.4137  -45.4596 H         1 UNK         0.0600 
    198 H198       -0.6395  -25.1782  -44.7882 H         1 UNK         0.0600 
    199 H199       -0.7561  -25.3864  -46.5360 H         1 UNK         0.0600 
    200 H200       -2.5760  -23.4402  -48.0160 H         1 UNK         0.3000 
    201 H201       -4.5624  -25.2371  -49.1946 H         1 UNK         0.0600 
    202 H202       -3.1247  -22.7833  -50.3238 H         1 UNK         0.0600 
    203 H203       -4.0722  -23.9418  -51.2477 H         1 UNK         0.0600 
    204 H204       -2.5751  -24.4501  -50.4861 H         1 UNK         0.0600 
    205 H205       -5.7858  -24.1776  -47.0920 H         1 UNK         0.3000 
    206 H206       -7.5498  -23.1023  -46.2617 H         1 UNK         0.0600 
    207 H207       -8.6957  -24.4443  -48.0042 H         1 UNK         0.0600 
    208 H208       -9.5394  -22.9261  -47.7480 H         1 UNK         0.0600 
    209 H209       -8.5216  -23.1337  -49.1674 H         1 UNK         0.0600 
    210 H210       -5.5558  -21.3982  -46.2789 H         1 UNK         0.3000 
    211 H211       -4.8823  -19.3136  -46.1354 H         1 UNK         0.0600 
    212 H212       -7.7622  -18.3764  -46.5708 H         1 UNK         0.0600 
    213 H213       -6.4414  -17.4458  -45.8824 H         1 UNK         0.0600 
    214 H214       -7.0684  -18.8387  -45.0165 H         1 UNK         0.0600 
    215 H215       -4.5217  -20.6343  -48.4719 H         1 UNK         0.3000 
    216 H216       -3.7359  -20.4683  -50.5206 H         1 UNK         0.0600 
    217 H217       -3.4712  -17.4722  -49.9437 H         1 UNK         0.0600 
    218 H218       -2.6704  -18.3365  -51.2478 H         1 UNK         0.0600 
    219 H219       -2.2800  -18.7214  -49.5789 H         1 UNK         0.0600 
    220 H220       -6.3667  -20.8364  -50.4800 H         1 UNK         0.3000 
    221 H221       -7.7733  -19.0036  -52.2924 H         1 UNK         0.0600 
    222 H222       -8.5681  -21.6910  -51.0560 H         1 UNK         0.0600 
    223 H223       -8.9851  -20.0957  -50.4291 H         1 UNK         0.0600 
    224 H224       -9.6400  -20.6331  -51.9666 H         1 UNK         0.0600 
    225 H225       -5.7579  -21.8024  -52.5936 H         1 UNK         0.3000 
    226 H226       -6.7797  -22.9766  -54.9712 H         1 UNK         0.0600 
    227 H227       -5.2603  -24.1973  -53.4899 H         1 UNK         0.0600 
    228 H228       -4.4737  -24.0306  -55.0515 H         1 UNK         0.0600 
    229 H229       -3.9860  -23.0010  -53.7099 H         1 UNK         0.0600 
    230 H230       -6.3764  -22.6519  -57.1196 H         1 UNK         0.3000 
    231 H231       -5.4486  -20.0761  -58.0196 H         1 UNK         0.0600 
    232 H232       -6.2368  -22.6074  -59.5643 H         1 UNK         0.0600 
    233 H233       -7.3145  -21.2780  -59.1358 H         1 UNK         0.0600 
    234 H234       -5.9988  -21.0133  -60.2692 H         1 UNK         0.0600 
    235 H235       -3.5618  -19.5228  -58.9685 H         1 UNK         0.3000 
    236 H236       -1.4419  -19.4319  -59.5455 H         1 UNK         0.0600 
    237 H237       -2.2104  -20.9139  -61.4166 H         1 UNK         0.0600 
    238 H238       -0.5177  -21.1620  -61.0268 H         1 UNK         0.0600 
    239 H239       -1.7157  -22.3315  -60.4921 H         1 UNK         0.0600 
    240 H240       -2.1043  -20.4245  -56.8029 H         1 UNK         0.3000 
    241 H241        0.0437  -22.1377  -55.9620 H         1 UNK         0.0600 
    242 H242        2.5772  -19.9528  -54.7192 H         1 UNK         0.3800 
    243 H243        1.9720  -21.5848  -54.7351 H         1 UNK         0.3800 
    244 H244       -2.3220  -21.7845  -54.9035 H         1 UNK         0.0800 
    245 H245       -1.6528  -20.3921  -54.1120 H         1 UNK         0.0800 
    246 H246       -0.9013  -22.1749  -50.9254 H         1 UNK         0.0800 
    247 H247       -1.7998  -20.9483  -51.7765 H         1 UNK         0.0800 
@<TRIPOS>BOND
     1    1    2 1    
     2    1  127 1    
     3    1  128 1    
     4    1  129 1    
     5    2    3 2    
     6    2    4 am   BACKBONE|DICT|INTERRES
     7    4    5 1    
     8    4  130 1    
     9    5    6 1    
    10    5   65 1    
    11    5  131 1    
    12    6    7 1    
    13    6  132 1    
    14    6  133 1    
    15    7    8 1    
    16    8    9 1    
    17    8  134 1    
    18    8  135 1    
    19    9   10 ar   
    20    9   14 ar   
    21   10   11 ar   
    22   10  136 1    
    23   11   12 ar   
    24   11  126 1    
    25   12   13 ar   
    26   12  137 1    
    27   13   14 ar   
    28   13   15 1    
    29   14  138 1    
    30   15   16 1    
    31   15  139 1    
    32   15  140 1    
    33   16   17 1    
    34   17   18 1    
    35   17  141 1    
    36   17  142 1    
    37   18   19 1    
    38   18   67 1    
    39   18  143 1    
    40   19   20 am   BACKBONE|DICT|INTERRES
    41   19  144 1    
    42   20   21 2    
    43   20   22 1    
    44   22   23 1    
    45   22   24 1    
    46   22  145 1    
    47   23  146 1    
    48   23  147 1    
    49   23  148 1    
    50   24   25 am   BACKBONE|DICT|INTERRES
    51   24  149 1    
    52   25   26 2    
    53   25   27 1    
    54   27   28 1    
    55   27   29 1    
    56   27  150 1    
    57   28  151 1    
    58   28  152 1    
    59   28  153 1    
    60   29   30 am   BACKBONE|DICT|INTERRES
    61   29  154 1    
    62   30   31 2    
    63   30   32 1    
    64   32   33 1    
    65   32   34 1    
    66   32  155 1    
    67   33  156 1    
    68   33  157 1    
    69   33  158 1    
    70   34   35 am   BACKBONE|DICT|INTERRES
    71   34  159 1    
    72   35   36 2    
    73   35   37 1    
    74   37   38 1    
    75   37   39 1    
    76   37  160 1    
    77   38  161 1    
    78   38  162 1    
    79   38  163 1    
    80   39   40 am   BACKBONE|DICT|INTERRES
    81   39  164 1    
    82   40   41 2    
    83   40   42 1    
    84   42   43 1    
    85   42   44 1    
    86   42  165 1    
    87   43  166 1    
    88   43  167 1    
    89   43  168 1    
    90   44   45 am   BACKBONE|DICT|INTERRES
    91   44  169 1    
    92   45   46 2    
    93   45   47 1    
    94   47   48 1    
    95   47   49 1    
    96   47  170 1    
    97   48  171 1    
    98   48  172 1    
    99   48  173 1    
   100   49   50 am   BACKBONE|DICT|INTERRES
   101   49  174 1    
   102   50   51 2    
   103   50   52 1    
   104   52   53 1    
   105   52   54 1    
   106   52  175 1    
   107   53  176 1    
   108   53  177 1    
   109   53  178 1    
   110   54   55 am   BACKBONE|DICT|INTERRES
   111   54  179 1    
   112   55   56 2    
   113   55   57 1    
   114   57   58 1    
   115   57   59 1    
   116   57  180 1    
   117   58  181 1    
   118   58  182 1    
   119   58  183 1    
   120   59   60 am   BACKBONE|DICT|INTERRES
   121   59  184 1    
   122   60   61 2    
   123   60   62 1    
   124   62   63 1    
   125   62   64 1    
   126   62  185 1    
   127   63  186 1    
   128   63  187 1    
   129   63  188 1    
   130   64   65 am   BACKBONE|DICT|INTERRES
   131   64  189 1    
   132   65   66 2    
   133   67   68 2    
   134   67   69 am   BACKBONE|DICT|INTERRES
   135   69   70 1    
   136   69  190 1    
   137   70   71 1    
   138   70   72 1    
   139   70  191 1    
   140   71  192 1    
   141   71  193 1    
   142   71  194 1    
   143   72   73 2    
   144   72   74 am   BACKBONE|DICT|INTERRES
   145   74   75 1    
   146   74  195 1    
   147   75   76 1    
   148   75   77 1    
   149   75  196 1    
   150   76  197 1    
   151   76  198 1    
   152   76  199 1    
   153   77   78 2    
   154   77   79 am   BACKBONE|DICT|INTERRES
   155   79   80 1    
   156   79  200 1    
   157   80   81 1    
   158   80   82 1    
   159   80  201 1    
   160   81  202 1    
   161   81  203 1    
   162   81  204 1    
   163   82   83 2    
   164   82   84 am   BACKBONE|DICT|INTERRES
   165   84   85 1    
   166   84  205 1    
   167   85   86 1    
   168   85   87 1    
   169   85  206 1    
   170   86  207 1    
   171   86  208 1    
   172   86  209 1    
   173   87   88 2    
   174   87   89 am   BACKBONE|DICT|INTERRES
   175   89   90 1    
   176   89  210 1    
   177   90   91 1    
   178   90   92 1    
   179   90  211 1    
   180   91  212 1    
   181   91  213 1    
   182   91  214 1    
   183   92   93 2    
   184   92   94 am   BACKBONE|DICT|INTERRES
   185   94   95 1    
   186   94  215 1    
   187   95   96 1    
   188   95   97 1    
   189   95  216 1    
   190   96  217 1    
   191   96  218 1    
   192   96  219 1    
   193   97   98 2    
   194   97   99 am   BACKBONE|DICT|INTERRES
   195   99  100 1    
   196   99  220 1    
   197  100  101 1    
   198  100  102 1    
   199  100  221 1    
   200  101  222 1    
   201  101  223 1    
   202  101  224 1    
   203  102  103 2    
   204  102  104 am   BACKBONE|DICT|INTERRES
   205  104  105 1    
   206  104  225 1    
   207  105  106 1    
   208  105  107 1    
   209  105  226 1    
   210  106  227 1    
   211  106  228 1    
   212  106  229 1    
   213  107  108 2    
   214  107  109 am   BACKBONE|DICT|INTERRES
   215  109  110 1    
   216  109  230 1    
   217  110  111 1    
   218  110  112 1    
   219  110  231 1    
   220  111  232 1    
   221  111  233 1    
   222  111  234 1    
   223  112  113 2    
   224  112  114 am   BACKBONE|DICT|INTERRES
   225  114  115 1    
   226  114  235 1    
   227  115  116 1    
   228  115  117 1    
   229  115  236 1    
   230  116  237 1    
   231  116  238 1    
   232  116  239 1    
   233  117  118 2    
   234  117  119 am   BACKBONE|DICT|INTERRES
   235  119  120 1    
   236  119  240 1    
   237  120  121 1    
   238  120  124 1    
   239  120  241 1    
   240  121  122 am   BACKBONE|DICT|INTERRES
   241  121  123 2    
   242  122  242 1    
   243  122  243 1    
   244  124  125 1    
   245  124  244 1    
   246  124  245 1    
   247  125  126 1    
   248  126  246 1    
   249  126  247 1    
@<TRIPOS>SUBSTRUCTURE
     1 UNK         1 GROUP             0       ****    0 ROOT    
