@<TRIPOS>MOLECULE
3R540
247   249    1
SMALL
USER_CHARGES


@<TRIPOS>ATOM
      1 CA         -2.3838  -13.7105  -47.9195 C.3       0 UNK        -0.1800 
      2 C          -1.4338  -13.6347  -49.1071 C.2       0 UNK         0.5000 
      3 O          -1.7879  -13.0510  -50.1310 O.2       0 UNK        -0.5000 
      4 N          -0.2279  -14.2027  -48.9656 N.am      1 UNK        -0.5000 
      5 CA          0.8355  -14.2081  -49.9818 C.3       1 UNK         0.1400 
      6 C6          2.0177  -15.1275  -49.5828 C.3       23 UNK        -0.0398 
      7 S7          1.5383  -16.8770  -49.3814 S.3       23 UNK        -0.2404 
      8 C8          2.6357  -17.6792  -50.5909 C.3       23 UNK        -0.0205 
      9 C9          2.4763  -19.1903  -50.5578 C.ar      23 UNK        -0.0193 
     10 C10         1.5251  -19.8117  -51.3698 C.ar      23 UNK        -0.1150 
     11 C11         1.3547  -21.2024  -51.3426 C.ar      23 UNK        -0.0193 
     12 C12         2.1541  -21.9598  -50.4809 C.ar      23 UNK        -0.1150 
     13 C13         3.1164  -21.3554  -49.6671 C.ar      23 UNK        -0.0193 
     14 C14         3.2794  -19.9672  -49.7194 C.ar      23 UNK        -0.1150 
     15 C15         3.9836  -22.2255  -48.7616 C.3       23 UNK        -0.0205 
     16 S16         4.2365  -21.5686  -47.0762 S.3       23 UNK        -0.2404 
     17 C17         2.5432  -21.2128  -46.4979 C.3       23 UNK        -0.0398 
     18 CA          1.7809  -22.4643  -45.9875 C.3       11 UNK         0.1400 
     19 N           0.9548  -22.1546  -44.8207 N.am      11 UNK        -0.5000 
     20 C           0.3833  -23.0614  -44.0174 C.2       10 UNK         0.5000 
     21 O           0.5625  -24.2755  -44.1142 O.2       10 UNK        -0.5000 
     22 CA         -0.5872  -22.5182  -42.9501 C.3       10 UNK         0.1400 
     23 CB          0.1662  -22.1084  -41.6759 C.3       10 UNK        -0.1800 
     24 N          -1.3855  -21.3892  -43.4341 N.am      10 UNK        -0.5000 
     25 C          -2.2582  -21.4693  -44.4492 C.2       9 UNK         0.5000 
     26 O          -2.5102  -22.5095  -45.0539 O.2       9 UNK        -0.5000 
     27 CA         -2.9317  -20.1643  -44.8963 C.3       9 UNK         0.1400 
     28 CB         -4.0974  -19.8155  -43.9577 C.3       9 UNK        -0.1800 
     29 N          -1.9936  -19.0430  -44.9786 N.am      9 UNK        -0.5000 
     30 C          -0.9507  -18.9820  -45.8203 C.2       8 UNK         0.5000 
     31 O          -0.6919  -19.8522  -46.6469 O.2       8 UNK        -0.5000 
     32 CA          0.0023  -17.7832  -45.6833 C.3       8 UNK         0.1400 
     33 CB         -0.5661  -16.5420  -46.3791 C.3       8 UNK        -0.1800 
     34 N           0.3018  -17.4626  -44.2912 N.am      8 UNK        -0.5000 
     35 C           0.9047  -18.2883  -43.4260 C.2       7 UNK         0.5000 
     36 O           1.3226  -19.4077  -43.7211 O.2       7 UNK        -0.5000 
     37 CA          1.0061  -17.7944  -41.9748 C.3       7 UNK         0.1400 
     38 CB          2.1879  -16.8280  -41.8045 C.3       7 UNK        -0.1800 
     39 N          -0.2303  -17.1412  -41.5449 N.am      7 UNK        -0.5000 
     40 C          -1.3788  -17.7880  -41.3034 C.2       6 UNK         0.5000 
     41 O          -1.5057  -19.0106  -41.3853 O.2       6 UNK        -0.5000 
     42 CA         -2.5953  -16.9148  -40.9419 C.3       6 UNK         0.1400 
     43 CB         -2.5514  -16.5064  -39.4617 C.3       6 UNK        -0.1800 
     44 N          -2.7045  -15.7146  -41.7758 N.am      6 UNK        -0.5000 
     45 C          -2.9818  -15.7386  -43.0865 C.2       5 UNK         0.5000 
     46 O          -3.1695  -16.7725  -43.7233 O.2       5 UNK        -0.5000 
     47 CA         -3.0264  -14.3907  -43.8281 C.3       5 UNK         0.1400 
     48 CB         -4.4118  -13.7437  -43.6869 C.3       5 UNK        -0.1800 
     49 N          -1.9973  -13.4220  -43.4395 N.am      5 UNK        -0.5000 
     50 C          -0.6757  -13.6443  -43.3852 C.2       4 UNK         0.5000 
     51 O          -0.1577  -14.7544  -43.5146 O.2       4 UNK        -0.5000 
     52 CA          0.2014  -12.3904  -43.1889 C.3       4 UNK         0.1400 
     53 CB          1.7121  -12.7014  -43.2356 C.3       4 UNK        -0.1800 
     54 N          -0.1380  -11.3225  -44.1410 N.am      4 UNK        -0.5000 
     55 C          -0.1077  -11.4004  -45.4811 C.2       3 UNK         0.5000 
     56 O           0.2150  -12.4167  -46.1048 O.2       3 UNK        -0.5000 
     57 CA         -0.5349  -10.1429  -46.2738 C.3       3 UNK         0.1400 
     58 CB         -0.3331   -8.8118  -45.5149 C.3       3 UNK        -0.1800 
     59 N           0.1099  -10.1276  -47.5914 N.am      3 UNK        -0.5000 
     60 C           1.4247  -10.0191  -47.8373 C.2       2 UNK         0.5000 
     61 O           2.2590   -9.6267  -47.0197 O.2       2 UNK        -0.5000 
     62 CA          1.8723  -10.5774  -49.1952 C.3       2 UNK         0.1400 
     63 CB          3.3898  -10.4486  -49.4414 C.3       2 UNK        -0.1800 
     64 N           1.4628  -11.9785  -49.2042 N.am      2 UNK        -0.5000 
     65 C           1.3619  -12.7841  -50.2661 C.2       1 UNK         0.5000 
     66 O           1.6496  -12.4502  -51.4161 O.2       1 UNK        -0.5000 
     67 C           0.9364  -23.1098  -47.1068 C.2       11 UNK         0.5000 
     68 O           1.2620  -24.2024  -47.5718 O.2       11 UNK        -0.5000 
     69 N          -0.1462  -22.4288  -47.5080 N.am      12 UNK        -0.5000 
     70 CA         -1.0154  -22.8119  -48.6191 C.3       12 UNK         0.1400 
     71 CB         -1.9635  -21.6527  -48.9581 C.3       12 UNK        -0.1800 
     72 C          -1.7853  -24.1221  -48.3939 C.2       12 UNK         0.5000 
     73 O          -2.0664  -24.8198  -49.3680 O.2       12 UNK        -0.5000 
     74 N          -2.0544  -24.4765  -47.1300 N.am      13 UNK        -0.5000 
     75 CA         -2.6532  -25.7496  -46.7256 C.3       13 UNK         0.1400 
     76 CB         -2.8781  -25.7531  -45.2064 C.3       13 UNK        -0.1800 
     77 C          -1.8306  -26.9829  -47.1479 C.2       13 UNK         0.5000 
     78 O          -2.4212  -28.0210  -47.4457 O.2       13 UNK        -0.5000 
     79 N          -0.4975  -26.8446  -47.2212 N.am      14 UNK        -0.5000 
     80 CA          0.4106  -27.8874  -47.7086 C.3       14 UNK         0.1400 
     81 CB          1.8499  -27.5472  -47.2938 C.3       14 UNK        -0.1800 
     82 C           0.3191  -28.0943  -49.2343 C.2       14 UNK         0.5000 
     83 O           0.6019  -29.1923  -49.7143 O.2       14 UNK        -0.5000 
     84 N          -0.0952  -27.0485  -49.9621 N.am      15 UNK        -0.5000 
     85 CA         -0.3653  -27.0721  -51.4010 C.3       15 UNK         0.1400 
     86 CB          0.0249  -25.7053  -51.9897 C.3       15 UNK        -0.1800 
     87 C          -1.8418  -27.3955  -51.7149 C.2       15 UNK         0.5000 
     88 O          -2.1879  -27.5297  -52.8892 O.2       15 UNK        -0.5000 
     89 N          -2.6810  -27.4934  -50.6711 N.am      16 UNK        -0.5000 
     90 CA         -4.1390  -27.6472  -50.6957 C.3       16 UNK         0.1400 
     91 CB         -4.5399  -29.0173  -51.2813 C.3       16 UNK        -0.1800 
     92 C          -4.8533  -26.4573  -51.3752 C.2       16 UNK         0.5000 
     93 O          -5.8452  -26.6519  -52.0810 O.2       16 UNK        -0.5000 
     94 N          -4.3296  -25.2467  -51.1505 N.am      17 UNK        -0.5000 
     95 CA         -4.8314  -23.9854  -51.6890 C.3       17 UNK         0.1400 
     96 CB         -3.7130  -23.3491  -52.5318 C.3       17 UNK        -0.1800 
     97 C          -5.2524  -23.0451  -50.5466 C.2       17 UNK         0.5000 
     98 O          -4.9377  -23.3000  -49.3817 O.2       17 UNK        -0.5000 
     99 N          -5.9442  -21.9573  -50.9047 N.am      18 UNK        -0.5000 
    100 CA        -6.2656  -20.8550  -49.9989 C.3       18 UNK         0.1400 
    101 CB        -7.6123  -20.2386  -50.4076 C.3       18 UNK        -0.1800 
    102 C         -5.1496  -19.7967  -50.0364 C.2       18 UNK         0.5000 
    103 O         -4.4896  -19.6373  -51.0674 O.2       18 UNK        -0.5000 
    104 N         -4.9904  -19.0742  -48.9194 N.am      19 UNK        -0.5000 
    105 CA        -3.9458  -18.0741  -48.6744 C.3       19 UNK         0.1400 
    106 CB        -4.1841  -17.4393  -47.2944 C.3       19 UNK        -0.1800 
    107 C         -3.8656  -16.9667  -49.7384 C.2       19 UNK         0.5000 
    108 O         -2.7773  -16.6655  -50.2233 O.2       19 UNK        -0.5000 
    109 N         -5.0259  -16.3832  -50.0645 N.am      20 UNK        -0.5000 
    110 CA        -5.1527  -15.2777  -51.0146 C.3       20 UNK         0.1400 
    111 CB        -6.3862  -14.4439  -50.6344 C.3       20 UNK        -0.1800 
    112 C         -5.2505  -15.7479  -52.4777 C.2       20 UNK         0.5000 
    113 O         -5.0167  -14.9442  -53.3813 O.2       20 UNK        -0.5000 
    114 N         -5.6144  -17.0204  -52.6938 N.am      21 UNK        -0.5000 
    115 CA        -5.6944  -17.6328  -54.0204 C.3       21 UNK         0.1400 
    116 CB        -6.6055  -18.8686  -53.9690 C.3       21 UNK        -0.1800 
    117 C         -4.3008  -18.0094  -54.5468 C.2       21 UNK         0.5000 
    118 O         -4.0122  -17.7878  -55.7238 O.2       21 UNK        -0.5000 
    119 N         -3.4691  -18.5694  -53.6611 N.am      22 UNK        -0.5000 
    120 CA        -2.0667  -18.9039  -53.9257 C.3       22 UNK         0.1400 
    121 C         -1.1299  -17.6574  -53.9513 C.2       22 UNK         0.5000 
    122 N          0.0950  -17.8086  -54.4363 N.am      22 UNK        -0.7600 
    123 O         -1.4893  -16.5571  -53.5398 O.2       22 UNK        -0.5000 
    124 C124       -1.5833  -20.0030  -52.9464 C.3       23 UNK        -0.0398 
    125 S125       -0.2737  -21.0459  -53.6751 S.3       23 UNK        -0.2404 
    126 C126        0.3254  -21.9380  -52.2050 C.3       23 UNK        -0.0205 
    127 H127       -1.8768  -14.0617  -47.0221 H         1 UNK         0.0600 
    128 H128       -3.2101  -14.3859  -48.1389 H         1 UNK         0.0600 
    129 H129       -2.7957  -12.7247  -47.7042 H         1 UNK         0.0600 
    130 H130       -0.0000  -14.6632  -48.0970 H         1 UNK         0.3000 
    131 H131        0.4031  -14.5889  -50.9099 H         1 UNK         0.0600 
    132 H132        2.8117  -15.0631  -50.3293 H         1 UNK         0.0800 
    133 H133        2.4630  -14.7934  -48.6439 H         1 UNK         0.0800 
    134 H134        3.6718  -17.4108  -50.3784 H         1 UNK         0.0800 
    135 H135        2.4140  -17.3003  -51.5900 H         1 UNK         0.0800 
    136 H136        0.9270  -19.1926  -52.0192 H         1 UNK         0.1150 
    137 H137        2.0285  -23.0334  -50.4469 H         1 UNK         0.1150 
    138 H138        4.0227  -19.4883  -49.0978 H         1 UNK         0.1150 
    139 H139        3.5643  -23.2290  -48.6783 H         1 UNK         0.0800 
    140 H140        4.9590  -22.3455  -49.2342 H         1 UNK         0.0800 
    141 H141        1.9842  -20.6588  -47.2539 H         1 UNK         0.0800 
    142 H142        2.6733  -20.5034  -45.6806 H         1 UNK         0.0800 
    143 H143        2.5123  -23.2065  -45.6600 H         1 UNK         0.0600 
    144 H144        0.7911  -21.1723  -44.6271 H         1 UNK         0.3000 
    145 H145       -1.2769  -23.3244  -42.6917 H         1 UNK         0.0600 
    146 H146        0.7364  -22.9466  -41.2738 H         1 UNK         0.0600 
    147 H147        0.8671  -21.2951  -41.8638 H         1 UNK         0.0600 
    148 H148       -0.5240  -21.7807  -40.8983 H         1 UNK         0.0600 
    149 H149       -1.2534  -20.4990  -42.9679 H         1 UNK         0.3000 
    150 H150       -3.3378  -20.3343  -45.8953 H         1 UNK         0.0600 
    151 H151       -4.7955  -20.6493  -43.8746 H         1 UNK         0.0600 
    152 H152       -4.6624  -18.9587  -44.3233 H         1 UNK         0.0600 
    153 H153       -3.7478  -19.5782  -42.9526 H         1 UNK         0.0600 
    154 H154       -2.1826  -18.2539  -44.3663 H         1 UNK         0.3000 
    155 H155        0.9406  -18.0487  -46.1752 H         1 UNK         0.0600 
    156 H156       -1.4609  -16.1836  -45.8743 H         1 UNK         0.0600 
    157 H157        0.1612  -15.7300  -46.3825 H         1 UNK         0.0600 
    158 H158       -0.8318  -16.7578  -47.4149 H         1 UNK         0.0600 
    159 H159        0.0254  -16.5385  -43.9660 H         1 UNK         0.3000 
    160 H160        1.1800  -18.6620  -41.3346 H         1 UNK         0.0600 
    161 H161        2.0764  -15.9383  -42.4249 H         1 UNK         0.0600 
    162 H162        3.1257  -17.3081  -42.0869 H         1 UNK         0.0600 
    163 H163        2.2871  -16.5047  -40.7683 H         1 UNK         0.0600 
    164 H164       -0.2307  -16.1313  -41.5372 H         1 UNK         0.3000 
    165 H165       -3.4920  -17.5183  -41.0996 H         1 UNK         0.0600 
    166 H166       -3.4522  -15.9628  -39.1762 H         1 UNK         0.0600 
    167 H167       -2.4847  -17.3839  -38.8171 H         1 UNK         0.0600 
    168 H168       -1.6921  -15.8716  -39.2424 H         1 UNK         0.0600 
    169 H169       -2.5510  -14.8232  -41.3280 H         1 UNK         0.3000 
    170 H170       -2.8725  -14.6052  -44.8859 H         1 UNK         0.0600 
    171 H171       -5.1994  -14.4357  -43.9890 H         1 UNK         0.0600 
    172 H172       -4.6136  -13.4451  -42.6575 H         1 UNK         0.0600 
    173 H173       -4.5009  -12.8592  -44.3179 H         1 UNK         0.0600 
    174 H174       -2.3151  -12.4721  -43.3146 H         1 UNK         0.3000 
    175 H175       -0.0251  -12.0076  -42.1928 H         1 UNK         0.0600 
    176 H176        2.0076  -13.1420  -44.1885 H         1 UNK         0.0600 
    177 H177        2.3051  -11.7993  -43.0860 H         1 UNK         0.0600 
    178 H178        1.9893  -13.4056  -42.4506 H         1 UNK         0.0600 
    179 H179       -0.4204  -10.4451  -43.7273 H         1 UNK         0.3000 
    180 H180       -1.6030  -10.2546  -46.4646 H         1 UNK         0.0600 
    181 H181        0.6844   -8.7022  -45.1384 H         1 UNK         0.0600 
    182 H182       -1.0088   -8.7376  -44.6625 H         1 UNK         0.0600 
    183 H183       -0.5421   -7.9583  -46.1600 H         1 UNK         0.0600 
    184 H184       -0.4662  -10.4792  -48.3434 H         1 UNK         0.3000 
    185 H185        1.3354  -10.0366  -49.9770 H         1 UNK         0.0600 
    186 H186        3.7062   -9.4064  -49.3853 H         1 UNK         0.0600 
    187 H187        3.9653  -11.0092  -48.7038 H         1 UNK         0.0600 
    188 H188        3.6665  -10.8157  -50.4296 H         1 UNK         0.0600 
    189 H189        1.1706  -12.3378  -48.3018 H         1 UNK         0.3000 
    190 H190       -0.3488  -21.5251  -47.0813 H         1 UNK         0.3000 
    191 H191       -0.3679  -22.9828  -49.4781 H         1 UNK         0.0600 
    192 H192       -2.6416  -21.4343  -48.1324 H         1 UNK         0.0600 
    193 H193       -2.5714  -21.8854  -49.8316 H         1 UNK         0.0600 
    194 H194       -1.4084  -20.7432  -49.1893 H         1 UNK         0.0600 
    195 H195       -1.8699  -23.8071  -46.3886 H         1 UNK         0.3000 
    196 H196       -3.6263  -25.8232  -47.2157 H         1 UNK         0.0600 
    197 H197       -3.2917  -26.7053  -44.8716 H         1 UNK         0.0600 
    198 H198       -3.5825  -24.9755  -44.9113 H         1 UNK         0.0600 
    199 H199       -1.9473  -25.5875  -44.6625 H         1 UNK         0.0600 
    200 H200       -0.0812  -25.9484  -46.9976 H         1 UNK         0.3000 
    201 H201        0.1356  -28.8295  -47.2295 H         1 UNK         0.0600 
    202 H202        1.9262  -27.3894  -46.2178 H         1 UNK         0.0600 
    203 H203        2.2125  -26.6482  -47.7925 H         1 UNK         0.0600 
    204 H204        2.5303  -28.3592  -47.5532 H         1 UNK         0.0600 
    205 H205       -0.3409  -26.1923  -49.4821 H         1 UNK         0.3000 
    206 H206        0.2492  -27.8370  -51.8800 H         1 UNK         0.0600 
    207 H207        1.0656  -25.4638  -51.7731 H         1 UNK         0.0600 
    208 H208       -0.0906  -25.6987  -53.0742 H         1 UNK         0.0600 
    209 H209       -0.5962  -24.9025  -51.5922 H         1 UNK         0.0600 
    210 H210       -2.2830  -27.3559  -49.7527 H         1 UNK         0.3000 
    211 H211       -4.4591  -27.6319  -49.6529 H         1 UNK         0.0600 
    212 H212       -4.3101  -29.0882  -52.3446 H         1 UNK         0.0600 
    213 H213       -5.6101  -29.1926  -51.1666 H         1 UNK         0.0600 
    214 H214       -4.0228  -29.8298  -50.7708 H         1 UNK         0.0600 
    215 H215       -3.5482  -25.1598  -50.5040 H         1 UNK         0.3000 
    216 H216       -5.7025  -24.1530  -52.3254 H         1 UNK         0.0600 
    217 H217       -4.0428  -22.4150  -52.9874 H         1 UNK         0.0600 
    218 H218       -3.4063  -24.0121  -53.3411 H         1 UNK         0.0600 
    219 H219       -2.8302  -23.1331  -51.9296 H         1 UNK         0.0600 
    220 H220       -6.1231  -21.7918  -51.8840 H         1 UNK         0.3000 
    221 H221       -6.3594  -21.2302  -48.9774 H         1 UNK         0.0600 
    222 H222       -7.5882  -19.8358  -51.4188 H         1 UNK         0.0600 
    223 H223       -8.4109  -20.9794  -50.3639 H         1 UNK         0.0600 
    224 H224       -7.8907  -19.4242  -49.7376 H         1 UNK         0.0600 
    225 H225       -5.6030  -19.2633  -48.1396 H         1 UNK         0.3000 
    226 H226       -2.9859  -18.5948  -48.6570 H         1 UNK         0.0600 
    227 H227       -4.1767  -18.1876  -46.5069 H         1 UNK         0.0600 
    228 H228       -3.4108  -16.7102  -47.0569 H         1 UNK         0.0600 
    229 H229       -5.1428  -16.9221  -47.2440 H         1 UNK         0.0600 
    230 H230       -5.8723  -16.6959  -49.6119 H         1 UNK         0.3000 
    231 H231       -4.2730  -14.6344  -50.9350 H         1 UNK         0.0600 
    232 H232       -6.5004  -13.5885  -51.3016 H         1 UNK         0.0600 
    233 H233       -6.3002  -14.0533  -49.6203 H         1 UNK         0.0600 
    234 H234       -7.3037  -15.0309  -50.6932 H         1 UNK         0.0600 
    235 H235       -5.7454  -17.6267  -51.8981 H         1 UNK         0.3000 
    236 H236       -6.1388  -16.9162  -54.7147 H         1 UNK         0.0600 
    237 H237       -7.5994  -18.6124  -53.6020 H         1 UNK         0.0600 
    238 H238       -6.7282  -19.2999  -54.9632 H         1 UNK         0.0600 
    239 H239       -6.1940  -19.6471  -53.3263 H         1 UNK         0.0600 
    240 H240       -3.7928  -18.7219  -52.7115 H         1 UNK         0.3000 
    241 H241       -2.0440  -19.3219  -54.9343 H         1 UNK         0.0600 
    242 H242        0.4180  -18.7065  -54.7637 H         1 UNK         0.3800 
    243 H243        0.7123  -17.0130  -54.4695 H         1 UNK         0.3800 
    244 H244       -1.2719  -19.5748  -51.9928 H         1 UNK         0.0800 
    245 H245       -2.4072  -20.6738  -52.7023 H         1 UNK         0.0800 
    246 H246       -0.5315  -22.2152  -51.5934 H         1 UNK         0.0800 
    247 H247        0.7674  -22.8712  -52.5565 H         1 UNK         0.0800 
@<TRIPOS>BOND
     1    1    2 1    
     2    1  127 1    
     3    1  128 1    
     4    1  129 1    
     5    2    3 2    
     6    2    4 am   BACKBONE|DICT|INTERRES
     7    4    5 1    
     8    4  130 1    
     9    5    6 1    
    10    5   65 1    
    11    5  131 1    
    12    6    7 1    
    13    6  132 1    
    14    6  133 1    
    15    7    8 1    
    16    8    9 1    
    17    8  134 1    
    18    8  135 1    
    19    9   10 ar   
    20    9   14 ar   
    21   10   11 ar   
    22   10  136 1    
    23   11   12 ar   
    24   11  126 1    
    25   12   13 ar   
    26   12  137 1    
    27   13   14 ar   
    28   13   15 1    
    29   14  138 1    
    30   15   16 1    
    31   15  139 1    
    32   15  140 1    
    33   16   17 1    
    34   17   18 1    
    35   17  141 1    
    36   17  142 1    
    37   18   19 1    
    38   18   67 1    
    39   18  143 1    
    40   19   20 am   BACKBONE|DICT|INTERRES
    41   19  144 1    
    42   20   21 2    
    43   20   22 1    
    44   22   23 1    
    45   22   24 1    
    46   22  145 1    
    47   23  146 1    
    48   23  147 1    
    49   23  148 1    
    50   24   25 am   BACKBONE|DICT|INTERRES
    51   24  149 1    
    52   25   26 2    
    53   25   27 1    
    54   27   28 1    
    55   27   29 1    
    56   27  150 1    
    57   28  151 1    
    58   28  152 1    
    59   28  153 1    
    60   29   30 am   BACKBONE|DICT|INTERRES
    61   29  154 1    
    62   30   31 2    
    63   30   32 1    
    64   32   33 1    
    65   32   34 1    
    66   32  155 1    
    67   33  156 1    
    68   33  157 1    
    69   33  158 1    
    70   34   35 am   BACKBONE|DICT|INTERRES
    71   34  159 1    
    72   35   36 2    
    73   35   37 1    
    74   37   38 1    
    75   37   39 1    
    76   37  160 1    
    77   38  161 1    
    78   38  162 1    
    79   38  163 1    
    80   39   40 am   BACKBONE|DICT|INTERRES
    81   39  164 1    
    82   40   41 2    
    83   40   42 1    
    84   42   43 1    
    85   42   44 1    
    86   42  165 1    
    87   43  166 1    
    88   43  167 1    
    89   43  168 1    
    90   44   45 am   BACKBONE|DICT|INTERRES
    91   44  169 1    
    92   45   46 2    
    93   45   47 1    
    94   47   48 1    
    95   47   49 1    
    96   47  170 1    
    97   48  171 1    
    98   48  172 1    
    99   48  173 1    
   100   49   50 am   BACKBONE|DICT|INTERRES
   101   49  174 1    
   102   50   51 2    
   103   50   52 1    
   104   52   53 1    
   105   52   54 1    
   106   52  175 1    
   107   53  176 1    
   108   53  177 1    
   109   53  178 1    
   110   54   55 am   BACKBONE|DICT|INTERRES
   111   54  179 1    
   112   55   56 2    
   113   55   57 1    
   114   57   58 1    
   115   57   59 1    
   116   57  180 1    
   117   58  181 1    
   118   58  182 1    
   119   58  183 1    
   120   59   60 am   BACKBONE|DICT|INTERRES
   121   59  184 1    
   122   60   61 2    
   123   60   62 1    
   124   62   63 1    
   125   62   64 1    
   126   62  185 1    
   127   63  186 1    
   128   63  187 1    
   129   63  188 1    
   130   64   65 am   BACKBONE|DICT|INTERRES
   131   64  189 1    
   132   65   66 2    
   133   67   68 2    
   134   67   69 am   BACKBONE|DICT|INTERRES
   135   69   70 1    
   136   69  190 1    
   137   70   71 1    
   138   70   72 1    
   139   70  191 1    
   140   71  192 1    
   141   71  193 1    
   142   71  194 1    
   143   72   73 2    
   144   72   74 am   BACKBONE|DICT|INTERRES
   145   74   75 1    
   146   74  195 1    
   147   75   76 1    
   148   75   77 1    
   149   75  196 1    
   150   76  197 1    
   151   76  198 1    
   152   76  199 1    
   153   77   78 2    
   154   77   79 am   BACKBONE|DICT|INTERRES
   155   79   80 1    
   156   79  200 1    
   157   80   81 1    
   158   80   82 1    
   159   80  201 1    
   160   81  202 1    
   161   81  203 1    
   162   81  204 1    
   163   82   83 2    
   164   82   84 am   BACKBONE|DICT|INTERRES
   165   84   85 1    
   166   84  205 1    
   167   85   86 1    
   168   85   87 1    
   169   85  206 1    
   170   86  207 1    
   171   86  208 1    
   172   86  209 1    
   173   87   88 2    
   174   87   89 am   BACKBONE|DICT|INTERRES
   175   89   90 1    
   176   89  210 1    
   177   90   91 1    
   178   90   92 1    
   179   90  211 1    
   180   91  212 1    
   181   91  213 1    
   182   91  214 1    
   183   92   93 2    
   184   92   94 am   BACKBONE|DICT|INTERRES
   185   94   95 1    
   186   94  215 1    
   187   95   96 1    
   188   95   97 1    
   189   95  216 1    
   190   96  217 1    
   191   96  218 1    
   192   96  219 1    
   193   97   98 2    
   194   97   99 am   BACKBONE|DICT|INTERRES
   195   99  100 1    
   196   99  220 1    
   197  100  101 1    
   198  100  102 1    
   199  100  221 1    
   200  101  222 1    
   201  101  223 1    
   202  101  224 1    
   203  102  103 2    
   204  102  104 am   BACKBONE|DICT|INTERRES
   205  104  105 1    
   206  104  225 1    
   207  105  106 1    
   208  105  107 1    
   209  105  226 1    
   210  106  227 1    
   211  106  228 1    
   212  106  229 1    
   213  107  108 2    
   214  107  109 am   BACKBONE|DICT|INTERRES
   215  109  110 1    
   216  109  230 1    
   217  110  111 1    
   218  110  112 1    
   219  110  231 1    
   220  111  232 1    
   221  111  233 1    
   222  111  234 1    
   223  112  113 2    
   224  112  114 am   BACKBONE|DICT|INTERRES
   225  114  115 1    
   226  114  235 1    
   227  115  116 1    
   228  115  117 1    
   229  115  236 1    
   230  116  237 1    
   231  116  238 1    
   232  116  239 1    
   233  117  118 2    
   234  117  119 am   BACKBONE|DICT|INTERRES
   235  119  120 1    
   236  119  240 1    
   237  120  121 1    
   238  120  124 1    
   239  120  241 1    
   240  121  122 am   BACKBONE|DICT|INTERRES
   241  121  123 2    
   242  122  242 1    
   243  122  243 1    
   244  124  125 1    
   245  124  244 1    
   246  124  245 1    
   247  125  126 1    
   248  126  246 1    
   249  126  247 1    
@<TRIPOS>SUBSTRUCTURE
     1 UNK         1 GROUP             0       ****    0 ROOT    
