@<TRIPOS>MOLECULE
3R540
247   249    1
SMALL
USER_CHARGES


@<TRIPOS>ATOM
      1 CA          1.2336  -11.7426  -47.8988 C.3       0 UNK        -0.1800 
      2 C           1.1482  -12.5596  -49.1798 C.2       0 UNK         0.5000 
      3 O           1.0601  -11.9820  -50.2635 O.2       0 UNK        -0.5000 
      4 N           1.1682  -13.8947  -49.0567 N.am      1 UNK        -0.5000 
      5 CA          1.1867  -14.9128  -50.1213 C.3       1 UNK         0.1400 
      6 C6          2.4263  -14.8097  -51.0537 C.3       23 UNK        -0.0398 
      7 S7          3.9663  -15.3199  -50.2117 S.3       23 UNK        -0.2404 
      8 C8          4.4794  -16.7766  -51.1867 C.3       23 UNK        -0.0205 
      9 C9          3.7957  -18.0643  -50.7401 C.ar      23 UNK        -0.0193 
     10 C10         2.4337  -18.2633  -50.9818 C.ar      23 UNK        -0.1150 
     11 C11         1.7988  -19.4399  -50.5832 C.ar      23 UNK        -0.0193 
     12 C12         2.5466  -20.4411  -49.9558 C.ar      23 UNK        -0.1150 
     13 C13         3.9195  -20.2799  -49.7465 C.ar      23 UNK        -0.0193 
     14 C14         4.5344  -19.0817  -50.1248 C.ar      23 UNK        -0.1150 
     15 C15         4.7477  -21.4295  -49.1852 C.3       23 UNK        -0.0205 
     16 S16         5.3126  -21.1678  -47.4726 S.3       23 UNK        -0.2404 
     17 C17         3.7564  -21.1476  -46.5250 C.3       23 UNK        -0.0398 
     18 CA          3.3028  -22.5476  -46.0234 C.3       11 UNK         0.1400 
     19 N           2.6178  -22.4612  -44.7306 N.am      11 UNK        -0.5000 
     20 C           2.3080  -23.5012  -43.9430 C.2       10 UNK         0.5000 
     21 O           2.6604  -24.6593  -44.1666 O.2       10 UNK        -0.5000 
     22 CA          1.4300  -23.2009  -42.7101 C.3       10 UNK         0.1400 
     23 CB          2.2959  -22.8388  -41.4943 C.3       10 UNK        -0.1800 
     24 N           0.4620  -22.1291  -42.9507 N.am      10 UNK        -0.5000 
     25 C          -0.5473  -22.2010  -43.8295 C.2       9 UNK         0.5000 
     26 O          -0.8291  -23.2118  -44.4702 O.2       9 UNK        -0.5000 
     27 CA         -1.3302  -20.9057  -44.0902 C.3       9 UNK         0.1400 
     28 CB         -2.4585  -20.7265  -43.0635 C.3       9 UNK        -0.1800 
     29 N          -0.4539  -19.7320  -44.1164 N.am      9 UNK        -0.5000 
     30 C           0.4576  -19.5078  -45.0752 C.2       8 UNK         0.5000 
     31 O           0.6138  -20.2475  -46.0440 O.2       8 UNK        -0.5000 
     32 CA          1.3914  -18.2980  -44.9019 C.3       8 UNK         0.1400 
     33 CB          0.7857  -17.0431  -45.5387 C.3       8 UNK        -0.1800 
     34 N           1.6952  -18.0418  -43.4956 N.am      8 UNK        -0.5000 
     35 C           2.5330  -18.7984  -42.7718 C.2       7 UNK         0.5000 
     36 O           3.1621  -19.7488  -43.2364 O.2       7 UNK        -0.5000 
     37 CA          2.6453  -18.4771  -41.2691 C.3       7 UNK         0.1400 
     38 CB          3.7393  -17.4286  -41.0210 C.3       7 UNK        -0.1800 
     39 N           1.3854  -18.0097  -40.6869 N.am      7 UNK        -0.5000 
     40 C           0.2544  -18.7262  -40.6431 C.2       6 UNK         0.5000 
     41 O           0.1717  -19.8823  -41.0587 O.2       6 UNK        -0.5000 
     42 CA         -1.0083  -18.0355  -40.0909 C.3       6 UNK         0.1400 
     43 CB         -0.7118  -16.7892  -39.2269 C.3       6 UNK        -0.1800 
     44 N          -1.9667  -17.7048  -41.1539 N.am      6 UNK        -0.5000 
     45 C          -1.7572  -16.9187  -42.2206 C.2       5 UNK         0.5000 
     46 O          -0.6639  -16.4136  -42.4938 O.2       5 UNK        -0.5000 
     47 CA         -2.9683  -16.6508  -43.1349 C.3       5 UNK         0.1400 
     48 CB         -4.2287  -16.2559  -42.3362 C.3       5 UNK        -0.1800 
     49 N          -2.6161  -15.5902  -44.0739 N.am      5 UNK        -0.5000 
     50 C          -3.2326  -15.3180  -45.2284 C.2       4 UNK         0.5000 
     51 O          -4.2226  -15.9286  -45.6355 O.2       4 UNK        -0.5000 
     52 CA         -2.6588  -14.1445  -46.0425 C.3       4 UNK         0.1400 
     53 CB         -1.1401  -14.2529  -46.2601 C.3       4 UNK        -0.1800 
     54 N          -3.3018  -14.0633  -47.3497 N.am      4 UNK        -0.5000 
     55 C          -3.6809  -12.9407  -47.9610 C.2       3 UNK         0.5000 
     56 O          -3.5343  -11.8135  -47.4846 O.2       3 UNK        -0.5000 
     57 CA         -4.2384  -13.1125  -49.3789 C.3       3 UNK         0.1400 
     58 CB         -5.1223  -11.9287  -49.8216 C.3       3 UNK        -0.1800 
     59 N          -3.0973  -13.2612  -50.2747 N.am      3 UNK        -0.5000 
     60 C          -3.1360  -13.7715  -51.5094 C.2       2 UNK         0.5000 
     61 O          -4.1589  -14.1933  -52.0486 O.2       2 UNK        -0.5000 
     62 CA         -1.8115  -13.7908  -52.2918 C.3       2 UNK         0.1400 
     63 CB         -1.6952  -12.5421  -53.1786 C.3       2 UNK        -0.1800 
     64 N          -0.6304  -13.8718  -51.4311 N.am      2 UNK        -0.5000 
     65 C          -0.1204  -15.0070  -50.9416 C.2       1 UNK         0.5000 
     66 O          -0.6235  -16.1130  -51.1363 O.2       1 UNK        -0.5000 
     67 C           2.4181  -23.2592  -47.0706 C.2       11 UNK         0.5000 
     68 O           2.8670  -24.2043  -47.7199 O.2       11 UNK        -0.5000 
     69 N           1.1788  -22.7728  -47.2129 N.am      12 UNK        -0.5000 
     70 CA          0.2004  -23.2098  -48.2045 C.3       12 UNK         0.1400 
     71 CB         -0.9540  -22.2024  -48.2110 C.3       12 UNK        -0.1800 
     72 C          -0.3572  -24.6185  -47.9617 C.2       12 UNK         0.5000 
     73 O          -0.5264  -25.3758  -48.9188 O.2       12 UNK        -0.5000 
     74 N          -0.6843  -24.9209  -46.6976 N.am      13 UNK        -0.5000 
     75 CA         -1.4165  -26.1023  -46.2429 C.3       13 UNK         0.1400 
     76 CB         -0.5312  -27.3645  -46.3477 C.3       13 UNK        -0.1800 
     77 C          -2.7780  -26.2104  -46.9637 C.2       13 UNK         0.5000 
     78 O          -3.6528  -25.3738  -46.7315 O.2       13 UNK        -0.5000 
     79 N          -2.9205  -27.2062  -47.8470 N.am      14 UNK        -0.5000 
     80 CA         -4.1163  -27.4638  -48.6487 C.3       14 UNK         0.1400 
     81 CB         -4.0004  -28.8663  -49.2659 C.3       14 UNK        -0.1800 
     82 C          -4.3901  -26.4155  -49.7472 C.2       14 UNK         0.5000 
     83 O          -5.5188  -26.3564  -50.2385 O.2       14 UNK        -0.5000 
     84 N          -3.3860  -25.6087  -50.1253 N.am      15 UNK        -0.5000 
     85 CA         -3.4771  -24.5808  -51.1691 C.3       15 UNK         0.1400 
     86 CB         -2.0672  -24.2733  -51.7011 C.3       15 UNK        -0.1800 
     87 C          -4.2277  -23.3167  -50.6936 C.2       15 UNK         0.5000 
     88 O          -3.6537  -22.2285  -50.6374 O.2       15 UNK        -0.5000 
     89 N          -5.5047  -23.4965  -50.3290 N.am      16 UNK        -0.5000 
     90 CA         -6.4739  -22.4787  -49.9012 C.3       16 UNK         0.1400 
     91 CB         -6.7964  -21.5230  -51.0708 C.3       16 UNK        -0.1800 
     92 C          -6.0738  -21.7060  -48.6255 C.2       16 UNK         0.5000 
     93 O          -6.6018  -20.6192  -48.3906 O.2       16 UNK        -0.5000 
     94 N          -5.1328  -22.2511  -47.8373 N.am      17 UNK        -0.5000 
     95 CA         -4.5545  -21.6669  -46.6191 C.3       17 UNK         0.1400 
     96 CB         -5.5826  -21.7143  -45.4703 C.3       17 UNK        -0.1800 
     97 C          -3.9610  -20.2515  -46.8250 C.2       17 UNK         0.5000 
     98 O          -3.9559  -19.4518  -45.8902 O.2       17 UNK        -0.5000 
     99 N          -3.4915  -19.9714  -48.0514 N.am      18 UNK        -0.5000 
    100 CA        -2.9850  -18.6852  -48.5446 C.3       18 UNK         0.1400 
    101 CB        -1.7443  -18.2215  -47.7559 C.3       18 UNK        -0.1800 
    102 C         -4.0477  -17.5697  -48.6410 C.2       18 UNK         0.5000 
    103 O         -3.6772  -16.4128  -48.8418 O.2       18 UNK        -0.5000 
    104 N         -5.3437  -17.9083  -48.5422 N.am      19 UNK        -0.5000 
    105 CA        -6.4505  -16.9660  -48.7471 C.3       19 UNK         0.1400 
    106 CB        -7.7455  -17.5623  -48.1762 C.3       19 UNK        -0.1800 
    107 C         -6.6311  -16.5932  -50.2329 C.2       19 UNK         0.5000 
    108 O         -7.1996  -15.5440  -50.5360 O.2       19 UNK        -0.5000 
    109 N         -6.1201  -17.4550  -51.1166 N.am      20 UNK        -0.5000 
    110 CA        -5.8722  -17.2117  -52.5290 C.3       20 UNK         0.1400 
    111 CB        -6.8197  -18.0880  -53.3635 C.3       20 UNK        -0.1800 
    112 C         -4.4025  -17.5774  -52.7948 C.2       20 UNK         0.5000 
    113 O         -3.8118  -18.3317  -52.0155 O.2       20 UNK        -0.5000 
    114 N         -3.8394  -17.0414  -53.8839 N.am      21 UNK        -0.5000 
    115 CA        -2.4465  -17.2477  -54.2801 C.3       21 UNK         0.1400 
    116 CB        -2.1202  -16.3320  -55.4707 C.3       21 UNK        -0.1800 
    117 C         -2.1354  -18.7163  -54.6240 C.2       21 UNK         0.5000 
    118 O         -2.9024  -19.3541  -55.3498 O.2       21 UNK        -0.5000 
    119 N         -1.0039  -19.2056  -54.1094 N.am      22 UNK        -0.5000 
    120 CA        -0.4626  -20.5437  -54.3790 C.3       22 UNK         0.1400 
    121 C          0.1220  -20.6563  -55.8142 C.2       22 UNK         0.5000 
    122 N          0.0031  -21.8143  -56.4493 N.am      22 UNK        -0.7600 
    123 O          0.7174  -19.7190  -56.3418 O.2       22 UNK        -0.5000 
    124 C124        0.6025  -20.9377  -53.3250 C.3       23 UNK        -0.0398 
    125 S125       -0.1193  -21.1700  -51.6652 S.3       23 UNK        -0.2404 
    126 C126        0.3051  -19.6075  -50.8310 C.3       23 UNK        -0.0205 
    127 H127        1.4652  -12.3653  -47.0344 H         1 UNK         0.0600 
    128 H128        0.2873  -11.2340  -47.7139 H         1 UNK         0.0600 
    129 H129        2.0150  -10.9879  -47.9878 H         1 UNK         0.0600 
    130 H130        1.2301  -14.2785  -48.1249 H         1 UNK         0.3000 
    131 H131        1.2554  -15.8654  -49.5925 H         1 UNK         0.0600 
    132 H132        2.5584  -13.7902  -51.4166 H         1 UNK         0.0800 
    133 H133        2.2984  -15.4077  -51.9562 H         1 UNK         0.0800 
    134 H134        5.5614  -16.8788  -51.0914 H         1 UNK         0.0800 
    135 H135        4.2918  -16.6070  -52.2477 H         1 UNK         0.0800 
    136 H136        1.8562  -17.5027  -51.4816 H         1 UNK         0.1150 
    137 H137        2.0630  -21.3603  -49.6612 H         1 UNK         0.1150 
    138 H138        5.5954  -18.9550  -49.9611 H         1 UNK         0.1150 
    139 H139        4.1963  -22.3677  -49.2486 H         1 UNK         0.0800 
    140 H140        5.6268  -21.5646  -49.8168 H         1 UNK         0.0800 
    141 H141        2.9809  -20.6326  -47.0929 H         1 UNK         0.0800 
    142 H142        3.9549  -20.5012  -45.6699 H         1 UNK         0.0800 
    143 H143        4.1906  -23.1637  -45.8645 H         1 UNK         0.0600 
    144 H144        2.3270  -21.5391  -44.4352 H         1 UNK         0.3000 
    145 H145        0.8712  -24.1086  -42.4726 H         1 UNK         0.0600 
    146 H146        1.6823  -22.6719  -40.6088 H         1 UNK         0.0600 
    147 H147        2.9949  -23.6427  -41.2603 H         1 UNK         0.0600 
    148 H148        2.8813  -21.9362  -41.6697 H         1 UNK         0.0600 
    149 H149        0.5750  -21.2752  -42.4129 H         1 UNK         0.3000 
    150 H150       -1.7863  -20.9995  -45.0758 H         1 UNK         0.0600 
    151 H151       -3.1166  -21.5961  -43.0603 H         1 UNK         0.0600 
    152 H152       -3.0751  -19.8611  -43.2995 H         1 UNK         0.0600 
    153 H153       -2.0800  -20.6072  -42.0496 H         1 UNK         0.0600 
    154 H154       -0.4676  -19.1297  -43.3074 H         1 UNK         0.3000 
    155 H155        2.3258  -18.5161  -45.4234 H         1 UNK         0.0600 
    156 H156       -0.2084  -16.8361  -45.1440 H         1 UNK         0.0600 
    157 H157        0.6952  -17.1654  -46.6183 H         1 UNK         0.0600 
    158 H158        1.4096  -16.1667  -45.3634 H         1 UNK         0.0600 
    159 H159        1.1701  -17.3040  -43.0384 H         1 UNK         0.3000 
    160 H160        2.9294  -19.3980  -40.7557 H         1 UNK         0.0600 
    161 H161        3.4959  -16.4740  -41.4893 H         1 UNK         0.0600 
    162 H162        4.6961  -17.7595  -41.4270 H         1 UNK         0.0600 
    163 H163        3.8832  -17.2533  -39.9547 H         1 UNK         0.0600 
    164 H164        1.3626  -17.0559  -40.3567 H         1 UNK         0.3000 
    165 H165       -1.4966  -18.7701  -39.4487 H         1 UNK         0.0600 
    166 H166       -1.6259  -16.4103  -38.7697 H         1 UNK         0.0600 
    167 H167       -0.0242  -17.0281  -38.4144 H         1 UNK         0.0600 
    168 H168       -0.2749  -15.9744  -39.8050 H         1 UNK         0.0600 
    169 H169       -2.8891  -18.0972  -41.0293 H         1 UNK         0.3000 
    170 H170       -3.1662  -17.5620  -43.7020 H         1 UNK         0.0600 
    171 H171       -4.5596  -17.0635  -41.6831 H         1 UNK         0.0600 
    172 H172       -4.0486  -15.3782  -41.7142 H         1 UNK         0.0600 
    173 H173       -5.0647  -16.0278  -42.9974 H         1 UNK         0.0600 
    174 H174       -1.7754  -15.0877  -43.8174 H         1 UNK         0.3000 
    175 H175       -2.8684  -13.2405  -45.4671 H         1 UNK         0.0600 
    176 H176       -0.8866  -15.1338  -46.8499 H         1 UNK         0.0600 
    177 H177       -0.7736  -13.3796  -46.7953 H         1 UNK         0.0600 
    178 H178       -0.5917  -14.3014  -45.3192 H         1 UNK         0.0600 
    179 H179       -3.4730  -14.9589  -47.8094 H         1 UNK         0.3000 
    180 H180       -4.8405  -14.0230  -49.4025 H         1 UNK         0.0600 
    181 H181       -4.5516  -11.0019  -49.8903 H         1 UNK         0.0600 
    182 H182       -5.9357  -11.7652  -49.1139 H         1 UNK         0.0600 
    183 H183       -5.5755  -12.1150  -50.7953 H         1 UNK         0.0600 
    184 H184       -2.2069  -12.9642  -49.9018 H         1 UNK         0.3000 
    185 H185       -1.8316  -14.6624  -52.9454 H         1 UNK         0.0600 
    186 H186       -0.7989  -12.5811  -53.7979 H         1 UNK         0.0600 
    187 H187       -2.5504  -12.4587  -53.8507 H         1 UNK         0.0600 
    188 H188       -1.6532  -11.6287  -52.5838 H         1 UNK         0.0600 
    189 H189       -0.1426  -13.0052  -51.2143 H         1 UNK         0.3000 
    190 H190        0.9149  -21.9604  -46.6598 H         1 UNK         0.3000 
    191 H191        0.6762  -23.2020  -49.1869 H         1 UNK         0.0600 
    192 H192       -1.4601  -22.1663  -47.2469 H         1 UNK         0.0600 
    193 H193       -1.6950  -22.4573  -48.9661 H         1 UNK         0.0600 
    194 H194       -0.5943  -21.2010  -48.4299 H         1 UNK         0.0600 
    195 H195       -0.5573  -24.2070  -45.9828 H         1 UNK         0.3000 
    196 H196       -1.6400  -25.9412  -45.1873 H         1 UNK         0.0600 
    197 H197       -1.0556  -28.2445  -45.9730 H         1 UNK         0.0600 
    198 H198        0.3718  -27.2508  -45.7477 H         1 UNK         0.0600 
    199 H199       -0.2176  -27.5722  -47.3711 H         1 UNK         0.0600 
    200 H200       -2.1330  -27.8184  -48.0043 H         1 UNK         0.3000 
    201 H201       -4.9779  -27.4581  -47.9778 H         1 UNK         0.0600 
    202 H202       -3.8926  -29.6296  -48.4950 H         1 UNK         0.0600 
    203 H203       -3.1430  -28.9407  -49.9360 H         1 UNK         0.0600 
    204 H204       -4.8913  -29.1155  -49.8440 H         1 UNK         0.0600 
    205 H205       -2.4874  -25.6994  -49.6634 H         1 UNK         0.3000 
    206 H206       -4.0494  -24.9901  -52.0043 H         1 UNK         0.0600 
    207 H207       -1.5825  -25.1723  -52.0814 H         1 UNK         0.0600 
    208 H208       -2.1072  -23.5539  -52.5200 H         1 UNK         0.0600 
    209 H209       -1.4266  -23.8506  -50.9283 H         1 UNK         0.0600 
    210 H210       -5.8513  -24.4520  -50.3566 H         1 UNK         0.3000 
    211 H211       -7.3887  -23.0174  -49.6509 H         1 UNK         0.0600 
    212 H212       -5.9404  -20.8987  -51.3304 H         1 UNK         0.0600 
    213 H213       -7.6213  -20.8548  -50.8202 H         1 UNK         0.0600 
    214 H214       -7.0907  -22.0755  -51.9629 H         1 UNK         0.0600 
    215 H215       -4.7539  -23.1463  -48.1136 H         1 UNK         0.3000 
    216 H216       -3.7197  -22.3104  -46.3381 H         1 UNK         0.0600 
    217 H217       -5.1356  -21.4004  -44.5268 H         1 UNK         0.0600 
    218 H218       -5.9639  -22.7251  -45.3255 H         1 UNK         0.0600 
    219 H219       -6.4322  -21.0584  -45.6629 H         1 UNK         0.0600 
    220 H220       -3.5608  -20.6979  -48.7541 H         1 UNK         0.3000 
    221 H221       -2.6635  -18.8746  -49.5696 H         1 UNK         0.0600 
    222 H222       -1.9984  -17.9146  -46.7412 H         1 UNK         0.0600 
    223 H223       -0.9999  -19.0111  -47.6922 H         1 UNK         0.0600 
    224 H224       -1.2683  -17.3707  -48.2449 H         1 UNK         0.0600 
    225 H225       -5.5987  -18.8761  -48.3714 H         1 UNK         0.3000 
    226 H226       -6.2272  -16.0501  -48.1956 H         1 UNK         0.0600 
    227 H227       -7.6200  -17.8569  -47.1341 H         1 UNK         0.0600 
    228 H228       -8.5571  -16.8349  -48.2149 H         1 UNK         0.0600 
    229 H229       -8.0675  -18.4393  -48.7383 H         1 UNK         0.0600 
    230 H230       -5.6037  -18.2427  -50.7477 H         1 UNK         0.3000 
    231 H231       -6.0261  -16.1584  -52.7724 H         1 UNK         0.0600 
    232 H232       -7.8625  -17.8587  -53.1436 H         1 UNK         0.0600 
    233 H233       -6.6623  -19.1497  -53.1692 H         1 UNK         0.0600 
    234 H234       -6.6673  -17.9229  -54.4306 H         1 UNK         0.0600 
    235 H235       -4.3967  -16.4547  -54.4868 H         1 UNK         0.3000 
    236 H236       -1.8203  -16.9518  -53.4367 H         1 UNK         0.0600 
    237 H237       -1.0720  -16.4260  -55.7576 H         1 UNK         0.0600 
    238 H238       -2.7224  -16.5822  -56.3451 H         1 UNK         0.0600 
    239 H239       -2.2987  -15.2838  -55.2312 H         1 UNK         0.0600 
    240 H240       -0.4252  -18.6046  -53.5440 H         1 UNK         0.3000 
    241 H241       -1.2895  -21.2533  -54.3038 H         1 UNK         0.0600 
    242 H242        0.3907  -21.9059  -57.3758 H         1 UNK         0.3800 
    243 H243       -0.4742  -22.6003  -56.0353 H         1 UNK         0.3800 
    244 H244        1.0732  -21.8844  -53.5958 H         1 UNK         0.0800 
    245 H245        1.4081  -20.2026  -53.2888 H         1 UNK         0.0800 
    246 H246       -0.2092  -19.5623  -49.8743 H         1 UNK         0.0800 
    247 H247       -0.0927  -18.7781  -51.4159 H         1 UNK         0.0800 
@<TRIPOS>BOND
     1    1    2 1    
     2    1  127 1    
     3    1  128 1    
     4    1  129 1    
     5    2    3 2    
     6    2    4 am   BACKBONE|DICT|INTERRES
     7    4    5 1    
     8    4  130 1    
     9    5    6 1    
    10    5   65 1    
    11    5  131 1    
    12    6    7 1    
    13    6  132 1    
    14    6  133 1    
    15    7    8 1    
    16    8    9 1    
    17    8  134 1    
    18    8  135 1    
    19    9   10 ar   
    20    9   14 ar   
    21   10   11 ar   
    22   10  136 1    
    23   11   12 ar   
    24   11  126 1    
    25   12   13 ar   
    26   12  137 1    
    27   13   14 ar   
    28   13   15 1    
    29   14  138 1    
    30   15   16 1    
    31   15  139 1    
    32   15  140 1    
    33   16   17 1    
    34   17   18 1    
    35   17  141 1    
    36   17  142 1    
    37   18   19 1    
    38   18   67 1    
    39   18  143 1    
    40   19   20 am   BACKBONE|DICT|INTERRES
    41   19  144 1    
    42   20   21 2    
    43   20   22 1    
    44   22   23 1    
    45   22   24 1    
    46   22  145 1    
    47   23  146 1    
    48   23  147 1    
    49   23  148 1    
    50   24   25 am   BACKBONE|DICT|INTERRES
    51   24  149 1    
    52   25   26 2    
    53   25   27 1    
    54   27   28 1    
    55   27   29 1    
    56   27  150 1    
    57   28  151 1    
    58   28  152 1    
    59   28  153 1    
    60   29   30 am   BACKBONE|DICT|INTERRES
    61   29  154 1    
    62   30   31 2    
    63   30   32 1    
    64   32   33 1    
    65   32   34 1    
    66   32  155 1    
    67   33  156 1    
    68   33  157 1    
    69   33  158 1    
    70   34   35 am   BACKBONE|DICT|INTERRES
    71   34  159 1    
    72   35   36 2    
    73   35   37 1    
    74   37   38 1    
    75   37   39 1    
    76   37  160 1    
    77   38  161 1    
    78   38  162 1    
    79   38  163 1    
    80   39   40 am   BACKBONE|DICT|INTERRES
    81   39  164 1    
    82   40   41 2    
    83   40   42 1    
    84   42   43 1    
    85   42   44 1    
    86   42  165 1    
    87   43  166 1    
    88   43  167 1    
    89   43  168 1    
    90   44   45 am   BACKBONE|DICT|INTERRES
    91   44  169 1    
    92   45   46 2    
    93   45   47 1    
    94   47   48 1    
    95   47   49 1    
    96   47  170 1    
    97   48  171 1    
    98   48  172 1    
    99   48  173 1    
   100   49   50 am   BACKBONE|DICT|INTERRES
   101   49  174 1    
   102   50   51 2    
   103   50   52 1    
   104   52   53 1    
   105   52   54 1    
   106   52  175 1    
   107   53  176 1    
   108   53  177 1    
   109   53  178 1    
   110   54   55 am   BACKBONE|DICT|INTERRES
   111   54  179 1    
   112   55   56 2    
   113   55   57 1    
   114   57   58 1    
   115   57   59 1    
   116   57  180 1    
   117   58  181 1    
   118   58  182 1    
   119   58  183 1    
   120   59   60 am   BACKBONE|DICT|INTERRES
   121   59  184 1    
   122   60   61 2    
   123   60   62 1    
   124   62   63 1    
   125   62   64 1    
   126   62  185 1    
   127   63  186 1    
   128   63  187 1    
   129   63  188 1    
   130   64   65 am   BACKBONE|DICT|INTERRES
   131   64  189 1    
   132   65   66 2    
   133   67   68 2    
   134   67   69 am   BACKBONE|DICT|INTERRES
   135   69   70 1    
   136   69  190 1    
   137   70   71 1    
   138   70   72 1    
   139   70  191 1    
   140   71  192 1    
   141   71  193 1    
   142   71  194 1    
   143   72   73 2    
   144   72   74 am   BACKBONE|DICT|INTERRES
   145   74   75 1    
   146   74  195 1    
   147   75   76 1    
   148   75   77 1    
   149   75  196 1    
   150   76  197 1    
   151   76  198 1    
   152   76  199 1    
   153   77   78 2    
   154   77   79 am   BACKBONE|DICT|INTERRES
   155   79   80 1    
   156   79  200 1    
   157   80   81 1    
   158   80   82 1    
   159   80  201 1    
   160   81  202 1    
   161   81  203 1    
   162   81  204 1    
   163   82   83 2    
   164   82   84 am   BACKBONE|DICT|INTERRES
   165   84   85 1    
   166   84  205 1    
   167   85   86 1    
   168   85   87 1    
   169   85  206 1    
   170   86  207 1    
   171   86  208 1    
   172   86  209 1    
   173   87   88 2    
   174   87   89 am   BACKBONE|DICT|INTERRES
   175   89   90 1    
   176   89  210 1    
   177   90   91 1    
   178   90   92 1    
   179   90  211 1    
   180   91  212 1    
   181   91  213 1    
   182   91  214 1    
   183   92   93 2    
   184   92   94 am   BACKBONE|DICT|INTERRES
   185   94   95 1    
   186   94  215 1    
   187   95   96 1    
   188   95   97 1    
   189   95  216 1    
   190   96  217 1    
   191   96  218 1    
   192   96  219 1    
   193   97   98 2    
   194   97   99 am   BACKBONE|DICT|INTERRES
   195   99  100 1    
   196   99  220 1    
   197  100  101 1    
   198  100  102 1    
   199  100  221 1    
   200  101  222 1    
   201  101  223 1    
   202  101  224 1    
   203  102  103 2    
   204  102  104 am   BACKBONE|DICT|INTERRES
   205  104  105 1    
   206  104  225 1    
   207  105  106 1    
   208  105  107 1    
   209  105  226 1    
   210  106  227 1    
   211  106  228 1    
   212  106  229 1    
   213  107  108 2    
   214  107  109 am   BACKBONE|DICT|INTERRES
   215  109  110 1    
   216  109  230 1    
   217  110  111 1    
   218  110  112 1    
   219  110  231 1    
   220  111  232 1    
   221  111  233 1    
   222  111  234 1    
   223  112  113 2    
   224  112  114 am   BACKBONE|DICT|INTERRES
   225  114  115 1    
   226  114  235 1    
   227  115  116 1    
   228  115  117 1    
   229  115  236 1    
   230  116  237 1    
   231  116  238 1    
   232  116  239 1    
   233  117  118 2    
   234  117  119 am   BACKBONE|DICT|INTERRES
   235  119  120 1    
   236  119  240 1    
   237  120  121 1    
   238  120  124 1    
   239  120  241 1    
   240  121  122 am   BACKBONE|DICT|INTERRES
   241  121  123 2    
   242  122  242 1    
   243  122  243 1    
   244  124  125 1    
   245  124  244 1    
   246  124  245 1    
   247  125  126 1    
   248  126  246 1    
   249  126  247 1    
@<TRIPOS>SUBSTRUCTURE
     1 UNK         1 GROUP             0       ****    0 ROOT    
