@<TRIPOS>MOLECULE
3R540
247   249    1
SMALL
USER_CHARGES


@<TRIPOS>ATOM
      1 CA         -3.5574  -13.5139  -49.4958 C.3       0 UNK        -0.1800 
      2 C          -2.6108  -13.8742  -48.3607 C.2       0 UNK         0.5000 
      3 O          -2.5491  -13.1623  -47.3586 O.2       0 UNK        -0.5000 
      4 N          -1.8809  -14.9871  -48.5065 N.am      1 UNK        -0.5000 
      5 CA         -0.9276  -15.5228  -47.5254 C.3       1 UNK         0.1400 
      6 C6         -0.0485  -16.6709  -48.0972 C.3       23 UNK        -0.0398 
      7 S7         -0.9301  -17.8491  -49.1843 S.3       23 UNK        -0.2404 
      8 C8         -0.1104  -17.5607  -50.7932 C.3       23 UNK        -0.0205 
      9 C9          0.9796  -18.5722  -51.1434 C.ar      23 UNK        -0.0193 
     10 C10         1.1331  -18.9675  -52.4779 C.ar      23 UNK        -0.1150 
     11 C11         2.1326  -19.8709  -52.8477 C.ar      23 UNK        -0.0193 
     12 C12         2.9814  -20.3896  -51.8676 C.ar      23 UNK        -0.1150 
     13 C13         2.8486  -20.0023  -50.5317 C.ar      23 UNK        -0.0193 
     14 C14         1.8514  -19.0885  -50.1758 C.ar      23 UNK        -0.1150 
     15 C15         3.8082  -20.5555  -49.4894 C.3       23 UNK        -0.0205 
     16 S16         3.1689  -22.0765  -48.7216 S.3       23 UNK        -0.2404 
     17 C17         2.3869  -21.4004  -47.2224 C.3       23 UNK        -0.0398 
     18 CA          1.3094  -22.3410  -46.6288 C.3       11 UNK         0.1400 
     19 N           1.2207  -22.1982  -45.1720 N.am      11 UNK        -0.5000 
     20 C           0.5804  -23.0423  -44.3513 C.2       10 UNK         0.5000 
     21 O           0.0568  -24.0909  -44.7254 O.2       10 UNK        -0.5000 
     22 CA          0.4686  -22.6204  -42.8725 C.3       10 UNK         0.1400 
     23 CB          1.7121  -23.0554  -42.0833 C.3       10 UNK        -0.1800 
     24 N           0.2701  -21.1775  -42.7199 N.am      10 UNK        -0.5000 
     25 C          -0.8309  -20.5228  -43.1154 C.2       9 UNK         0.5000 
     26 O          -1.8387  -21.0890  -43.5377 O.2       9 UNK        -0.5000 
     27 CA         -0.7828  -18.9822  -43.0878 C.3       9 UNK         0.1400 
     28 CB         -1.2698  -18.4352  -41.7395 C.3       9 UNK        -0.1800 
     29 N           0.5444  -18.4432  -43.3860 N.am      9 UNK        -0.5000 
     30 C           1.1729  -18.5718  -44.5614 C.2       8 UNK         0.5000 
     31 O           0.6887  -19.1533  -45.5283 O.2       8 UNK        -0.5000 
     32 CA          2.6077  -18.0292  -44.6574 C.3       8 UNK         0.1400 
     33 CB          2.6238  -16.5222  -44.9444 C.3       8 UNK        -0.1800 
     34 N           3.3619  -18.3049  -43.4376 N.am      8 UNK        -0.5000 
     35 C           3.8312  -19.5128  -43.0998 C.2       7 UNK         0.5000 
     36 O           3.7289  -20.5084  -43.8172 O.2       7 UNK        -0.5000 
     37 CA          4.4940  -19.6316  -41.7140 C.3       7 UNK         0.1400 
     38 CB          5.9818  -19.2589  -41.7935 C.3       7 UNK        -0.1800 
     39 N           3.8404  -18.7996  -40.7001 N.am      7 UNK        -0.5000 
     40 C           2.6069  -19.0222  -40.2251 C.2       6 UNK         0.5000 
     41 O           1.9064  -19.9729  -40.5714 O.2       6 UNK        -0.5000 
     42 CA          2.0423  -17.9858  -39.2323 C.3       6 UNK         0.1400 
     43 CB          2.4765  -18.3251  -37.7986 C.3       6 UNK        -0.1800 
     44 N           2.4020  -16.5937  -39.5313 N.am      6 UNK        -0.5000 
     45 C           2.1520  -15.9630  -40.6870 C.2       5 UNK         0.5000 
     46 O           1.6616  -16.5215  -41.6680 O.2       5 UNK        -0.5000 
     47 CA          2.5718  -14.4820  -40.7710 C.3       5 UNK         0.1400 
     48 CB          4.1000  -14.3729  -40.9016 C.3       5 UNK        -0.1800 
     49 N           1.9645  -13.7669  -41.8981 N.am      5 UNK        -0.5000 
     50 C           0.6561  -13.5326  -42.0723 C.2       4 UNK         0.5000 
     51 O          -0.2074  -13.8718  -41.2589 O.2       4 UNK        -0.5000 
     52 CA          0.2609  -12.7421  -43.3410 C.3       4 UNK         0.1400 
     53 CB          1.1510  -13.0377  -44.5637 C.3       4 UNK        -0.1800 
     54 N          -1.1303  -12.9896  -43.7156 N.am      4 UNK        -0.5000 
     55 C          -2.1775  -12.2520  -43.3224 C.2       3 UNK         0.5000 
     56 O          -2.0750  -11.2590  -42.5995 O.2       3 UNK        -0.5000 
     57 CA         -3.5749  -12.6608  -43.8323 C.3       3 UNK         0.1400 
     58 CB         -4.1625  -11.5688  -44.7418 C.3       3 UNK        -0.1800 
     59 N          -3.5683  -13.9277  -44.5665 N.am      3 UNK        -0.5000 
     60 C          -3.7361  -15.1315  -44.0009 C.2       2 UNK         0.5000 
     61 O          -3.9408  -15.2948  -42.7978 O.2       2 UNK        -0.5000 
     62 CA         -3.6685  -16.3671  -44.9228 C.3       2 UNK         0.1400 
     63 CB         -5.0865  -16.8253  -45.2944 C.3       2 UNK        -0.1800 
     64 N          -2.8834  -16.1674  -46.1455 N.am      2 UNK        -0.5000 
     65 C          -1.5715  -15.8849  -46.1675 C.2       1 UNK         0.5000 
     66 O          -0.8809  -15.8303  -45.1506 O.2       1 UNK        -0.5000 
     67 C          -0.0660  -22.1306  -47.2994 C.2       11 UNK         0.5000 
     68 O          -0.4310  -22.8787  -48.2067 O.2       11 UNK        -0.5000 
     69 N          -0.8315  -21.1528  -46.7945 N.am      12 UNK        -0.5000 
     70 CA         -2.1734  -20.7794  -47.2444 C.3       12 UNK         0.1400 
     71 CB         -2.6503  -19.5514  -46.4629 C.3       12 UNK        -0.1800 
     72 C          -3.2134  -21.9095  -47.1582 C.2       12 UNK         0.5000 
     73 O          -4.1817  -21.8902  -47.9173 O.2       12 UNK        -0.5000 
     74 N          -2.9899  -22.8907  -46.2745 N.am      13 UNK        -0.5000 
     75 CA         -3.7942  -24.1090  -46.1782 C.3       13 UNK         0.1400 
     76 CB         -3.4121  -24.8668  -44.8985 C.3       13 UNK        -0.1800 
     77 C          -3.6550  -25.0221  -47.4147 C.2       13 UNK         0.5000 
     78 O          -4.6065  -25.7289  -47.7483 O.2       13 UNK        -0.5000 
     79 N          -2.4897  -24.9821  -48.0761 N.am      14 UNK        -0.5000 
     80 CA         -2.2080  -25.7094  -49.3131 C.3       14 UNK         0.1400 
     81 CB         -0.7544  -26.2080  -49.2882 C.3       14 UNK        -0.1800 
     82 C          -2.4566  -24.8272  -50.5483 C.2       14 UNK         0.5000 
     83 O          -2.9904  -25.3172  -51.5433 O.2       14 UNK        -0.5000 
     84 N          -2.0748  -23.5442  -50.4644 N.am      15 UNK        -0.5000 
     85 CA         -2.2100  -22.5592  -51.5416 C.3       15 UNK         0.1400 
     86 CB         -1.2815  -21.3717  -51.2512 C.3       15 UNK        -0.1800 
     87 C          -3.6581  -22.0877  -51.7927 C.2       15 UNK         0.5000 
     88 O          -3.9286  -21.5634  -52.8744 O.2       15 UNK        -0.5000 
     89 N          -4.5498  -22.3284  -50.8200 N.am      16 UNK        -0.5000 
     90 CA         -5.9796  -22.0131  -50.7846 C.3       16 UNK         0.1400 
     91 CB         -6.7375  -22.5718  -52.0068 C.3       16 UNK        -0.1800 
     92 C          -6.2387  -20.5197  -50.5162 C.2       16 UNK         0.5000 
     93 O          -6.7760  -19.8098  -51.3694 O.2       16 UNK        -0.5000 
     94 N          -5.8581  -20.0898  -49.3042 N.am      17 UNK        -0.5000 
     95 CA         -6.0417  -18.7777  -48.6656 C.3       17 UNK         0.1400 
     96 CB         -7.5306  -18.3998  -48.5553 C.3       17 UNK        -0.1800 
     97 C          -5.2174  -17.6445  -49.3011 C.2       17 UNK         0.5000 
     98 O          -4.4648  -16.9636  -48.6013 O.2       17 UNK        -0.5000 
     99 N          -5.3682  -17.4897  -50.6168 N.am      18 UNK        -0.5000 
    100 CA        -4.4868  -16.7329  -51.4924 C.3       18 UNK         0.1400 
    101 CB        -5.3430  -15.8362  -52.4066 C.3       18 UNK        -0.1800 
    102 C         -3.6161  -17.7452  -52.2593 C.2       18 UNK         0.5000 
    103 O         -3.2935  -18.7991  -51.7150 O.2       18 UNK        -0.5000 
    104 N         -3.2486  -17.4287  -53.5053 N.am      19 UNK        -0.5000 
    105 CA        -2.4811  -18.3062  -54.3939 C.3       19 UNK         0.1400 
    106 CB        -1.4564  -17.4503  -55.1595 C.3       19 UNK        -0.1800 
    107 C         -3.3925  -19.0997  -55.3546 C.2       19 UNK         0.5000 
    108 O         -2.9209  -19.5486  -56.3998 O.2       19 UNK        -0.5000 
    109 N         -4.6792  -19.2431  -55.0073 N.am      20 UNK        -0.5000 
    110 CA        -5.7410  -19.7988  -55.8492 C.3       20 UNK         0.1400 
    111 CB        -7.0834  -19.6730  -55.1130 C.3       20 UNK        -0.1800 
    112 C         -5.5065  -21.2458  -56.3244 C.2       20 UNK         0.5000 
    113 O         -5.8224  -21.5535  -57.4748 O.2       20 UNK        -0.5000 
    114 N         -4.9457  -22.0953  -55.4545 N.am      21 UNK        -0.5000 
    115 CA        -4.5482  -23.4663  -55.7861 C.3       21 UNK         0.1400 
    116 CB        -4.9402  -24.4042  -54.6342 C.3       21 UNK        -0.1800 
    117 C         -3.0411  -23.5727  -56.0844 C.2       21 UNK         0.5000 
    118 O         -2.6210  -24.5526  -56.7013 O.2       21 UNK        -0.5000 
    119 N         -2.2551  -22.5791  -55.6485 N.am      22 UNK        -0.5000 
    120 CA        -0.8134  -22.4759  -55.9198 C.3       22 UNK         0.1400 
    121 C         -0.4936  -22.0889  -57.3921 C.2       22 UNK         0.5000 
    122 N         -1.2400  -21.1733  -57.9973 N.am      22 UNK        -0.7600 
    123 O          0.4250  -22.6355  -57.9963 O.2       22 UNK        -0.5000 
    124 C124       -0.1219  -21.5238  -54.9116 C.3       23 UNK        -0.0398 
    125 S125        1.6462  -21.9027  -54.6808 S.3       23 UNK        -0.2404 
    126 C126        2.3320  -20.2589  -54.3064 C.3       23 UNK        -0.0205 
    127 H127       -3.1491  -13.8145  -50.4606 H         1 UNK         0.0600 
    128 H128       -3.7266  -12.4375  -49.5240 H         1 UNK         0.0600 
    129 H129       -4.5184  -14.0089  -49.3544 H         1 UNK         0.0600 
    130 H130       -2.0207  -15.5721  -49.3176 H         1 UNK         0.3000 
    131 H131       -0.2461  -14.7008  -47.2951 H         1 UNK         0.0600 
    132 H132        0.4246  -17.2418  -47.2988 H         1 UNK         0.0800 
    133 H133        0.7828  -16.2332  -48.6501 H         1 UNK         0.0800 
    134 H134       -0.8815  -17.5949  -51.5602 H         1 UNK         0.0800 
    135 H135        0.3052  -16.5540  -50.8407 H         1 UNK         0.0800 
    136 H136        0.4803  -18.5610  -53.2358 H         1 UNK         0.1150 
    137 H137        3.7560  -21.0893  -52.1492 H         1 UNK         0.1150 
    138 H138        1.7575  -18.7791  -49.1456 H         1 UNK         0.1150 
    139 H139        4.7673  -20.7819  -49.9578 H         1 UNK         0.0800 
    140 H140        4.0199  -19.8033  -48.7279 H         1 UNK         0.0800 
    141 H141        1.9816  -20.4090  -47.4283 H         1 UNK         0.0800 
    142 H142        3.1905  -21.2464  -46.5006 H         1 UNK         0.0800 
    143 H143        1.6088  -23.3739  -46.8202 H         1 UNK         0.0600 
    144 H144        1.6242  -21.3596  -44.7771 H         1 UNK         0.3000 
    145 H145       -0.3990  -23.1286  -42.4464 H         1 UNK         0.0600 
    146 H146        1.6105  -22.8148  -41.0248 H         1 UNK         0.0600 
    147 H147        1.8652  -24.1326  -42.1592 H         1 UNK         0.0600 
    148 H148        2.6154  -22.5684  -42.4508 H         1 UNK         0.0600 
    149 H149        1.0231  -20.6512  -42.2897 H         1 UNK         0.3000 
    150 H150       -1.4587  -18.6200  -43.8627 H         1 UNK         0.0600 
    151 H151       -0.6399  -18.7758  -40.9184 H         1 UNK         0.0600 
    152 H152       -1.2705  -17.3445  -41.7344 H         1 UNK         0.0600 
    153 H153       -2.2888  -18.7634  -41.5313 H         1 UNK         0.0600 
    154 H154        0.9872  -17.8810  -42.6620 H         1 UNK         0.3000 
    155 H155        3.0991  -18.5335  -45.4925 H         1 UNK         0.0600 
    156 H156        2.1619  -15.9584  -44.1359 H         1 UNK         0.0600 
    157 H157        3.6423  -16.1548  -45.0694 H         1 UNK         0.0600 
    158 H158        2.0791  -16.2895  -45.8591 H         1 UNK         0.0600 
    159 H159        3.4071  -17.5584  -42.7588 H         1 UNK         0.3000 
    160 H160        4.4195  -20.6750  -41.3996 H         1 UNK         0.0600 
    161 H161        6.1222  -18.2164  -42.0818 H         1 UNK         0.0600 
    162 H162        6.4995  -19.8759  -42.5292 H         1 UNK         0.0600 
    163 H163        6.4783  -19.4126  -40.8352 H         1 UNK         0.0600 
    164 H164        4.3498  -17.9951  -40.3654 H         1 UNK         0.3000 
    165 H165        0.9540  -18.0532  -39.2779 H         1 UNK         0.0600 
    166 H166        1.9936  -17.6693  -37.0739 H         1 UNK         0.0600 
    167 H167        2.2035  -19.3491  -37.5395 H         1 UNK         0.0600 
    168 H168        3.5556  -18.2307  -37.6713 H         1 UNK         0.0600 
    169 H169        2.8278  -16.0738  -38.7775 H         1 UNK         0.3000 
    170 H170        2.2573  -13.9875  -39.8499 H         1 UNK         0.0600 
    171 H171        4.4605  -14.8527  -41.8126 H         1 UNK         0.0600 
    172 H172        4.4207  -13.3311  -40.9222 H         1 UNK         0.0600 
    173 H173        4.6062  -14.8462  -40.0594 H         1 UNK         0.0600 
    174 H174        2.6004  -13.4657  -42.6208 H         1 UNK         0.3000 
    175 H175        0.3888  -11.6856  -43.0976 H         1 UNK         0.0600 
    176 H176        0.8384  -12.4423  -45.4219 H         1 UNK         0.0600 
    177 H177        1.0942  -14.0835  -44.8579 H         1 UNK         0.0600 
    178 H178        2.1974  -12.7949  -44.3782 H         1 UNK         0.0600 
    179 H179       -1.3033  -13.8345  -44.2454 H         1 UNK         0.3000 
    180 H180       -4.2244  -12.7497  -42.9591 H         1 UNK         0.0600 
    181 H181       -5.1535  -11.8451  -45.1022 H         1 UNK         0.0600 
    182 H182       -3.5290  -11.3823  -45.6093 H         1 UNK         0.0600 
    183 H183       -4.2650  -10.6254  -44.2042 H         1 UNK         0.0600 
    184 H184       -3.3672  -13.8677  -45.5592 H         1 UNK         0.3000 
    185 H185       -3.1966  -17.1653  -44.3487 H         1 UNK         0.0600 
    186 H186       -5.7221  -16.9020  -44.4111 H         1 UNK         0.0600 
    187 H187       -5.5661  -16.1324  -45.9868 H         1 UNK         0.0600 
    188 H188       -5.0692  -17.8095  -45.7563 H         1 UNK         0.0600 
    189 H189       -3.3838  -16.2281  -47.0278 H         1 UNK         0.3000 
    190 H190       -0.4093  -20.5391  -46.1025 H         1 UNK         0.3000 
    191 H191       -2.0913  -20.4877  -48.2885 H         1 UNK         0.0600 
    192 H192       -2.9980  -19.8055  -45.4625 H         1 UNK         0.0600 
    193 H193       -1.8581  -18.8109  -46.3686 H         1 UNK         0.0600 
    194 H194       -3.4744  -19.0698  -46.9843 H         1 UNK         0.0600 
    195 H195       -2.1833  -22.8209  -45.6691 H         1 UNK         0.3000 
    196 H196       -4.8428  -23.8145  -46.0994 H         1 UNK         0.0600 
    197 H197       -4.0499  -25.7405  -44.7586 H         1 UNK         0.0600 
    198 H198       -3.5245  -24.2363  -44.0162 H         1 UNK         0.0600 
    199 H199       -2.3803  -25.2176  -44.9318 H         1 UNK         0.0600 
    200 H200       -1.7710  -24.3384  -47.7643 H         1 UNK         0.3000 
    201 H201       -2.8584  -26.5834  -49.3884 H         1 UNK         0.0600 
    202 H202       -0.5799  -26.8675  -48.4380 H         1 UNK         0.0600 
    203 H203       -0.0423  -25.3844  -49.2237 H         1 UNK         0.0600 
    204 H204       -0.5211  -26.7729  -50.1916 H         1 UNK         0.0600 
    205 H205       -1.5785  -23.2394  -49.6307 H         1 UNK         0.3000 
    206 H206       -1.8697  -23.0310  -52.4655 H         1 UNK         0.0600 
    207 H207       -1.3367  -20.6244  -52.0413 H         1 UNK         0.0600 
    208 H208       -1.5509  -20.8641  -50.3298 H         1 UNK         0.0600 
    209 H209       -0.2404  -21.6856  -51.1703 H         1 UNK         0.0600 
    210 H210       -4.1846  -22.7060  -49.9552 H         1 UNK         0.3000 
    211 H211       -6.3705  -22.5442  -49.9152 H         1 UNK         0.0600 
    212 H212       -6.4312  -22.0989  -52.9378 H         1 UNK         0.0600 
    213 H213       -7.8107  -22.4094  -51.9026 H         1 UNK         0.0600 
    214 H214       -6.5799  -23.6453  -52.1065 H         1 UNK         0.0600 
    215 H215       -5.3446  -20.7605  -48.7346 H         1 UNK         0.3000 
    216 H216       -5.6734  -18.9061  -47.6496 H         1 UNK         0.0600 
    217 H217       -7.6533  -17.4721  -47.9949 H         1 UNK         0.0600 
    218 H218       -8.0946  -19.1721  -48.0323 H         1 UNK         0.0600 
    219 H219       -7.9910  -18.2522  -49.5325 H         1 UNK         0.0600 
    220 H220       -5.9585  -18.1799  -51.0758 H         1 UNK         0.3000 
    221 H221       -3.8139  -16.1042  -50.9088 H         1 UNK         0.0600 
    222 H222       -5.9667  -16.4238  -53.0819 H         1 UNK         0.0600 
    223 H223       -6.0039  -15.2006  -51.8166 H         1 UNK         0.0600 
    224 H224       -4.7234  -15.1722  -53.0101 H         1 UNK         0.0600 
    225 H225       -3.5660  -16.5562  -53.9032 H         1 UNK         0.3000 
    226 H226       -1.9269  -19.0416  -53.8083 H         1 UNK         0.0600 
    227 H227       -0.8256  -16.8829  -54.4751 H         1 UNK         0.0600 
    228 H228       -0.7960  -18.0707  -55.7666 H         1 UNK         0.0600 
    229 H229       -1.9460  -16.7409  -55.8276 H         1 UNK         0.0600 
    230 H230       -4.9595  -18.9070  -54.0984 H         1 UNK         0.3000 
    231 H231       -5.7934  -19.1762  -56.7446 H         1 UNK         0.0600 
    232 H232       -7.0742  -20.2087  -54.1641 H         1 UNK         0.0600 
    233 H233       -7.8998  -20.0783  -55.7121 H         1 UNK         0.0600 
    234 H234       -7.3218  -18.6300  -54.9035 H         1 UNK         0.0600 
    235 H235       -4.7066  -21.7680  -54.5192 H         1 UNK         0.3000 
    236 H236       -5.0771  -23.8072  -56.6784 H         1 UNK         0.0600 
    237 H237       -6.0125  -24.3652  -54.4441 H         1 UNK         0.0600 
    238 H238       -4.6911  -25.4391  -54.8718 H         1 UNK         0.0600 
    239 H239       -4.4235  -24.1515  -53.7092 H         1 UNK         0.0600 
    240 H240       -2.6933  -21.7944  -55.1904 H         1 UNK         0.3000 
    241 H241       -0.4006  -23.4745  -55.7606 H         1 UNK         0.0600 
    242 H242       -1.9618  -20.6689  -57.4859 H         1 UNK         0.3800 
    243 H243       -1.0450  -20.9270  -58.9542 H         1 UNK         0.3800 
    244 H244       -0.2562  -20.4813  -55.2026 H         1 UNK         0.0800 
    245 H245       -0.5834  -21.6243  -53.9329 H         1 UNK         0.0800 
    246 H246        1.9009  -19.5102  -54.9727 H         1 UNK         0.0800 
    247 H247        3.4005  -20.2727  -54.5265 H         1 UNK         0.0800 
@<TRIPOS>BOND
     1    1    2 1    
     2    1  127 1    
     3    1  128 1    
     4    1  129 1    
     5    2    3 2    
     6    2    4 am   BACKBONE|DICT|INTERRES
     7    4    5 1    
     8    4  130 1    
     9    5    6 1    
    10    5   65 1    
    11    5  131 1    
    12    6    7 1    
    13    6  132 1    
    14    6  133 1    
    15    7    8 1    
    16    8    9 1    
    17    8  134 1    
    18    8  135 1    
    19    9   10 ar   
    20    9   14 ar   
    21   10   11 ar   
    22   10  136 1    
    23   11   12 ar   
    24   11  126 1    
    25   12   13 ar   
    26   12  137 1    
    27   13   14 ar   
    28   13   15 1    
    29   14  138 1    
    30   15   16 1    
    31   15  139 1    
    32   15  140 1    
    33   16   17 1    
    34   17   18 1    
    35   17  141 1    
    36   17  142 1    
    37   18   19 1    
    38   18   67 1    
    39   18  143 1    
    40   19   20 am   BACKBONE|DICT|INTERRES
    41   19  144 1    
    42   20   21 2    
    43   20   22 1    
    44   22   23 1    
    45   22   24 1    
    46   22  145 1    
    47   23  146 1    
    48   23  147 1    
    49   23  148 1    
    50   24   25 am   BACKBONE|DICT|INTERRES
    51   24  149 1    
    52   25   26 2    
    53   25   27 1    
    54   27   28 1    
    55   27   29 1    
    56   27  150 1    
    57   28  151 1    
    58   28  152 1    
    59   28  153 1    
    60   29   30 am   BACKBONE|DICT|INTERRES
    61   29  154 1    
    62   30   31 2    
    63   30   32 1    
    64   32   33 1    
    65   32   34 1    
    66   32  155 1    
    67   33  156 1    
    68   33  157 1    
    69   33  158 1    
    70   34   35 am   BACKBONE|DICT|INTERRES
    71   34  159 1    
    72   35   36 2    
    73   35   37 1    
    74   37   38 1    
    75   37   39 1    
    76   37  160 1    
    77   38  161 1    
    78   38  162 1    
    79   38  163 1    
    80   39   40 am   BACKBONE|DICT|INTERRES
    81   39  164 1    
    82   40   41 2    
    83   40   42 1    
    84   42   43 1    
    85   42   44 1    
    86   42  165 1    
    87   43  166 1    
    88   43  167 1    
    89   43  168 1    
    90   44   45 am   BACKBONE|DICT|INTERRES
    91   44  169 1    
    92   45   46 2    
    93   45   47 1    
    94   47   48 1    
    95   47   49 1    
    96   47  170 1    
    97   48  171 1    
    98   48  172 1    
    99   48  173 1    
   100   49   50 am   BACKBONE|DICT|INTERRES
   101   49  174 1    
   102   50   51 2    
   103   50   52 1    
   104   52   53 1    
   105   52   54 1    
   106   52  175 1    
   107   53  176 1    
   108   53  177 1    
   109   53  178 1    
   110   54   55 am   BACKBONE|DICT|INTERRES
   111   54  179 1    
   112   55   56 2    
   113   55   57 1    
   114   57   58 1    
   115   57   59 1    
   116   57  180 1    
   117   58  181 1    
   118   58  182 1    
   119   58  183 1    
   120   59   60 am   BACKBONE|DICT|INTERRES
   121   59  184 1    
   122   60   61 2    
   123   60   62 1    
   124   62   63 1    
   125   62   64 1    
   126   62  185 1    
   127   63  186 1    
   128   63  187 1    
   129   63  188 1    
   130   64   65 am   BACKBONE|DICT|INTERRES
   131   64  189 1    
   132   65   66 2    
   133   67   68 2    
   134   67   69 am   BACKBONE|DICT|INTERRES
   135   69   70 1    
   136   69  190 1    
   137   70   71 1    
   138   70   72 1    
   139   70  191 1    
   140   71  192 1    
   141   71  193 1    
   142   71  194 1    
   143   72   73 2    
   144   72   74 am   BACKBONE|DICT|INTERRES
   145   74   75 1    
   146   74  195 1    
   147   75   76 1    
   148   75   77 1    
   149   75  196 1    
   150   76  197 1    
   151   76  198 1    
   152   76  199 1    
   153   77   78 2    
   154   77   79 am   BACKBONE|DICT|INTERRES
   155   79   80 1    
   156   79  200 1    
   157   80   81 1    
   158   80   82 1    
   159   80  201 1    
   160   81  202 1    
   161   81  203 1    
   162   81  204 1    
   163   82   83 2    
   164   82   84 am   BACKBONE|DICT|INTERRES
   165   84   85 1    
   166   84  205 1    
   167   85   86 1    
   168   85   87 1    
   169   85  206 1    
   170   86  207 1    
   171   86  208 1    
   172   86  209 1    
   173   87   88 2    
   174   87   89 am   BACKBONE|DICT|INTERRES
   175   89   90 1    
   176   89  210 1    
   177   90   91 1    
   178   90   92 1    
   179   90  211 1    
   180   91  212 1    
   181   91  213 1    
   182   91  214 1    
   183   92   93 2    
   184   92   94 am   BACKBONE|DICT|INTERRES
   185   94   95 1    
   186   94  215 1    
   187   95   96 1    
   188   95   97 1    
   189   95  216 1    
   190   96  217 1    
   191   96  218 1    
   192   96  219 1    
   193   97   98 2    
   194   97   99 am   BACKBONE|DICT|INTERRES
   195   99  100 1    
   196   99  220 1    
   197  100  101 1    
   198  100  102 1    
   199  100  221 1    
   200  101  222 1    
   201  101  223 1    
   202  101  224 1    
   203  102  103 2    
   204  102  104 am   BACKBONE|DICT|INTERRES
   205  104  105 1    
   206  104  225 1    
   207  105  106 1    
   208  105  107 1    
   209  105  226 1    
   210  106  227 1    
   211  106  228 1    
   212  106  229 1    
   213  107  108 2    
   214  107  109 am   BACKBONE|DICT|INTERRES
   215  109  110 1    
   216  109  230 1    
   217  110  111 1    
   218  110  112 1    
   219  110  231 1    
   220  111  232 1    
   221  111  233 1    
   222  111  234 1    
   223  112  113 2    
   224  112  114 am   BACKBONE|DICT|INTERRES
   225  114  115 1    
   226  114  235 1    
   227  115  116 1    
   228  115  117 1    
   229  115  236 1    
   230  116  237 1    
   231  116  238 1    
   232  116  239 1    
   233  117  118 2    
   234  117  119 am   BACKBONE|DICT|INTERRES
   235  119  120 1    
   236  119  240 1    
   237  120  121 1    
   238  120  124 1    
   239  120  241 1    
   240  121  122 am   BACKBONE|DICT|INTERRES
   241  121  123 2    
   242  122  242 1    
   243  122  243 1    
   244  124  125 1    
   245  124  244 1    
   246  124  245 1    
   247  125  126 1    
   248  126  246 1    
   249  126  247 1    
@<TRIPOS>SUBSTRUCTURE
     1 UNK         1 GROUP             0       ****    0 ROOT    
