@<TRIPOS>MOLECULE
3R540
247   249    1
SMALL
USER_CHARGES


@<TRIPOS>ATOM
      1 CA          3.9799  -11.9820  -50.8818 C.3       0 UNK        -0.1800 
      2 C           3.7066  -13.0389  -49.8219 C.2       0 UNK         0.5000 
      3 O           4.4955  -13.1930  -48.8897 O.2       0 UNK        -0.5000 
      4 N           2.5819  -13.7567  -49.9453 N.am      1 UNK        -0.5000 
      5 CA          2.1557  -14.8314  -49.0360 C.3       1 UNK         0.1400 
      6 C6          0.9857  -15.6599  -49.6153 C.3       23 UNK        -0.0398 
      7 S7         -0.4946  -14.6832  -50.0688 S.3       23 UNK        -0.2404 
      8 C8         -1.0780  -15.5663  -51.5541 C.3       23 UNK        -0.0205 
      9 C9         -1.6457  -16.9336  -51.2031 C.ar      23 UNK        -0.0193 
     10 C10        -3.0157  -17.0964  -50.9714 C.ar      23 UNK        -0.1150 
     11 C11        -3.5267  -18.3469  -50.6095 C.ar      23 UNK        -0.0193 
     12 C12        -2.6546  -19.4231  -50.4437 C.ar      23 UNK        -0.1150 
     13 C13        -1.2917  -19.2834  -50.7093 C.ar      23 UNK        -0.0193 
     14 C14        -0.7975  -18.0406  -51.1077 C.ar      23 UNK        -0.1150 
     15 C15        -0.3584  -20.4770  -50.5780 C.3       23 UNK        -0.0205 
     16 S16         0.9342  -20.2148  -49.3281 S.3       23 UNK        -0.2404 
     17 C17        -0.0691  -20.1164  -47.8136 C.3       23 UNK        -0.0398 
     18 CA          0.1781  -21.2990  -46.8483 C.3       11 UNK         0.1400 
     19 N           0.0607  -20.8538  -45.4591 N.am      11 UNK        -0.5000 
     20 C           0.3995  -21.5766  -44.3859 C.2       10 UNK         0.5000 
     21 O           0.9154  -22.6910  -44.4470 O.2       10 UNK        -0.5000 
     22 CA          0.0421  -20.9702  -43.0185 C.3       10 UNK         0.1400 
     23 CB          1.1556  -20.0393  -42.5181 C.3       10 UNK        -0.1800 
     24 N          -1.2363  -20.2541  -43.0657 N.am      10 UNK        -0.5000 
     25 C          -2.4241  -20.8666  -43.1790 C.2       9 UNK         0.5000 
     26 O          -2.5595  -22.0896  -43.1620 O.2       9 UNK        -0.5000 
     27 CA         -3.6559  -19.9738  -43.4127 C.3       9 UNK         0.1400 
     28 CB         -4.2589  -19.5081  -42.0798 C.3       9 UNK        -0.1800 
     29 N          -3.3528  -18.8202  -44.2650 N.am      9 UNK        -0.5000 
     30 C          -3.1367  -18.9162  -45.5867 C.2       8 UNK         0.5000 
     31 O          -3.1913  -19.9800  -46.2003 O.2       8 UNK        -0.5000 
     32 CA         -2.7584  -17.6375  -46.3609 C.3       8 UNK         0.1400 
     33 CB         -4.0026  -17.0064  -47.0014 C.3       8 UNK        -0.1800 
     34 N          -2.0691  -16.6292  -45.5573 N.am      8 UNK        -0.5000 
     35 C          -0.9014  -16.8061  -44.9261 C.2       7 UNK         0.5000 
     36 O          -0.2748  -17.8686  -44.9491 O.2       7 UNK        -0.5000 
     37 CA         -0.3706  -15.6238  -44.0832 C.3       7 UNK         0.1400 
     38 CB         -1.2817  -14.3754  -44.0973 C.3       7 UNK        -0.1800 
     39 N          -0.0867  -16.0170  -42.7013 N.am      7 UNK        -0.5000 
     40 C          -0.9261  -16.6235  -41.8469 C.2       6 UNK         0.5000 
     41 O          -2.0843  -16.9285  -42.1342 O.2       6 UNK        -0.5000 
     42 CA         -0.3649  -16.9709  -40.4561 C.3       6 UNK         0.1400 
     43 CB         -1.0752  -18.1716  -39.8033 C.3       6 UNK        -0.1800 
     44 N           1.0709  -17.2335  -40.5427 N.am      6 UNK        -0.5000 
     45 C           1.9947  -16.7769  -39.6922 C.2       5 UNK         0.5000 
     46 O           1.7322  -16.1508  -38.6645 O.2       5 UNK        -0.5000 
     47 CA          3.4692  -17.0494  -40.0564 C.3       5 UNK         0.1400 
     48 CB          3.9585  -18.3238  -39.3508 C.3       5 UNK        -0.1800 
     49 N           3.7775  -17.1583  -41.4911 N.am      5 UNK        -0.5000 
     50 C           3.4905  -16.2552  -42.4398 C.2       4 UNK         0.5000 
     51 O           2.7429  -15.2898  -42.2665 O.2       4 UNK        -0.5000 
     52 CA          4.1267  -16.4944  -43.8237 C.3       4 UNK         0.1400 
     53 CB          3.2865  -17.4758  -44.6536 C.3       4 UNK        -0.1800 
     54 N           4.2810  -15.2433  -44.5691 N.am      4 UNK        -0.5000 
     55 C           5.1680  -14.2850  -44.2564 C.2       3 UNK         0.5000 
     56 O           6.0054  -14.4065  -43.3604 O.2       3 UNK        -0.5000 
     57 CA          5.1399  -12.9756  -45.0733 C.3       3 UNK         0.1400 
     58 CB          6.3042  -12.9454  -46.0752 C.3       3 UNK        -0.1800 
     59 N           3.8863  -12.7602  -45.7965 N.am      3 UNK        -0.5000 
     60 C           2.7187  -12.4323  -45.2223 C.2       2 UNK         0.5000 
     61 O           2.5995  -12.1849  -44.0225 O.2       2 UNK        -0.5000 
     62 CA          1.4671  -12.3773  -46.1256 C.3       2 UNK         0.1400 
     63 CB          1.0474  -10.9217  -46.3803 C.3       2 UNK        -0.1800 
     64 N           1.6217  -13.0530  -47.4156 N.am      2 UNK        -0.5000 
     65 C           1.8685  -14.3586  -47.5944 C.2       1 UNK         0.5000 
     66 O           1.9368  -15.1671  -46.6697 O.2       1 UNK        -0.5000 
     67 C          -0.7331  -22.5168  -47.1476 C.2       11 UNK         0.5000 
     68 O          -0.3136  -23.4490  -47.8362 O.2       11 UNK        -0.5000 
     69 N          -1.9471  -22.5167  -46.5775 N.am      12 UNK        -0.5000 
     70 CA         -2.8873  -23.6368  -46.6065 C.3       12 UNK         0.1400 
     71 CB         -4.2807  -23.1622  -46.1709 C.3       12 UNK        -0.1800 
     72 C          -2.4198  -24.8337  -45.7640 C.2       12 UNK         0.5000 
     73 O          -2.5619  -25.9690  -46.2161 O.2       12 UNK        -0.5000 
     74 N          -1.8229  -24.5766  -44.5909 N.am      13 UNK        -0.5000 
     75 CA         -1.2027  -25.6009  -43.7413 C.3       13 UNK         0.1400 
     76 CB         -0.8063  -24.9882  -42.3900 C.3       13 UNK        -0.1800 
     77 C           0.0064  -26.2836  -44.4145 C.2       13 UNK         0.5000 
     78 O           0.2170  -27.4810  -44.2205 O.2       13 UNK        -0.5000 
     79 N           0.7406  -25.5228  -45.2378 N.am      14 UNK        -0.5000 
     80 CA          1.8106  -26.0011  -46.1162 C.3       14 UNK         0.1400 
     81 CB          2.7071  -24.8097  -46.4926 C.3       14 UNK        -0.1800 
     82 C           1.2981  -26.7242  -47.3835 C.2       14 UNK         0.5000 
     83 O           2.1168  -27.2404  -48.1452 O.2       14 UNK        -0.5000 
     84 N          -0.0284  -26.7501  -47.5911 N.am      15 UNK        -0.5000 
     85 CA         -0.7585  -27.3742  -48.7000 C.3       15 UNK         0.1400 
     86 CB         -0.5590  -28.9045  -48.7019 C.3       15 UNK        -0.1800 
     87 C          -0.4800  -26.7250  -50.0719 C.2       15 UNK         0.5000 
     88 O          -0.5807  -27.3975  -51.0995 O.2       15 UNK        -0.5000 
     89 N          -0.1541  -25.4259  -50.0711 N.am      16 UNK        -0.5000 
     90 CA          0.1517  -24.6437  -51.2712 C.3       16 UNK         0.1400 
     91 CB          1.3608  -23.7463  -50.9592 C.3       16 UNK        -0.1800 
     92 C          -1.0483  -23.8071  -51.7618 C.2       16 UNK         0.5000 
     93 O          -0.9243  -23.1188  -52.7758 O.2       16 UNK        -0.5000 
     94 N          -2.1671  -23.8397  -51.0235 N.am      17 UNK        -0.5000 
     95 CA         -3.3815  -23.0642  -51.2849 C.3       17 UNK         0.1400 
     96 CB         -4.1551  -22.8982  -49.9630 C.3       17 UNK        -0.1800 
     97 C          -4.2584  -23.6354  -52.4199 C.2       17 UNK         0.5000 
     98 O          -3.8195  -24.5042  -53.1759 O.2       17 UNK        -0.5000 
     99 N          -5.4834  -23.0968  -52.5232 N.am      18 UNK        -0.5000 
    100 CA        -6.4626  -23.2821  -53.6032 C.3       18 UNK         0.1400 
    101 CB        -6.8544  -24.7636  -53.7896 C.3       18 UNK        -0.1800 
    102 C         -6.0326  -22.5882  -54.9139 C.2       18 UNK         0.5000 
    103 O         -6.4270  -23.0104  -56.0025 O.2       18 UNK        -0.5000 
    104 N         -5.2443  -21.5152  -54.7755 N.am      19 UNK        -0.5000 
    105 CA        -4.8629  -20.5972  -55.8430 C.3       19 UNK         0.1400 
    106 CB        -3.5706  -19.8804  -55.4151 C.3       19 UNK        -0.1800 
    107 C         -5.9810  -19.5707  -56.0986 C.2       19 UNK         0.5000 
    108 O         -6.8614  -19.3888  -55.2535 O.2       19 UNK        -0.5000 
    109 N         -5.8913  -18.8586  -57.2302 N.am      20 UNK        -0.5000 
    110 CA        -6.7957  -17.7593  -57.5946 C.3       20 UNK         0.1400 
    111 CB        -6.4516  -17.2695  -59.0092 C.3       20 UNK        -0.1800 
    112 C         -6.7680  -16.5850  -56.5930 C.2       20 UNK         0.5000 
    113 O         -7.7829  -15.9110  -56.4110 O.2       20 UNK        -0.5000 
    114 N         -5.6213  -16.4025  -55.9216 N.am      21 UNK        -0.5000 
    115 CA        -5.4079  -15.4480  -54.8325 C.3       21 UNK         0.1400 
    116 CB        -3.9170  -15.4534  -54.4589 C.3       21 UNK        -0.1800 
    117 C         -6.2682  -15.7202  -53.5808 C.2       21 UNK         0.5000 
    118 O         -6.4836  -14.7982  -52.7932 O.2       21 UNK        -0.5000 
    119 N         -6.7432  -16.9623  -53.4162 N.am      22 UNK        -0.5000 
    120 CA        -7.6138  -17.3853  -52.3086 C.3       22 UNK         0.1400 
    121 C         -9.1194  -17.0519  -52.5274 C.2       22 UNK         0.5000 
    122 N         -9.5323  -16.5320  -53.6785 N.am      22 UNK        -0.7600 
    123 O         -9.9303  -17.2593  -51.6289 O.2       22 UNK        -0.5000 
    124 C124       -7.4217  -18.8834  -51.9362 C.3       23 UNK        -0.0398 
    125 S125       -5.6834  -19.4442  -51.8852 S.3       23 UNK        -0.2404 
    126 C126       -5.0210  -18.5584  -50.4390 C.3       23 UNK        -0.0205 
    127 H127        3.1928  -11.9507  -51.6355 H         1 UNK         0.0600 
    128 H128        4.9243  -12.1912  -51.3841 H         1 UNK         0.0600 
    129 H129        4.0488  -10.9972  -50.4199 H         1 UNK         0.0600 
    130 H130        1.9573  -13.5726  -50.7179 H         1 UNK         0.3000 
    131 H131        3.0058  -15.5120  -48.9496 H         1 UNK         0.0600 
    132 H132        1.3538  -16.1671  -50.5065 H         1 UNK         0.0800 
    133 H133        0.6878  -16.4528  -48.9260 H         1 UNK         0.0800 
    134 H134       -0.2643  -15.6647  -52.2743 H         1 UNK         0.0800 
    135 H135       -1.8426  -14.9609  -52.0421 H         1 UNK         0.0800 
    136 H136       -3.6832  -16.2530  -51.0805 H         1 UNK         0.1150 
    137 H137       -3.0501  -20.3761  -50.1339 H         1 UNK         0.1150 
    138 H138        0.2564  -17.9381  -51.3189 H         1 UNK         0.1150 
    139 H139       -0.9171  -21.3714  -50.3061 H         1 UNK         0.0800 
    140 H140        0.1078  -20.6774  -51.5436 H         1 UNK         0.0800 
    141 H141       -1.1288  -20.0103  -48.0479 H         1 UNK         0.0800 
    142 H142        0.2165  -19.1756  -47.3404 H         1 UNK         0.0800 
    143 H143        1.2098  -21.6362  -46.9700 H         1 UNK         0.0600 
    144 H144       -0.3024  -19.9192  -45.3083 H         1 UNK         0.3000 
    145 H145       -0.0468  -21.7945  -42.3081 H         1 UNK         0.0600 
    146 H146        1.0233  -19.8171  -41.4607 H         1 UNK         0.0600 
    147 H147        2.1359  -20.5066  -42.6224 H         1 UNK         0.0600 
    148 H148        1.1774  -19.1003  -43.0699 H         1 UNK         0.0600 
    149 H149       -1.2026  -19.2475  -43.1493 H         1 UNK         0.3000 
    150 H150       -4.4106  -20.5789  -43.9197 H         1 UNK         0.0600 
    151 H151       -4.5855  -20.3620  -41.4850 H         1 UNK         0.0600 
    152 H152       -5.1290  -18.8713  -42.2397 H         1 UNK         0.0600 
    153 H153       -3.5410  -18.9524  -41.4787 H         1 UNK         0.0600 
    154 H154       -3.2329  -17.9275  -43.8015 H         1 UNK         0.3000 
    155 H155       -2.0822  -17.9323  -47.1654 H         1 UNK         0.0600 
    156 H156       -4.5484  -17.7382  -47.5971 H         1 UNK         0.0600 
    157 H157       -3.7304  -16.1872  -47.6675 H         1 UNK         0.0600 
    158 H158       -4.6903  -16.6182  -46.2492 H         1 UNK         0.0600 
    159 H159       -2.5343  -15.7387  -45.4602 H         1 UNK         0.3000 
    160 H160        0.5868  -15.3390  -44.5164 H         1 UNK         0.0600 
    161 H161       -2.2573  -14.5735  -43.6515 H         1 UNK         0.0600 
    162 H162       -1.4436  -14.0102  -45.1122 H         1 UNK         0.0600 
    163 H163       -0.8259  -13.5595  -43.5359 H         1 UNK         0.0600 
    164 H164        0.8485  -15.7868  -42.3769 H         1 UNK         0.3000 
    165 H165       -0.5433  -16.0907  -39.8352 H         1 UNK         0.0600 
    166 H166       -0.6424  -18.4036  -38.8302 H         1 UNK         0.0600 
    167 H167       -2.1327  -17.9595  -39.6423 H         1 UNK         0.0600 
    168 H168       -1.0101  -19.0672  -40.4207 H         1 UNK         0.0600 
    169 H169        1.3864  -17.7258  -41.3652 H         1 UNK         0.3000 
    170 H170        4.0482  -16.2070  -39.6728 H         1 UNK         0.0600 
    171 H171        3.7735  -18.2740  -38.2768 H         1 UNK         0.0600 
    172 H172        3.4512  -19.2119  -39.7302 H         1 UNK         0.0600 
    173 H173        5.0310  -18.4648  -39.4861 H         1 UNK         0.0600 
    174 H174        4.3744  -17.9330  -41.7429 H         1 UNK         0.3000 
    175 H175        5.1186  -16.9280  -43.6798 H         1 UNK         0.0600 
    176 H176        2.2652  -17.1208  -44.7820 H         1 UNK         0.0600 
    177 H177        3.7135  -17.6222  -45.6459 H         1 UNK         0.0600 
    178 H178        3.2388  -18.4544  -44.1760 H         1 UNK         0.0600 
    179 H179        3.5946  -15.0621  -45.2917 H         1 UNK         0.3000 
    180 H180        5.2752  -12.1499  -44.3717 H         1 UNK         0.0600 
    181 H181        6.2358  -13.7629  -46.7939 H         1 UNK         0.0600 
    182 H182        7.2633  -13.0374  -45.5640 H         1 UNK         0.0600 
    183 H183        6.3220  -12.0091  -46.6334 H         1 UNK         0.0600 
    184 H184        3.9109  -12.9297  -46.7955 H         1 UNK         0.3000 
    185 H185        0.6617  -12.8757  -45.5861 H         1 UNK         0.0600 
    186 H186        0.8855  -10.3903  -45.4415 H         1 UNK         0.0600 
    187 H187        1.8091  -10.3765  -46.9392 H         1 UNK         0.0600 
    188 H188        0.1155  -10.8721  -46.9438 H         1 UNK         0.0600 
    189 H189        1.5948  -12.4660  -48.2364 H         1 UNK         0.3000 
    190 H190       -2.2664  -21.6737  -46.1104 H         1 UNK         0.3000 
    191 H191       -2.9557  -23.9924  -47.6347 H         1 UNK         0.0600 
    192 H192       -4.6423  -22.3589  -46.8131 H         1 UNK         0.0600 
    193 H193       -5.0053  -23.9753  -46.2282 H         1 UNK         0.0600 
    194 H194       -4.2800  -22.7948  -45.1450 H         1 UNK         0.0600 
    195 H195       -1.8065  -23.6226  -44.2461 H         1 UNK         0.3000 
    196 H196       -1.9530  -26.3716  -43.5535 H         1 UNK         0.0600 
    197 H197       -0.4228  -25.7540  -41.7148 H         1 UNK         0.0600 
    198 H198       -1.6615  -24.5215  -41.9007 H         1 UNK         0.0600 
    199 H199       -0.0288  -24.2334  -42.5001 H         1 UNK         0.0600 
    200 H200        0.5469  -24.5273  -45.2670 H         1 UNK         0.3000 
    201 H201        2.4175  -26.7180  -45.5597 H         1 UNK         0.0600 
    202 H202        3.0984  -24.3140  -45.6040 H         1 UNK         0.0600 
    203 H203        2.1662  -24.0668  -47.0784 H         1 UNK         0.0600 
    204 H204        3.5626  -25.1340  -47.0862 H         1 UNK         0.0600 
    205 H205       -0.6194  -26.2969  -46.9047 H         1 UNK         0.3000 
    206 H206       -1.8148  -27.1904  -48.5015 H         1 UNK         0.0600 
    207 H207       -0.7718  -29.3303  -47.7213 H         1 UNK         0.0600 
    208 H208       -1.2296  -29.3860  -49.4146 H         1 UNK         0.0600 
    209 H209        0.4594  -29.1816  -48.9752 H         1 UNK         0.0600 
    210 H210       -0.1078  -24.9248  -49.1878 H         1 UNK         0.3000 
    211 H211        0.4336  -25.3052  -52.0927 H         1 UNK         0.0600 
    212 H212        1.6286  -23.1259  -51.8153 H         1 UNK         0.0600 
    213 H213        2.2362  -24.3442  -50.7054 H         1 UNK         0.0600 
    214 H214        1.1602  -23.0819  -50.1195 H         1 UNK         0.0600 
    215 H215       -2.1852  -24.4595  -50.2287 H         1 UNK         0.3000 
    216 H216       -3.0760  -22.0732  -51.6233 H         1 UNK         0.0600 
    217 H217       -5.0143  -22.2356  -50.0695 H         1 UNK         0.0600 
    218 H218       -3.5204  -22.4495  -49.2003 H         1 UNK         0.0600 
    219 H219       -4.5184  -23.8547  -49.5855 H         1 UNK         0.0600 
    220 H220       -5.7471  -22.4074  -51.8329 H         1 UNK         0.3000 
    221 H221       -7.3601  -22.7545  -53.2769 H         1 UNK         0.0600 
    222 H222       -6.0481  -25.3478  -54.2329 H         1 UNK         0.0600 
    223 H223       -7.1221  -25.2243  -52.8388 H         1 UNK         0.0600 
    224 H224       -7.7183  -24.8558  -54.4486 H         1 UNK         0.0600 
    225 H225       -5.0280  -21.2088  -53.8387 H         1 UNK         0.3000 
    226 H226       -4.6775  -21.1592  -56.7607 H         1 UNK         0.0600 
    227 H227       -2.7753  -20.5959  -55.2043 H         1 UNK         0.0600 
    228 H228       -3.2066  -19.2168  -56.2001 H         1 UNK         0.0600 
    229 H229       -3.7209  -19.2771  -54.5180 H         1 UNK         0.0600 
    230 H230       -5.1414  -19.0563  -57.8774 H         1 UNK         0.3000 
    231 H231       -7.8135  -18.1547  -57.6062 H         1 UNK         0.0600 
    232 H232       -5.4325  -16.8851  -59.0658 H         1 UNK         0.0600 
    233 H233       -7.1228  -16.4671  -59.3185 H         1 UNK         0.0600 
    234 H234       -6.5498  -18.0725  -59.7400 H         1 UNK         0.0600 
    235 H235       -4.8456  -17.0081  -56.1430 H         1 UNK         0.3000 
    236 H236       -5.6696  -14.4544  -55.2018 H         1 UNK         0.0600 
    237 H237       -3.2920  -15.2008  -55.3155 H         1 UNK         0.0600 
    238 H238       -3.7091  -14.7192  -53.6796 H         1 UNK         0.0600 
    239 H239       -3.5993  -16.4278  -54.0844 H         1 UNK         0.0600 
    240 H240       -6.5504  -17.6731  -54.1122 H         1 UNK         0.3000 
    241 H241       -7.3288  -16.8044  -51.4307 H         1 UNK         0.0600 
    242 H242      -10.5090  -16.3170  -53.8031 H         1 UNK         0.3800 
    243 H243       -8.8799  -16.3515  -54.4296 H         1 UNK         0.3800 
    244 H244       -7.8841  -19.0976  -50.9712 H         1 UNK         0.0800 
    245 H245       -7.9346  -19.5154  -52.6634 H         1 UNK         0.0800 
    246 H246       -5.5193  -17.5980  -50.3103 H         1 UNK         0.0800 
    247 H247       -5.2200  -19.1382  -49.5367 H         1 UNK         0.0800 
@<TRIPOS>BOND
     1    1    2 1    
     2    1  127 1    
     3    1  128 1    
     4    1  129 1    
     5    2    3 2    
     6    2    4 am   BACKBONE|DICT|INTERRES
     7    4    5 1    
     8    4  130 1    
     9    5    6 1    
    10    5   65 1    
    11    5  131 1    
    12    6    7 1    
    13    6  132 1    
    14    6  133 1    
    15    7    8 1    
    16    8    9 1    
    17    8  134 1    
    18    8  135 1    
    19    9   10 ar   
    20    9   14 ar   
    21   10   11 ar   
    22   10  136 1    
    23   11   12 ar   
    24   11  126 1    
    25   12   13 ar   
    26   12  137 1    
    27   13   14 ar   
    28   13   15 1    
    29   14  138 1    
    30   15   16 1    
    31   15  139 1    
    32   15  140 1    
    33   16   17 1    
    34   17   18 1    
    35   17  141 1    
    36   17  142 1    
    37   18   19 1    
    38   18   67 1    
    39   18  143 1    
    40   19   20 am   BACKBONE|DICT|INTERRES
    41   19  144 1    
    42   20   21 2    
    43   20   22 1    
    44   22   23 1    
    45   22   24 1    
    46   22  145 1    
    47   23  146 1    
    48   23  147 1    
    49   23  148 1    
    50   24   25 am   BACKBONE|DICT|INTERRES
    51   24  149 1    
    52   25   26 2    
    53   25   27 1    
    54   27   28 1    
    55   27   29 1    
    56   27  150 1    
    57   28  151 1    
    58   28  152 1    
    59   28  153 1    
    60   29   30 am   BACKBONE|DICT|INTERRES
    61   29  154 1    
    62   30   31 2    
    63   30   32 1    
    64   32   33 1    
    65   32   34 1    
    66   32  155 1    
    67   33  156 1    
    68   33  157 1    
    69   33  158 1    
    70   34   35 am   BACKBONE|DICT|INTERRES
    71   34  159 1    
    72   35   36 2    
    73   35   37 1    
    74   37   38 1    
    75   37   39 1    
    76   37  160 1    
    77   38  161 1    
    78   38  162 1    
    79   38  163 1    
    80   39   40 am   BACKBONE|DICT|INTERRES
    81   39  164 1    
    82   40   41 2    
    83   40   42 1    
    84   42   43 1    
    85   42   44 1    
    86   42  165 1    
    87   43  166 1    
    88   43  167 1    
    89   43  168 1    
    90   44   45 am   BACKBONE|DICT|INTERRES
    91   44  169 1    
    92   45   46 2    
    93   45   47 1    
    94   47   48 1    
    95   47   49 1    
    96   47  170 1    
    97   48  171 1    
    98   48  172 1    
    99   48  173 1    
   100   49   50 am   BACKBONE|DICT|INTERRES
   101   49  174 1    
   102   50   51 2    
   103   50   52 1    
   104   52   53 1    
   105   52   54 1    
   106   52  175 1    
   107   53  176 1    
   108   53  177 1    
   109   53  178 1    
   110   54   55 am   BACKBONE|DICT|INTERRES
   111   54  179 1    
   112   55   56 2    
   113   55   57 1    
   114   57   58 1    
   115   57   59 1    
   116   57  180 1    
   117   58  181 1    
   118   58  182 1    
   119   58  183 1    
   120   59   60 am   BACKBONE|DICT|INTERRES
   121   59  184 1    
   122   60   61 2    
   123   60   62 1    
   124   62   63 1    
   125   62   64 1    
   126   62  185 1    
   127   63  186 1    
   128   63  187 1    
   129   63  188 1    
   130   64   65 am   BACKBONE|DICT|INTERRES
   131   64  189 1    
   132   65   66 2    
   133   67   68 2    
   134   67   69 am   BACKBONE|DICT|INTERRES
   135   69   70 1    
   136   69  190 1    
   137   70   71 1    
   138   70   72 1    
   139   70  191 1    
   140   71  192 1    
   141   71  193 1    
   142   71  194 1    
   143   72   73 2    
   144   72   74 am   BACKBONE|DICT|INTERRES
   145   74   75 1    
   146   74  195 1    
   147   75   76 1    
   148   75   77 1    
   149   75  196 1    
   150   76  197 1    
   151   76  198 1    
   152   76  199 1    
   153   77   78 2    
   154   77   79 am   BACKBONE|DICT|INTERRES
   155   79   80 1    
   156   79  200 1    
   157   80   81 1    
   158   80   82 1    
   159   80  201 1    
   160   81  202 1    
   161   81  203 1    
   162   81  204 1    
   163   82   83 2    
   164   82   84 am   BACKBONE|DICT|INTERRES
   165   84   85 1    
   166   84  205 1    
   167   85   86 1    
   168   85   87 1    
   169   85  206 1    
   170   86  207 1    
   171   86  208 1    
   172   86  209 1    
   173   87   88 2    
   174   87   89 am   BACKBONE|DICT|INTERRES
   175   89   90 1    
   176   89  210 1    
   177   90   91 1    
   178   90   92 1    
   179   90  211 1    
   180   91  212 1    
   181   91  213 1    
   182   91  214 1    
   183   92   93 2    
   184   92   94 am   BACKBONE|DICT|INTERRES
   185   94   95 1    
   186   94  215 1    
   187   95   96 1    
   188   95   97 1    
   189   95  216 1    
   190   96  217 1    
   191   96  218 1    
   192   96  219 1    
   193   97   98 2    
   194   97   99 am   BACKBONE|DICT|INTERRES
   195   99  100 1    
   196   99  220 1    
   197  100  101 1    
   198  100  102 1    
   199  100  221 1    
   200  101  222 1    
   201  101  223 1    
   202  101  224 1    
   203  102  103 2    
   204  102  104 am   BACKBONE|DICT|INTERRES
   205  104  105 1    
   206  104  225 1    
   207  105  106 1    
   208  105  107 1    
   209  105  226 1    
   210  106  227 1    
   211  106  228 1    
   212  106  229 1    
   213  107  108 2    
   214  107  109 am   BACKBONE|DICT|INTERRES
   215  109  110 1    
   216  109  230 1    
   217  110  111 1    
   218  110  112 1    
   219  110  231 1    
   220  111  232 1    
   221  111  233 1    
   222  111  234 1    
   223  112  113 2    
   224  112  114 am   BACKBONE|DICT|INTERRES
   225  114  115 1    
   226  114  235 1    
   227  115  116 1    
   228  115  117 1    
   229  115  236 1    
   230  116  237 1    
   231  116  238 1    
   232  116  239 1    
   233  117  118 2    
   234  117  119 am   BACKBONE|DICT|INTERRES
   235  119  120 1    
   236  119  240 1    
   237  120  121 1    
   238  120  124 1    
   239  120  241 1    
   240  121  122 am   BACKBONE|DICT|INTERRES
   241  121  123 2    
   242  122  242 1    
   243  122  243 1    
   244  124  125 1    
   245  124  244 1    
   246  124  245 1    
   247  125  126 1    
   248  126  246 1    
   249  126  247 1    
@<TRIPOS>SUBSTRUCTURE
     1 UNK         1 GROUP             0       ****    0 ROOT    
