@<TRIPOS>MOLECULE
3R540
247   249    1
SMALL
USER_CHARGES


@<TRIPOS>ATOM
      1 CA         -0.4605  -15.0189  -50.5793 C.3       0 UNK        -0.1800 
      2 C           0.8843  -14.4298  -50.1809 C.2       0 UNK         0.5000 
      3 O           1.3128  -13.4305  -50.7581 O.2       0 UNK        -0.5000 
      4 N           1.5473  -15.0426  -49.1915 N.am      1 UNK        -0.5000 
      5 CA          2.8614  -14.6283  -48.6799 C.3       1 UNK         0.1400 
      6 C6          3.5418  -15.7481  -47.8565 C.3       23 UNK        -0.0398 
      7 S7          3.9902  -17.1909  -48.8776 S.3       23 UNK        -0.2404 
      8 C8          2.9339  -18.5012  -48.1839 C.3       23 UNK        -0.0205 
      9 C9          1.5034  -18.4248  -48.6948 C.ar      23 UNK        -0.0193 
     10 C10         1.2117  -18.7918  -50.0123 C.ar      23 UNK        -0.1150 
     11 C11        -0.1040  -18.7836  -50.4857 C.ar      23 UNK        -0.0193 
     12 C12        -1.1347  -18.4297  -49.6072 C.ar      23 UNK        -0.1150 
     13 C13        -0.8579  -18.0531  -48.2912 C.ar      23 UNK        -0.0193 
     14 C14         0.4662  -18.0323  -47.8448 C.ar      23 UNK        -0.1150 
     15 C15        -2.0014  -17.6926  -47.3569 C.3       23 UNK        -0.0205 
     16 S16        -2.8792  -19.1823  -46.7819 S.3       23 UNK        -0.2404 
     17 C17        -1.7590  -19.7885  -45.4751 C.3       23 UNK        -0.0398 
     18 CA         -0.6808  -20.7844  -45.9730 C.3       11 UNK         0.1400 
     19 N           0.4447  -20.8698  -45.0405 N.am      11 UNK        -0.5000 
     20 C           1.5921  -21.5324  -45.2415 C.2       10 UNK         0.5000 
     21 O           1.8060  -22.2542  -46.2157 O.2       10 UNK        -0.5000 
     22 CA          2.7121  -21.3361  -44.1982 C.3       10 UNK         0.1400 
     23 CB          3.8109  -20.4208  -44.7607 C.3       10 UNK        -0.1800 
     24 N           2.2498  -20.7814  -42.9236 N.am      10 UNK        -0.5000 
     25 C           1.5644  -21.4646  -41.9971 C.2       9 UNK         0.5000 
     26 O           1.2534  -22.6505  -42.1134 O.2       9 UNK        -0.5000 
     27 CA          1.1337  -20.6842  -40.7404 C.3       9 UNK         0.1400 
     28 CB          2.2859  -20.6073  -39.7273 C.3       9 UNK        -0.1800 
     29 N           0.6640  -19.3320  -41.0460 N.am      9 UNK        -0.5000 
     30 C          -0.4475  -19.0533  -41.7418 C.2       8 UNK         0.5000 
     31 O          -1.2253  -19.9106  -42.1609 O.2       8 UNK        -0.5000 
     32 CA         -0.7079  -17.5712  -42.0718 C.3       8 UNK         0.1400 
     33 CB         -1.3555  -16.8516  -40.8804 C.3       8 UNK        -0.1800 
     34 N           0.5021  -16.8575  -42.4873 N.am      8 UNK        -0.5000 
     35 C           1.2377  -17.1800  -43.5606 C.2       7 UNK         0.5000 
     36 O           0.9680  -18.1018  -44.3241 O.2       7 UNK        -0.5000 
     37 CA          2.5116  -16.3660  -43.8138 C.3       7 UNK         0.1400 
     38 CB          2.1720  -15.0491  -44.5155 C.3       7 UNK        -0.1800 
     39 N           3.2673  -16.1145  -42.5891 N.am      7 UNK        -0.5000 
     40 C           3.8560  -17.0783  -41.8664 C.2       6 UNK         0.5000 
     41 O           3.8820  -18.2649  -42.1952 O.2       6 UNK        -0.5000 
     42 CA          4.4556  -16.6507  -40.5172 C.3       6 UNK         0.1400 
     43 CB          5.8254  -15.9814  -40.7047 C.3       6 UNK        -0.1800 
     44 N           3.5571  -15.7548  -39.7877 N.am      6 UNK        -0.5000 
     45 C           2.3724  -16.1312  -39.2842 C.2       5 UNK         0.5000 
     46 O           1.9375  -17.2809  -39.3503 O.2       5 UNK        -0.5000 
     47 CA          1.5122  -15.0408  -38.6206 C.3       5 UNK         0.1400 
     48 CB          1.8259  -14.9499  -37.1200 C.3       5 UNK        -0.1800 
     49 N           1.6665  -13.7170  -39.2248 N.am      5 UNK        -0.5000 
     50 C           1.3428  -13.3931  -40.4846 C.2       4 UNK         0.5000 
     51 O           0.8896  -14.2016  -41.2973 O.2       4 UNK        -0.5000 
     52 CA          1.5487  -11.9195  -40.9061 C.3       4 UNK         0.1400 
     53 CB          2.2584  -11.0560  -39.8387 C.3       4 UNK        -0.1800 
     54 N           2.2384  -11.7590  -42.1898 N.am      4 UNK        -0.5000 
     55 C           3.3983  -12.3021  -42.5791 C.2       3 UNK         0.5000 
     56 O           3.9924  -13.1729  -41.9392 O.2       3 UNK        -0.5000 
     57 CA          3.9946  -11.7661  -43.9035 C.3       3 UNK         0.1400 
     58 CB          5.3671  -12.3895  -44.2177 C.3       3 UNK        -0.1800 
     59 N           3.1338  -11.9448  -45.0766 N.am      3 UNK        -0.5000 
     60 C           1.9719  -11.3402  -45.3462 C.2       2 UNK         0.5000 
     61 O           1.4471  -10.5236  -44.5873 O.2       2 UNK        -0.5000 
     62 CA          1.2553  -11.6917  -46.6715 C.3       2 UNK         0.1400 
     63 CB          1.3548  -10.5189  -47.6658 C.3       2 UNK        -0.1800 
     64 N           1.6347  -12.9542  -47.3328 N.am      2 UNK        -0.5000 
     65 C           2.8115  -13.3082  -47.8751 C.2       1 UNK         0.5000 
     66 O           3.8410  -12.6442  -47.7588 O.2       1 UNK        -0.5000 
     67 C          -1.2959  -22.1462  -46.3333 C.2       11 UNK         0.5000 
     68 O          -1.5855  -22.3693  -47.5078 O.2       11 UNK        -0.5000 
     69 N          -1.4785  -23.0221  -45.3331 N.am      12 UNK        -0.5000 
     70 CA         -2.1145  -24.3397  -45.4409 C.3       12 UNK         0.1400 
     71 CB         -1.1899  -25.3266  -46.1852 C.3       12 UNK        -0.1800 
     72 C          -3.5398  -24.2323  -46.0291 C.2       12 UNK         0.5000 
     73 O          -4.4384  -23.7783  -45.3191 O.2       12 UNK        -0.5000 
     74 N          -3.7193  -24.6085  -47.3012 N.am      13 UNK        -0.5000 
     75 CA         -4.9646  -24.4728  -48.0544 C.3       13 UNK         0.1400 
     76 CB         -5.5087  -25.8767  -48.3774 C.3       13 UNK        -0.1800 
     77 C          -4.6982  -23.6318  -49.3143 C.2       13 UNK         0.5000 
     78 O          -4.9432  -24.0994  -50.4268 O.2       13 UNK        -0.5000 
     79 N          -4.1474  -22.4227  -49.1161 N.am      14 UNK        -0.5000 
     80 CA         -3.6186  -21.5120  -50.1428 C.3       14 UNK         0.1400 
     81 CB         -4.7547  -20.9192  -51.0014 C.3       14 UNK        -0.1800 
     82 C          -2.5385  -22.2271  -50.9754 C.2       14 UNK         0.5000 
     83 O          -2.7182  -22.4574  -52.1728 O.2       14 UNK        -0.5000 
     84 N          -1.4976  -22.6833  -50.2653 N.am      15 UNK        -0.5000 
     85 CA         -0.6191  -23.7982  -50.6129 C.3       15 UNK         0.1400 
     86 CB          0.1823  -23.5368  -51.9089 C.3       15 UNK        -0.1800 
     87 C          -1.4685  -25.0833  -50.6161 C.2       15 UNK         0.5000 
     88 O          -1.7943  -25.5854  -49.5388 O.2       15 UNK        -0.5000 
     89 N          -1.8758  -25.5401  -51.8032 N.am      16 UNK        -0.5000 
     90 CA         -2.8632  -26.6027  -51.9918 C.3       16 UNK         0.1400 
     91 CB         -2.1323  -27.9213  -52.3043 C.3       16 UNK        -0.1800 
     92 C          -3.8889  -26.2261  -53.0797 C.2       16 UNK         0.5000 
     93 O          -4.5594  -27.1122  -53.6120 O.2       16 UNK        -0.5000 
     94 N          -3.9839  -24.9322  -53.4204 N.am      17 UNK        -0.5000 
     95 CA         -4.8508  -24.4241  -54.4837 C.3       17 UNK         0.1400 
     96 CB         -4.2879  -23.0810  -54.9629 C.3       17 UNK        -0.1800 
     97 C          -6.3167  -24.2559  -54.0445 C.2       17 UNK         0.5000 
     98 O          -7.2039  -24.2752  -54.8992 O.2       17 UNK        -0.5000 
     99 N          -6.5478  -24.0749  -52.7357 N.am      18 UNK        -0.5000 
    100 CA        -7.8368  -23.8302  -52.0867 C.3       18 UNK         0.1400 
    101 CB        -8.6587  -25.1371  -52.0353 C.3       18 UNK        -0.1800 
    102 C         -8.5760  -22.6338  -52.7229 C.2       18 UNK         0.5000 
    103 O         -8.0679  -21.5117  -52.6697 O.2       18 UNK        -0.5000 
    104 N         -9.7313  -22.8947  -53.3488 N.am      19 UNK        -0.5000 
    105 CA       -10.5748  -21.9171  -54.0399 C.3       19 UNK         0.1400 
    106 CB       -11.8726  -22.6108  -54.4818 C.3       19 UNK        -0.1800 
    107 C         -9.9016  -21.2191  -55.2401 C.2       19 UNK         0.5000 
    108 O        -10.3498  -20.1392  -55.6269 O.2       19 UNK        -0.5000 
    109 N         -8.8374  -21.8178  -55.7974 N.am      20 UNK        -0.5000 
    110 CA        -8.0318  -21.2281  -56.8695 C.3       20 UNK         0.1400 
    111 CB        -7.3431  -22.3428  -57.6731 C.3       20 UNK        -0.1800 
    112 C         -7.0278  -20.1618  -56.3764 C.2       20 UNK         0.5000 
    113 O         -6.3702  -19.5453  -57.2154 O.2       20 UNK        -0.5000 
    114 N         -6.9359  -19.9443  -55.0518 N.am      21 UNK        -0.5000 
    115 CA        -6.2569  -18.8296  -54.3753 C.3       21 UNK         0.1400 
    116 CB        -7.0802  -17.5378  -54.5532 C.3       21 UNK        -0.1800 
    117 C         -4.7834  -18.6584  -54.7987 C.2       21 UNK         0.5000 
    118 O         -4.4079  -17.6318  -55.3677 O.2       21 UNK        -0.5000 
    119 N         -3.9967  -19.7082  -54.5430 N.am      22 UNK        -0.5000 
    120 CA        -2.5830  -19.8817  -54.9267 C.3       22 UNK         0.1400 
    121 C         -2.3538  -20.2018  -56.4357 C.2       22 UNK         0.5000 
    122 N         -3.3741  -20.2493  -57.2850 N.am      22 UNK        -0.7600 
    123 O         -1.2219  -20.4469  -56.8435 O.2       22 UNK        -0.5000 
    124 C124       -1.6342  -18.7465  -54.4428 C.3       23 UNK        -0.0398 
    125 S125       -1.8093  -18.3227  -52.6759 S.3       23 UNK        -0.2404 
    126 C126       -0.3795  -19.1820  -51.9353 C.3       23 UNK        -0.0205 
    127 H127       -1.1289  -14.2372  -50.9402 H         1 UNK         0.0600 
    128 H128       -0.9443  -15.5079  -49.7345 H         1 UNK         0.0600 
    129 H129       -0.3294  -15.7522  -51.3751 H         1 UNK         0.0600 
    130 H130        1.1684  -15.8939  -48.8002 H         1 UNK         0.3000 
    131 H131        3.4975  -14.4256  -49.5446 H         1 UNK         0.0600 
    132 H132        2.9015  -16.0672  -47.0359 H         1 UNK         0.0800 
    133 H133        4.4648  -15.3859  -47.3994 H         1 UNK         0.0800 
    134 H134        2.9625  -18.4635  -47.0943 H         1 UNK         0.0800 
    135 H135        3.3532  -19.4697  -48.4603 H         1 UNK         0.0800 
    136 H136        2.0170  -19.0895  -50.6693 H         1 UNK         0.1150 
    137 H137       -2.1622  -18.4441  -49.9405 H         1 UNK         0.1150 
    138 H138        0.6826  -17.7558  -46.8235 H         1 UNK         0.1150 
    139 H139       -1.6447  -17.1111  -46.5053 H         1 UNK         0.0800 
    140 H140       -2.7078  -17.0521  -47.8870 H         1 UNK         0.0800 
    141 H141       -2.3616  -20.2361  -44.6829 H         1 UNK         0.0800 
    142 H142       -1.2919  -18.9183  -45.0192 H         1 UNK         0.0800 
    143 H143       -0.2576  -20.3986  -46.8992 H         1 UNK         0.0600 
    144 H144        0.4097  -20.2416  -44.2480 H         1 UNK         0.3000 
    145 H145        3.1526  -22.3168  -44.0078 H         1 UNK         0.0600 
    146 H146        4.6589  -20.3592  -44.0785 H         1 UNK         0.0600 
    147 H147        3.4413  -19.4085  -44.9235 H         1 UNK         0.0600 
    148 H148        4.1871  -20.7929  -45.7146 H         1 UNK         0.0600 
    149 H149        2.4986  -19.8167  -42.7349 H         1 UNK         0.3000 
    150 H150        0.3095  -21.2300  -40.2764 H         1 UNK         0.0600 
    151 H151        2.6511  -21.6029  -39.4728 H         1 UNK         0.0600 
    152 H152        1.9635  -20.1319  -38.8008 H         1 UNK         0.0600 
    153 H153        3.1288  -20.0364  -40.1186 H         1 UNK         0.0600 
    154 H154        1.2257  -18.5640  -40.6906 H         1 UNK         0.3000 
    155 H155       -1.4096  -17.5349  -42.9075 H         1 UNK         0.0600 
    156 H156       -2.3123  -17.3086  -40.6252 H         1 UNK         0.0600 
    157 H157       -1.5449  -15.8018  -41.1053 H         1 UNK         0.0600 
    158 H158       -0.7261  -16.8984  -39.9928 H         1 UNK         0.0600 
    159 H159        0.7669  -16.0414  -41.9429 H         1 UNK         0.3000 
    160 H160        3.1442  -16.9493  -44.4862 H         1 UNK         0.0600 
    161 H161        1.6698  -14.3489  -43.8490 H         1 UNK         0.0600 
    162 H162        1.5093  -15.2120  -45.3658 H         1 UNK         0.0600 
    163 H163        3.0799  -14.5819  -44.8906 H         1 UNK         0.0600 
    164 H164        3.2894  -15.1620  -42.2421 H         1 UNK         0.3000 
    165 H165        4.5988  -17.5511  -39.9159 H         1 UNK         0.0600 
    166 H166        6.2743  -15.7273  -39.7445 H         1 UNK         0.0600 
    167 H167        6.5165  -16.6498  -41.2198 H         1 UNK         0.0600 
    168 H168        5.7550  -15.0672  -41.2943 H         1 UNK         0.0600 
    169 H169        3.8206  -14.7808  -39.7393 H         1 UNK         0.3000 
    170 H170        0.4664  -15.3321  -38.7293 H         1 UNK         0.0600 
    171 H171        2.8532  -14.6293  -36.9417 H         1 UNK         0.0600 
    172 H172        1.1616  -14.2453  -36.6193 H         1 UNK         0.0600 
    173 H173        1.6953  -15.9181  -36.6347 H         1 UNK         0.0600 
    174 H174        2.0383  -12.9927  -38.6278 H         1 UNK         0.3000 
    175 H175        0.5476  -11.5107  -41.0484 H         1 UNK         0.0600 
    176 H176        3.2646  -11.4192  -39.6249 H         1 UNK         0.0600 
    177 H177        2.3483  -10.0224  -40.1734 H         1 UNK         0.0600 
    178 H178        1.6990  -11.0339  -38.9026 H         1 UNK         0.0600 
    179 H179        1.7970  -11.1245  -42.8509 H         1 UNK         0.3000 
    180 H180        4.1457  -10.6938  -43.7653 H         1 UNK         0.0600 
    181 H181        5.8071  -11.9459  -45.1111 H         1 UNK         0.0600 
    182 H182        5.2932  -13.4656  -44.3797 H         1 UNK         0.0600 
    183 H183        6.0689  -12.2279  -43.3985 H         1 UNK         0.0600 
    184 H184        3.5126  -12.5214  -45.8184 H         1 UNK         0.3000 
    185 H185        0.2019  -11.8084  -46.4129 H         1 UNK         0.0600 
    186 H186        0.7791  -10.7188  -48.5697 H         1 UNK         0.0600 
    187 H187        0.9629   -9.5996  -47.2286 H         1 UNK         0.0600 
    188 H188        2.3861  -10.3245  -47.9615 H         1 UNK         0.0600 
    189 H189        0.8684  -13.5966  -47.4749 H         1 UNK         0.3000 
    190 H190       -1.2066  -22.7397  -44.4018 H         1 UNK         0.3000 
    191 H191       -2.2352  -24.7128  -44.4229 H         1 UNK         0.0600 
    192 H192       -0.2734  -25.4957  -45.6201 H         1 UNK         0.0600 
    193 H193       -0.8986  -24.9593  -47.1685 H         1 UNK         0.0600 
    194 H194       -1.6696  -26.2970  -46.3189 H         1 UNK         0.0600 
    195 H195       -2.9171  -24.9173  -47.8422 H         1 UNK         0.3000 
    196 H196       -5.7204  -23.9394  -47.4748 H         1 UNK         0.0600 
    197 H197       -5.7223  -26.4340  -47.4654 H         1 UNK         0.0600 
    198 H198       -4.7964  -26.4574  -48.9647 H         1 UNK         0.0600 
    199 H199       -6.4370  -25.8170  -48.9473 H         1 UNK         0.0600 
    200 H200       -3.9109  -22.1735  -48.1653 H         1 UNK         0.3000 
    201 H201       -3.1291  -20.6911  -49.6177 H         1 UNK         0.0600 
    202 H202       -5.5023  -20.4270  -50.3799 H         1 UNK         0.0600 
    203 H203       -5.2631  -21.6788  -51.5953 H         1 UNK         0.0600 
    204 H204       -4.3623  -20.1716  -51.6907 H         1 UNK         0.0600 
    205 H205       -1.5069  -22.4743  -49.2663 H         1 UNK         0.3000 
    206 H206        0.0960  -23.8956  -49.7946 H         1 UNK         0.0600 
    207 H207       -0.4473  -23.4163  -52.7898 H         1 UNK         0.0600 
    208 H208        0.7845  -22.6335  -51.8126 H         1 UNK         0.0600 
    209 H209        0.8680  -24.3607  -52.1091 H         1 UNK         0.0600 
    210 H210       -1.5810  -25.0518  -52.6372 H         1 UNK         0.3000 
    211 H211       -3.4434  -26.7394  -51.0771 H         1 UNK         0.0600 
    212 H212       -1.5694  -27.8551  -53.2359 H         1 UNK         0.0600 
    213 H213       -2.8346  -28.7502  -52.3997 H         1 UNK         0.0600 
    214 H214       -1.4344  -28.1813  -51.5083 H         1 UNK         0.0600 
    215 H215       -3.4679  -24.2354  -52.8921 H         1 UNK         0.3000 
    216 H216       -4.8289  -25.1215  -55.3238 H         1 UNK         0.0600 
    217 H217       -4.8192  -22.7087  -55.8366 H         1 UNK         0.0600 
    218 H218       -3.2357  -23.1639  -55.2358 H         1 UNK         0.0600 
    219 H219       -4.3765  -22.3296  -54.1811 H         1 UNK         0.0600 
    220 H220       -5.7542  -24.0767  -52.0980 H         1 UNK         0.3000 
    221 H221       -7.6164  -23.5374  -51.0594 H         1 UNK         0.0600 
    222 H222       -8.8853  -25.5230  -53.0298 H         1 UNK         0.0600 
    223 H223       -8.1110  -25.9139  -51.5013 H         1 UNK         0.0600 
    224 H224       -9.6014  -24.9917  -51.5062 H         1 UNK         0.0600 
    225 H225      -10.0484  -23.8529  -53.3740 H         1 UNK         0.3000 
    226 H226      -10.8318  -21.1383  -53.3192 H         1 UNK         0.0600 
    227 H227      -12.4082  -23.0283  -53.6290 H         1 UNK         0.0600 
    228 H228      -12.5461  -21.9067  -54.9724 H         1 UNK         0.0600 
    229 H229      -11.6752  -23.4206  -55.1854 H         1 UNK         0.0600 
    230 H230       -8.5117  -22.7020  -55.4203 H         1 UNK         0.3000 
    231 H231       -8.7049  -20.7133  -57.5583 H         1 UNK         0.0600 
    232 H232       -6.7590  -21.9314  -58.4973 H         1 UNK         0.0600 
    233 H233       -8.0771  -23.0222  -58.1064 H         1 UNK         0.0600 
    234 H234       -6.6689  -22.9345  -57.0594 H         1 UNK         0.0600 
    235 H235       -7.4789  -20.5422  -54.4380 H         1 UNK         0.3000 
    236 H236       -6.2507  -19.0698  -53.3108 H         1 UNK         0.0600 
    237 H237       -7.1410  -17.2376  -55.6000 H         1 UNK         0.0600 
    238 H238       -8.0975  -17.6665  -54.1832 H         1 UNK         0.0600 
    239 H239       -6.6349  -16.7106  -53.9991 H         1 UNK         0.0600 
    240 H240       -4.4115  -20.5070  -54.0881 H         1 UNK         0.3000 
    241 H241       -2.2701  -20.7875  -54.4060 H         1 UNK         0.0600 
    242 H242       -4.3112  -19.9924  -57.0014 H         1 UNK         0.3800 
    243 H243       -3.1943  -20.4702  -58.2513 H         1 UNK         0.3800 
    244 H244       -1.8107  -17.8368  -55.0180 H         1 UNK         0.0800 
    245 H245       -0.5951  -19.0156  -54.6380 H         1 UNK         0.0800 
    246 H246        0.5029  -18.9671  -52.5399 H         1 UNK         0.0800 
    247 H247       -0.5398  -20.2591  -51.9868 H         1 UNK         0.0800 
@<TRIPOS>BOND
     1    1    2 1    
     2    1  127 1    
     3    1  128 1    
     4    1  129 1    
     5    2    3 2    
     6    2    4 am   BACKBONE|DICT|INTERRES
     7    4    5 1    
     8    4  130 1    
     9    5    6 1    
    10    5   65 1    
    11    5  131 1    
    12    6    7 1    
    13    6  132 1    
    14    6  133 1    
    15    7    8 1    
    16    8    9 1    
    17    8  134 1    
    18    8  135 1    
    19    9   10 ar   
    20    9   14 ar   
    21   10   11 ar   
    22   10  136 1    
    23   11   12 ar   
    24   11  126 1    
    25   12   13 ar   
    26   12  137 1    
    27   13   14 ar   
    28   13   15 1    
    29   14  138 1    
    30   15   16 1    
    31   15  139 1    
    32   15  140 1    
    33   16   17 1    
    34   17   18 1    
    35   17  141 1    
    36   17  142 1    
    37   18   19 1    
    38   18   67 1    
    39   18  143 1    
    40   19   20 am   BACKBONE|DICT|INTERRES
    41   19  144 1    
    42   20   21 2    
    43   20   22 1    
    44   22   23 1    
    45   22   24 1    
    46   22  145 1    
    47   23  146 1    
    48   23  147 1    
    49   23  148 1    
    50   24   25 am   BACKBONE|DICT|INTERRES
    51   24  149 1    
    52   25   26 2    
    53   25   27 1    
    54   27   28 1    
    55   27   29 1    
    56   27  150 1    
    57   28  151 1    
    58   28  152 1    
    59   28  153 1    
    60   29   30 am   BACKBONE|DICT|INTERRES
    61   29  154 1    
    62   30   31 2    
    63   30   32 1    
    64   32   33 1    
    65   32   34 1    
    66   32  155 1    
    67   33  156 1    
    68   33  157 1    
    69   33  158 1    
    70   34   35 am   BACKBONE|DICT|INTERRES
    71   34  159 1    
    72   35   36 2    
    73   35   37 1    
    74   37   38 1    
    75   37   39 1    
    76   37  160 1    
    77   38  161 1    
    78   38  162 1    
    79   38  163 1    
    80   39   40 am   BACKBONE|DICT|INTERRES
    81   39  164 1    
    82   40   41 2    
    83   40   42 1    
    84   42   43 1    
    85   42   44 1    
    86   42  165 1    
    87   43  166 1    
    88   43  167 1    
    89   43  168 1    
    90   44   45 am   BACKBONE|DICT|INTERRES
    91   44  169 1    
    92   45   46 2    
    93   45   47 1    
    94   47   48 1    
    95   47   49 1    
    96   47  170 1    
    97   48  171 1    
    98   48  172 1    
    99   48  173 1    
   100   49   50 am   BACKBONE|DICT|INTERRES
   101   49  174 1    
   102   50   51 2    
   103   50   52 1    
   104   52   53 1    
   105   52   54 1    
   106   52  175 1    
   107   53  176 1    
   108   53  177 1    
   109   53  178 1    
   110   54   55 am   BACKBONE|DICT|INTERRES
   111   54  179 1    
   112   55   56 2    
   113   55   57 1    
   114   57   58 1    
   115   57   59 1    
   116   57  180 1    
   117   58  181 1    
   118   58  182 1    
   119   58  183 1    
   120   59   60 am   BACKBONE|DICT|INTERRES
   121   59  184 1    
   122   60   61 2    
   123   60   62 1    
   124   62   63 1    
   125   62   64 1    
   126   62  185 1    
   127   63  186 1    
   128   63  187 1    
   129   63  188 1    
   130   64   65 am   BACKBONE|DICT|INTERRES
   131   64  189 1    
   132   65   66 2    
   133   67   68 2    
   134   67   69 am   BACKBONE|DICT|INTERRES
   135   69   70 1    
   136   69  190 1    
   137   70   71 1    
   138   70   72 1    
   139   70  191 1    
   140   71  192 1    
   141   71  193 1    
   142   71  194 1    
   143   72   73 2    
   144   72   74 am   BACKBONE|DICT|INTERRES
   145   74   75 1    
   146   74  195 1    
   147   75   76 1    
   148   75   77 1    
   149   75  196 1    
   150   76  197 1    
   151   76  198 1    
   152   76  199 1    
   153   77   78 2    
   154   77   79 am   BACKBONE|DICT|INTERRES
   155   79   80 1    
   156   79  200 1    
   157   80   81 1    
   158   80   82 1    
   159   80  201 1    
   160   81  202 1    
   161   81  203 1    
   162   81  204 1    
   163   82   83 2    
   164   82   84 am   BACKBONE|DICT|INTERRES
   165   84   85 1    
   166   84  205 1    
   167   85   86 1    
   168   85   87 1    
   169   85  206 1    
   170   86  207 1    
   171   86  208 1    
   172   86  209 1    
   173   87   88 2    
   174   87   89 am   BACKBONE|DICT|INTERRES
   175   89   90 1    
   176   89  210 1    
   177   90   91 1    
   178   90   92 1    
   179   90  211 1    
   180   91  212 1    
   181   91  213 1    
   182   91  214 1    
   183   92   93 2    
   184   92   94 am   BACKBONE|DICT|INTERRES
   185   94   95 1    
   186   94  215 1    
   187   95   96 1    
   188   95   97 1    
   189   95  216 1    
   190   96  217 1    
   191   96  218 1    
   192   96  219 1    
   193   97   98 2    
   194   97   99 am   BACKBONE|DICT|INTERRES
   195   99  100 1    
   196   99  220 1    
   197  100  101 1    
   198  100  102 1    
   199  100  221 1    
   200  101  222 1    
   201  101  223 1    
   202  101  224 1    
   203  102  103 2    
   204  102  104 am   BACKBONE|DICT|INTERRES
   205  104  105 1    
   206  104  225 1    
   207  105  106 1    
   208  105  107 1    
   209  105  226 1    
   210  106  227 1    
   211  106  228 1    
   212  106  229 1    
   213  107  108 2    
   214  107  109 am   BACKBONE|DICT|INTERRES
   215  109  110 1    
   216  109  230 1    
   217  110  111 1    
   218  110  112 1    
   219  110  231 1    
   220  111  232 1    
   221  111  233 1    
   222  111  234 1    
   223  112  113 2    
   224  112  114 am   BACKBONE|DICT|INTERRES
   225  114  115 1    
   226  114  235 1    
   227  115  116 1    
   228  115  117 1    
   229  115  236 1    
   230  116  237 1    
   231  116  238 1    
   232  116  239 1    
   233  117  118 2    
   234  117  119 am   BACKBONE|DICT|INTERRES
   235  119  120 1    
   236  119  240 1    
   237  120  121 1    
   238  120  124 1    
   239  120  241 1    
   240  121  122 am   BACKBONE|DICT|INTERRES
   241  121  123 2    
   242  122  242 1    
   243  122  243 1    
   244  124  125 1    
   245  124  244 1    
   246  124  245 1    
   247  125  126 1    
   248  126  246 1    
   249  126  247 1    
@<TRIPOS>SUBSTRUCTURE
     1 UNK         1 GROUP             0       ****    0 ROOT    
