@<TRIPOS>MOLECULE
3R540
247   249    1
SMALL
USER_CHARGES


@<TRIPOS>ATOM
      1 CA          2.4013  -16.1179  -47.2777 C.3       0 UNK        -0.1800 
      2 C           1.0581  -15.5154  -47.6677 C.2       0 UNK         0.5000 
      3 O           0.0186  -16.1046  -47.3803 O.2       0 UNK        -0.5000 
      4 N           1.0769  -14.3509  -48.3266 N.am      1 UNK        -0.5000 
      5 CA         -0.1254  -13.6230  -48.7623 C.3       1 UNK         0.1400 
      6 C6         -0.3906  -13.7871  -50.2836 C.3       23 UNK        -0.0398 
      7 S7         -0.7617  -15.5118  -50.7571 S.3       23 UNK        -0.2404 
      8 C8          0.8493  -16.0404  -51.4161 C.3       23 UNK        -0.0205 
      9 C9          0.9038  -17.5473  -51.6070 C.ar      23 UNK        -0.0193 
     10 C10         0.2829  -18.1333  -52.7126 C.ar      23 UNK        -0.1150 
     11 C11         0.3550  -19.5130  -52.9153 C.ar      23 UNK        -0.0193 
     12 C12         1.0411  -20.3096  -51.9953 C.ar      23 UNK        -0.1150 
     13 C13         1.6609  -19.7409  -50.8791 C.ar      23 UNK        -0.0193 
     14 C14         1.5924  -18.3545  -50.6949 C.ar      23 UNK        -0.1150 
     15 C15         2.4325  -20.6398  -49.9146 C.3       23 UNK        -0.0205 
     16 S16         2.1656  -20.2610  -48.1502 S.3       23 UNK        -0.2404 
     17 C17         0.3783  -20.5596  -47.9539 C.3       23 UNK        -0.0398 
     18 CA          0.0397  -21.8934  -47.2495 C.3       11 UNK         0.1400 
     19 N           0.5735  -21.9824  -45.8819 N.am      11 UNK        -0.5000 
     20 C           0.5625  -23.1008  -45.1407 C.2       10 UNK         0.5000 
     21 O           0.1219  -24.1759  -45.5463 O.2       10 UNK        -0.5000 
     22 CA          1.0741  -23.0026  -43.6904 C.3       10 UNK         0.1400 
     23 CB          2.6089  -23.0190  -43.6343 C.3       10 UNK        -0.1800 
     24 N           0.5553  -21.8297  -42.9855 N.am      10 UNK        -0.5000 
     25 C          -0.7383  -21.6438  -42.6832 C.2       9 UNK         0.5000 
     26 O          -1.6187  -22.4676  -42.9255 O.2       9 UNK        -0.5000 
     27 CA         -1.1303  -20.2875  -42.0669 C.3       9 UNK         0.1400 
     28 CB         -0.8777  -20.2690  -40.5524 C.3       9 UNK        -0.1800 
     29 N          -0.4365  -19.1672  -42.6999 N.am      9 UNK        -0.5000 
     30 C          -0.5439  -18.8491  -43.9976 C.2       8 UNK         0.5000 
     31 O          -1.2982  -19.4188  -44.7849 O.2       8 UNK        -0.5000 
     32 CA          0.3977  -17.7549  -44.5153 C.3       8 UNK         0.1400 
     33 CB         -0.1808  -16.3622  -44.2366 C.3       8 UNK        -0.1800 
     34 N           1.7397  -17.8616  -43.9428 N.am      8 UNK        -0.5000 
     35 C           2.5813  -18.8742  -44.1932 C.2       7 UNK         0.5000 
     36 O           2.3113  -19.8133  -44.9376 O.2       7 UNK        -0.5000 
     37 CA          3.9251  -18.8634  -43.4435 C.3       7 UNK         0.1400 
     38 CB          4.9180  -17.9120  -44.1281 C.3       7 UNK        -0.1800 
     39 N           3.7709  -18.4812  -42.0401 N.am      7 UNK        -0.5000 
     40 C           3.0956  -19.1954  -41.1272 C.2       6 UNK         0.5000 
     41 O           2.6090  -20.3035  -41.3520 O.2       6 UNK        -0.5000 
     42 CA          2.8785  -18.5286  -39.7527 C.3       6 UNK         0.1400 
     43 CB          4.0272  -18.8781  -38.7954 C.3       6 UNK        -0.1800 
     44 N           2.7422  -17.0692  -39.8387 N.am      6 UNK        -0.5000 
     45 C           1.7678  -16.4413  -40.5113 C.2       5 UNK         0.5000 
     46 O           0.8479  -17.0392  -41.0750 O.2       5 UNK        -0.5000 
     47 CA          1.8996  -14.9103  -40.6366 C.3       5 UNK         0.1400 
     48 CB          3.1165  -14.5441  -41.5046 C.3       5 UNK        -0.1800 
     49 N           0.7185  -14.3062  -41.2489 N.am      5 UNK        -0.5000 
     50 C          -0.4541  -14.0864  -40.6468 C.2       4 UNK         0.5000 
     51 O          -0.6511  -14.2932  -39.4474 O.2       4 UNK        -0.5000 
     52 CA         -1.5797  -13.5171  -41.5428 C.3       4 UNK         0.1400 
     53 CB         -2.8881  -13.2733  -40.7686 C.3       4 UNK        -0.1800 
     54 N          -1.1953  -12.2720  -42.2179 N.am      4 UNK        -0.5000 
     55 C          -0.3900  -12.1763  -43.2832 C.2       3 UNK         0.5000 
     56 O           0.1480  -13.1473  -43.8219 O.2       3 UNK        -0.5000 
     57 CA         -0.1077  -10.7647  -43.8148 C.3       3 UNK         0.1400 
     58 CB          0.8625  -10.0160  -42.8798 C.3       3 UNK        -0.1800 
     59 N           0.4723  -10.8902  -45.1483 N.am      3 UNK        -0.5000 
     60 C           0.6071   -9.9156  -46.0536 C.2       2 UNK         0.5000 
     61 O           0.2243   -8.7584  -45.8759 O.2       2 UNK        -0.5000 
     62 CA          1.2923  -10.2918  -47.3812 C.3       2 UNK         0.1400 
     63 CB          2.8059  -10.0414  -47.2892 C.3       2 UNK        -0.1800 
     64 N           1.0642  -11.6855  -47.7747 N.am      2 UNK        -0.5000 
     65 C          -0.0572  -12.1316  -48.3626 C.2       1 UNK         0.5000 
     66 O          -1.0235  -11.4047  -48.5983 O.2       1 UNK        -0.5000 
     67 C          -1.4847  -22.1379  -47.3078 C.2       11 UNK         0.5000 
     68 O          -1.9683  -22.7079  -48.2884 O.2       11 UNK        -0.5000 
     69 N          -2.2140  -21.7038  -46.2706 N.am      12 UNK        -0.5000 
     70 CA         -3.6444  -21.9484  -46.1012 C.3       12 UNK         0.1400 
     71 CB         -4.2184  -20.9857  -45.0523 C.3       12 UNK        -0.1800 
     72 C          -3.9406  -23.4111  -45.7289 C.2       12 UNK         0.5000 
     73 O          -4.8657  -23.9941  -46.2912 O.2       12 UNK        -0.5000 
     74 N          -3.1357  -23.9971  -44.8296 N.am      13 UNK        -0.5000 
     75 CA         -3.2178  -25.4056  -44.4260 C.3       13 UNK         0.1400 
     76 CB         -2.2886  -25.6578  -43.2294 C.3       13 UNK        -0.1800 
     77 C          -2.8979  -26.3788  -45.5766 C.2       13 UNK         0.5000 
     78 O          -3.5326  -27.4285  -45.6829 O.2       13 UNK        -0.5000 
     79 N          -1.9572  -25.9863  -46.4463 N.am      14 UNK        -0.5000 
     80 CA         -1.6267  -26.6637  -47.7025 C.3       14 UNK         0.1400 
     81 CB         -0.2712  -26.1354  -48.1998 C.3       14 UNK        -0.1800 
     82 C          -2.7009  -26.4892  -48.7987 C.2       14 UNK         0.5000 
     83 O          -2.6024  -27.1363  -49.8411 O.2       14 UNK        -0.5000 
     84 N          -3.6766  -25.5990  -48.5611 N.am      15 UNK        -0.5000 
     85 CA         -4.7934  -25.1885  -49.4195 C.3       15 UNK         0.1400 
     86 CB         -5.6638  -26.3905  -49.8369 C.3       15 UNK        -0.1800 
     87 C          -4.3894  -24.3252  -50.6302 C.2       15 UNK         0.5000 
     88 O          -5.2709  -23.8618  -51.3529 O.2       15 UNK        -0.5000 
     89 N          -3.0865  -24.0891  -50.8206 N.am      16 UNK        -0.5000 
     90 CA         -2.5050  -23.3789  -51.9559 C.3       16 UNK         0.1400 
     91 CB         -0.9771  -23.5276  -51.8962 C.3       16 UNK        -0.1800 
     92 C          -2.9270  -21.9015  -52.0102 C.2       16 UNK         0.5000 
     93 O          -3.3680  -21.4321  -53.0616 O.2       16 UNK        -0.5000 
     94 N          -2.8266  -21.2097  -50.8665 N.am      17 UNK        -0.5000 
     95 CA         -3.2703  -19.8199  -50.7286 C.3       17 UNK         0.1400 
     96 CB         -2.5045  -19.1279  -49.5918 C.3       17 UNK        -0.1800 
     97 C          -4.7891  -19.7079  -50.5072 C.2       17 UNK         0.5000 
     98 O          -5.3706  -18.6822  -50.8596 O.2       17 UNK        -0.5000 
     99 N          -5.4093  -20.7588  -49.9489 N.am      18 UNK        -0.5000 
    100 CA        -6.8507  -20.8250  -49.6927 C.3       18 UNK         0.1400 
    101 CB        -7.1602  -21.9910  -48.7418 C.3       18 UNK        -0.1800 
    102 C         -7.6634  -20.9475  -50.9939 C.2       18 UNK         0.5000 
    103 O         -8.6587  -20.2418  -51.1602 O.2       18 UNK        -0.5000 
    104 N         -7.2016  -21.8139  -51.9066 N.am      19 UNK        -0.5000 
    105 CA        -7.7529  -21.9721  -53.2536 C.3       19 UNK         0.1400 
    106 CB        -7.3352  -23.3460  -53.8015 C.3       19 UNK        -0.1800 
    107 C         -7.2987  -20.8591  -54.2182 C.2       19 UNK         0.5000 
    108 O         -7.9042  -20.7038  -55.2792 O.2       19 UNK        -0.5000 
    109 N         -6.2353  -20.1305  -53.8421 N.am      20 UNK        -0.5000 
    110 CA        -5.5287  -19.1075  -54.6191 C.3       20 UNK         0.1400 
    111 CB        -6.4231  -17.8739  -54.8586 C.3       20 UNK        -0.1800 
    112 C         -4.9310  -19.6939  -55.9139 C.2       20 UNK         0.5000 
    113 O         -5.0514  -19.1027  -56.9896 O.2       20 UNK        -0.5000 
    114 N         -4.2903  -20.8639  -55.7747 N.am      21 UNK        -0.5000 
    115 CA        -3.7373  -21.6788  -56.8618 C.3       21 UNK         0.1400 
    116 CB        -3.2282  -23.0012  -56.2663 C.3       21 UNK        -0.1800 
    117 C         -2.6194  -20.9842  -57.6644 C.2       21 UNK         0.5000 
    118 O         -2.3779  -21.3438  -58.8174 O.2       21 UNK        -0.5000 
    119 N         -1.9728  -19.9995  -57.0346 N.am      22 UNK        -0.5000 
    120 CA        -0.9218  -19.1491  -57.6082 C.3       22 UNK         0.1400 
    121 C         -1.4690  -17.9486  -58.4358 C.2       22 UNK         0.5000 
    122 N         -2.7750  -17.7080  -58.4929 N.am      22 UNK        -0.7600 
    123 O         -0.6912  -17.2227  -59.0488 O.2       22 UNK        -0.5000 
    124 C124        0.0708  -18.6729  -56.5153 C.3       23 UNK        -0.0398 
    125 S125        0.7985  -20.0680  -55.5868 S.3       23 UNK        -0.2404 
    126 C126       -0.2956  -20.1449  -54.1325 C.3       23 UNK        -0.0205 
    127 H127        3.2236  -15.6679  -47.8342 H         1 UNK         0.0600 
    128 H128        2.5833  -15.9692  -46.2134 H         1 UNK         0.0600 
    129 H129        2.4055  -17.1899  -47.4743 H         1 UNK         0.0600 
    130 H130        1.9615  -13.9393  -48.5862 H         1 UNK         0.3000 
    131 H131       -0.9994  -14.0067  -48.2316 H         1 UNK         0.0600 
    132 H132       -1.2506  -13.1877  -50.5877 H         1 UNK         0.0800 
    133 H133        0.4545  -13.4165  -50.8663 H         1 UNK         0.0800 
    134 H134        1.6463  -15.7207  -50.7440 H         1 UNK         0.0800 
    135 H135        1.0317  -15.5407  -52.3687 H         1 UNK         0.0800 
    136 H136       -0.2464  -17.5109  -53.4199 H         1 UNK         0.1150 
    137 H137        1.1073  -21.3754  -52.1597 H         1 UNK         0.1150 
    138 H138        2.0802  -17.9026  -49.8433 H         1 UNK         0.1150 
    139 H139        3.4967  -20.5434  -50.1324 H         1 UNK         0.0800 
    140 H140        2.1788  -21.6881  -50.0801 H         1 UNK         0.0800 
    141 H141       -0.0760  -20.5433  -48.9438 H         1 UNK         0.0800 
    142 H142       -0.0471  -19.7162  -47.4067 H         1 UNK         0.0800 
    143 H143        0.5049  -22.6957  -47.8260 H         1 UNK         0.0600 
    144 H144        1.0116  -21.1451  -45.5062 H         1 UNK         0.3000 
    145 H145        0.7178  -23.8866  -43.1577 H         1 UNK         0.0600 
    146 H146        2.9656  -22.9966  -42.6043 H         1 UNK         0.0600 
    147 H147        3.0037  -23.9246  -44.0964 H         1 UNK         0.0600 
    148 H148        3.0471  -22.1699  -44.1569 H         1 UNK         0.0600 
    149 H149        1.2277  -21.1184  -42.7213 H         1 UNK         0.3000 
    150 H150       -2.2002  -20.1451  -42.2320 H         1 UNK         0.0600 
    151 H151        0.1721  -20.4352  -40.3141 H         1 UNK         0.0600 
    152 H152       -1.4528  -21.0504  -40.0543 H         1 UNK         0.0600 
    153 H153       -1.1737  -19.3157  -40.1140 H         1 UNK         0.0600 
    154 H154        0.1734  -18.6057  -42.1136 H         1 UNK         0.3000 
    155 H155        0.4881  -17.8874  -45.5942 H         1 UNK         0.0600 
    156 H156       -1.1299  -16.2264  -44.7560 H         1 UNK         0.0600 
    157 H157        0.4953  -15.5856  -44.5904 H         1 UNK         0.0600 
    158 H158       -0.3646  -16.1955  -43.1769 H         1 UNK         0.0600 
    159 H159        1.9977  -17.1655  -43.2607 H         1 UNK         0.3000 
    160 H160        4.3368  -19.8744  -43.4785 H         1 UNK         0.0600 
    161 H161        4.5744  -16.8772  -44.0982 H         1 UNK         0.0600 
    162 H162        5.0550  -18.1816  -45.1763 H         1 UNK         0.0600 
    163 H163        5.8975  -17.9548  -43.6516 H         1 UNK         0.0600 
    164 H164        4.1509  -17.5881  -41.7654 H         1 UNK         0.3000 
    165 H165        1.9517  -18.9274  -39.3353 H         1 UNK         0.0600 
    166 H166        3.8443  -18.4794  -37.7974 H         1 UNK         0.0600 
    167 H167        4.9806  -18.4817  -39.1470 H         1 UNK         0.0600 
    168 H168        4.1372  -19.9589  -38.6968 H         1 UNK         0.0600 
    169 H169        3.4667  -16.5223  -39.3960 H         1 UNK         0.3000 
    170 H170        2.0349  -14.4927  -39.6369 H         1 UNK         0.0600 
    171 H171        4.0459  -14.9119  -41.0683 H         1 UNK         0.0600 
    172 H172        3.0353  -14.9608  -42.5095 H         1 UNK         0.0600 
    173 H173        3.2165  -13.4628  -41.6019 H         1 UNK         0.0600 
    174 H174        0.7720  -14.0990  -42.2413 H         1 UNK         0.3000 
    175 H175       -1.7879  -14.2715  -42.3044 H         1 UNK         0.0600 
    176 H176       -2.7606  -12.5224  -39.9879 H         1 UNK         0.0600 
    177 H177       -3.6826  -12.9344  -41.4339 H         1 UNK         0.0600 
    178 H178       -3.2377  -14.1896  -40.2910 H         1 UNK         0.0600 
    179 H179       -1.5610  -11.4226  -41.8121 H         1 UNK         0.3000 
    180 H180       -1.0536  -10.2235  -43.8844 H         1 UNK         0.0600 
    181 H181        1.8212  -10.5309  -42.8037 H         1 UNK         0.0600 
    182 H182        0.4543   -9.9319  -41.8719 H         1 UNK         0.0600 
    183 H183        1.0553   -9.0025  -43.2314 H         1 UNK         0.0600 
    184 H184        0.7657  -11.8325  -45.3744 H         1 UNK         0.3000 
    185 H185        0.8908   -9.6366  -48.1577 H         1 UNK         0.0600 
    186 H186        3.2968  -10.2348  -48.2433 H         1 UNK         0.0600 
    187 H187        3.0144   -9.0044  -47.0226 H         1 UNK         0.0600 
    188 H188        3.2749  -10.6744  -46.5346 H         1 UNK         0.0600 
    189 H189        1.8024  -12.3400  -47.5671 H         1 UNK         0.3000 
    190 H190       -1.7592  -21.1503  -45.5500 H         1 UNK         0.3000 
    191 H191       -4.1391  -21.7393  -47.0521 H         1 UNK         0.0600 
    192 H192       -5.2912  -21.1381  -44.9281 H         1 UNK         0.0600 
    193 H193       -4.0692  -19.9474  -45.3493 H         1 UNK         0.0600 
    194 H194       -3.7505  -21.1242  -44.0774 H         1 UNK         0.0600 
    195 H195       -2.4323  -23.4344  -44.3583 H         1 UNK         0.3000 
    196 H196       -4.2433  -25.6003  -44.1056 H         1 UNK         0.0600 
    197 H197       -1.2481  -25.4465  -43.4765 H         1 UNK         0.0600 
    198 H198       -2.5642  -25.0347  -42.3785 H         1 UNK         0.0600 
    199 H199       -2.3447  -26.6968  -42.9025 H         1 UNK         0.0600 
    200 H200       -1.4179  -25.1528  -46.2279 H         1 UNK         0.3000 
    201 H201       -1.5295  -27.7330  -47.5046 H         1 UNK         0.0600 
    202 H202       -0.3118  -25.0672  -48.4155 H         1 UNK         0.0600 
    203 H203        0.0396  -26.6438  -49.1134 H         1 UNK         0.0600 
    204 H204        0.5111  -26.2967  -47.4578 H         1 UNK         0.0600 
    205 H205       -3.6543  -25.1229  -47.6677 H         1 UNK         0.3000 
    206 H206       -5.4131  -24.5485  -48.7935 H         1 UNK         0.0600 
    207 H207       -5.9610  -26.9821  -48.9708 H         1 UNK         0.0600 
    208 H208       -6.5777  -26.0557  -50.3292 H         1 UNK         0.0600 
    209 H209       -5.1447  -27.0488  -50.5340 H         1 UNK         0.0600 
    210 H210       -2.4417  -24.4485  -50.1321 H         1 UNK         0.3000 
    211 H211       -2.8616  -23.8622  -52.8679 H         1 UNK         0.0600 
    212 H212       -0.5088  -23.1302  -52.7949 H         1 UNK         0.0600 
    213 H213       -0.6871  -24.5763  -51.8269 H         1 UNK         0.0600 
    214 H214       -0.5509  -23.0081  -51.0367 H         1 UNK         0.0600 
    215 H215       -2.4830  -21.6822  -50.0372 H         1 UNK         0.3000 
    216 H216       -3.0384  -19.2808  -51.6504 H         1 UNK         0.0600 
    217 H217       -2.5823  -19.6756  -48.6527 H         1 UNK         0.0600 
    218 H218       -2.8883  -18.1220  -49.4159 H         1 UNK         0.0600 
    219 H219       -1.4513  -19.0158  -49.8474 H         1 UNK         0.0600 
    220 H220       -4.8623  -21.5747  -49.7212 H         1 UNK         0.3000 
    221 H221       -7.1470  -19.8987  -49.1956 H         1 UNK         0.0600 
    222 H222       -6.5559  -21.9428  -47.8360 H         1 UNK         0.0600 
    223 H223       -6.9861  -22.9553  -49.2170 H         1 UNK         0.0600 
    224 H224       -8.2065  -21.9690  -48.4349 H         1 UNK         0.0600 
    225 H225       -6.4095  -22.4100  -51.6761 H         1 UNK         0.3000 
    226 H226       -8.8429  -21.9418  -53.1968 H         1 UNK         0.0600 
    227 H227       -6.2525  -23.4216  -53.9113 H         1 UNK         0.0600 
    228 H228       -7.6613  -24.1503  -53.1417 H         1 UNK         0.0600 
    229 H229       -7.7778  -23.5283  -54.7815 H         1 UNK         0.0600 
    230 H230       -5.8154  -20.3652  -52.9544 H         1 UNK         0.3000 
    231 H231       -4.6835  -18.7880  -54.0076 H         1 UNK         0.0600 
    232 H232       -6.8187  -17.4880  -53.9188 H         1 UNK         0.0600 
    233 H233       -7.2670  -18.1014  -55.5103 H         1 UNK         0.0600 
    234 H234       -5.8570  -17.0683  -55.3278 H         1 UNK         0.0600 
    235 H235       -4.1750  -21.2324  -54.8345 H         1 UNK         0.3000 
    236 H236       -4.5496  -21.9009  -57.5566 H         1 UNK         0.0600 
    237 H237       -4.0283  -23.5391  -55.7572 H         1 UNK         0.0600 
    238 H238       -2.8387  -23.6582  -57.0452 H         1 UNK         0.0600 
    239 H239       -2.4265  -22.8332  -55.5455 H         1 UNK         0.0600 
    240 H240       -2.2633  -19.7777  -56.0957 H         1 UNK         0.3000 
    241 H241       -0.3535  -19.7557  -58.3157 H         1 UNK         0.0600 
    242 H242       -3.1081  -16.9292  -59.0387 H         1 UNK         0.3800 
    243 H243       -3.4427  -18.2932  -58.0036 H         1 UNK         0.3800 
    244 H244       -0.4127  -17.9799  -55.8258 H         1 UNK         0.0800 
    245 H245        0.8940  -18.1189  -56.9695 H         1 UNK         0.0800 
    246 H246       -0.5283  -21.1899  -53.9369 H         1 UNK         0.0800 
    247 H247       -1.2536  -19.6640  -54.3302 H         1 UNK         0.0800 
@<TRIPOS>BOND
     1    1    2 1    
     2    1  127 1    
     3    1  128 1    
     4    1  129 1    
     5    2    3 2    
     6    2    4 am   BACKBONE|DICT|INTERRES
     7    4    5 1    
     8    4  130 1    
     9    5    6 1    
    10    5   65 1    
    11    5  131 1    
    12    6    7 1    
    13    6  132 1    
    14    6  133 1    
    15    7    8 1    
    16    8    9 1    
    17    8  134 1    
    18    8  135 1    
    19    9   10 ar   
    20    9   14 ar   
    21   10   11 ar   
    22   10  136 1    
    23   11   12 ar   
    24   11  126 1    
    25   12   13 ar   
    26   12  137 1    
    27   13   14 ar   
    28   13   15 1    
    29   14  138 1    
    30   15   16 1    
    31   15  139 1    
    32   15  140 1    
    33   16   17 1    
    34   17   18 1    
    35   17  141 1    
    36   17  142 1    
    37   18   19 1    
    38   18   67 1    
    39   18  143 1    
    40   19   20 am   BACKBONE|DICT|INTERRES
    41   19  144 1    
    42   20   21 2    
    43   20   22 1    
    44   22   23 1    
    45   22   24 1    
    46   22  145 1    
    47   23  146 1    
    48   23  147 1    
    49   23  148 1    
    50   24   25 am   BACKBONE|DICT|INTERRES
    51   24  149 1    
    52   25   26 2    
    53   25   27 1    
    54   27   28 1    
    55   27   29 1    
    56   27  150 1    
    57   28  151 1    
    58   28  152 1    
    59   28  153 1    
    60   29   30 am   BACKBONE|DICT|INTERRES
    61   29  154 1    
    62   30   31 2    
    63   30   32 1    
    64   32   33 1    
    65   32   34 1    
    66   32  155 1    
    67   33  156 1    
    68   33  157 1    
    69   33  158 1    
    70   34   35 am   BACKBONE|DICT|INTERRES
    71   34  159 1    
    72   35   36 2    
    73   35   37 1    
    74   37   38 1    
    75   37   39 1    
    76   37  160 1    
    77   38  161 1    
    78   38  162 1    
    79   38  163 1    
    80   39   40 am   BACKBONE|DICT|INTERRES
    81   39  164 1    
    82   40   41 2    
    83   40   42 1    
    84   42   43 1    
    85   42   44 1    
    86   42  165 1    
    87   43  166 1    
    88   43  167 1    
    89   43  168 1    
    90   44   45 am   BACKBONE|DICT|INTERRES
    91   44  169 1    
    92   45   46 2    
    93   45   47 1    
    94   47   48 1    
    95   47   49 1    
    96   47  170 1    
    97   48  171 1    
    98   48  172 1    
    99   48  173 1    
   100   49   50 am   BACKBONE|DICT|INTERRES
   101   49  174 1    
   102   50   51 2    
   103   50   52 1    
   104   52   53 1    
   105   52   54 1    
   106   52  175 1    
   107   53  176 1    
   108   53  177 1    
   109   53  178 1    
   110   54   55 am   BACKBONE|DICT|INTERRES
   111   54  179 1    
   112   55   56 2    
   113   55   57 1    
   114   57   58 1    
   115   57   59 1    
   116   57  180 1    
   117   58  181 1    
   118   58  182 1    
   119   58  183 1    
   120   59   60 am   BACKBONE|DICT|INTERRES
   121   59  184 1    
   122   60   61 2    
   123   60   62 1    
   124   62   63 1    
   125   62   64 1    
   126   62  185 1    
   127   63  186 1    
   128   63  187 1    
   129   63  188 1    
   130   64   65 am   BACKBONE|DICT|INTERRES
   131   64  189 1    
   132   65   66 2    
   133   67   68 2    
   134   67   69 am   BACKBONE|DICT|INTERRES
   135   69   70 1    
   136   69  190 1    
   137   70   71 1    
   138   70   72 1    
   139   70  191 1    
   140   71  192 1    
   141   71  193 1    
   142   71  194 1    
   143   72   73 2    
   144   72   74 am   BACKBONE|DICT|INTERRES
   145   74   75 1    
   146   74  195 1    
   147   75   76 1    
   148   75   77 1    
   149   75  196 1    
   150   76  197 1    
   151   76  198 1    
   152   76  199 1    
   153   77   78 2    
   154   77   79 am   BACKBONE|DICT|INTERRES
   155   79   80 1    
   156   79  200 1    
   157   80   81 1    
   158   80   82 1    
   159   80  201 1    
   160   81  202 1    
   161   81  203 1    
   162   81  204 1    
   163   82   83 2    
   164   82   84 am   BACKBONE|DICT|INTERRES
   165   84   85 1    
   166   84  205 1    
   167   85   86 1    
   168   85   87 1    
   169   85  206 1    
   170   86  207 1    
   171   86  208 1    
   172   86  209 1    
   173   87   88 2    
   174   87   89 am   BACKBONE|DICT|INTERRES
   175   89   90 1    
   176   89  210 1    
   177   90   91 1    
   178   90   92 1    
   179   90  211 1    
   180   91  212 1    
   181   91  213 1    
   182   91  214 1    
   183   92   93 2    
   184   92   94 am   BACKBONE|DICT|INTERRES
   185   94   95 1    
   186   94  215 1    
   187   95   96 1    
   188   95   97 1    
   189   95  216 1    
   190   96  217 1    
   191   96  218 1    
   192   96  219 1    
   193   97   98 2    
   194   97   99 am   BACKBONE|DICT|INTERRES
   195   99  100 1    
   196   99  220 1    
   197  100  101 1    
   198  100  102 1    
   199  100  221 1    
   200  101  222 1    
   201  101  223 1    
   202  101  224 1    
   203  102  103 2    
   204  102  104 am   BACKBONE|DICT|INTERRES
   205  104  105 1    
   206  104  225 1    
   207  105  106 1    
   208  105  107 1    
   209  105  226 1    
   210  106  227 1    
   211  106  228 1    
   212  106  229 1    
   213  107  108 2    
   214  107  109 am   BACKBONE|DICT|INTERRES
   215  109  110 1    
   216  109  230 1    
   217  110  111 1    
   218  110  112 1    
   219  110  231 1    
   220  111  232 1    
   221  111  233 1    
   222  111  234 1    
   223  112  113 2    
   224  112  114 am   BACKBONE|DICT|INTERRES
   225  114  115 1    
   226  114  235 1    
   227  115  116 1    
   228  115  117 1    
   229  115  236 1    
   230  116  237 1    
   231  116  238 1    
   232  116  239 1    
   233  117  118 2    
   234  117  119 am   BACKBONE|DICT|INTERRES
   235  119  120 1    
   236  119  240 1    
   237  120  121 1    
   238  120  124 1    
   239  120  241 1    
   240  121  122 am   BACKBONE|DICT|INTERRES
   241  121  123 2    
   242  122  242 1    
   243  122  243 1    
   244  124  125 1    
   245  124  244 1    
   246  124  245 1    
   247  125  126 1    
   248  126  246 1    
   249  126  247 1    
@<TRIPOS>SUBSTRUCTURE
     1 UNK         1 GROUP             0       ****    0 ROOT    
