@<TRIPOS>MOLECULE
3R540
247   249    1
SMALL
USER_CHARGES


@<TRIPOS>ATOM
      1 CA          5.3189  -12.1533  -49.4189 C.3       0 UNK        -0.1800 
      2 C           3.9190  -12.5022  -48.9371 C.2       0 UNK         0.5000 
      3 O           3.2414  -11.6543  -48.3562 O.2       0 UNK        -0.5000 
      4 N           3.4695  -13.7381  -49.1915 N.am      1 UNK        -0.5000 
      5 CA          2.1665  -14.2666  -48.7576 C.3       1 UNK         0.1400 
      6 C6          2.0114  -15.7850  -49.0170 C.3       23 UNK        -0.0398 
      7 S7          3.4379  -16.7595  -48.4242 S.3       23 UNK        -0.2404 
      8 C8          3.5164  -18.0763  -49.6784 C.3       23 UNK        -0.0205 
      9 C9          2.6938  -19.2886  -49.2706 C.ar      23 UNK        -0.0193 
     10 C10         1.2991  -19.2798  -49.3773 C.ar      23 UNK        -0.1150 
     11 C11         0.5490  -20.3977  -48.9944 C.ar      23 UNK        -0.0193 
     12 C12         1.2105  -21.5420  -48.5405 C.ar      23 UNK        -0.1150 
     13 C13         2.6049  -21.5672  -48.4431 C.ar      23 UNK        -0.0193 
     14 C14         3.3383  -20.4341  -48.7984 C.ar      23 UNK        -0.1150 
     15 C15         3.3316  -22.8273  -48.0005 C.3       23 UNK        -0.0205 
     16 S16         3.8505  -22.7712  -46.2552 S.3       23 UNK        -0.2404 
     17 C17         2.2665  -22.7952  -45.3511 C.3       23 UNK        -0.0398 
     18 CA          1.6469  -24.2177  -45.2420 C.3       11 UNK         0.1400 
     19 N           1.2241  -24.5312  -43.8763 N.am      11 UNK        -0.5000 
     20 C           1.0703  -25.7682  -43.3834 C.2       10 UNK         0.5000 
     21 O           1.3336  -26.7926  -44.0133 O.2       10 UNK        -0.5000 
     22 CA          0.5154  -25.8800  -41.9490 C.3       10 UNK         0.1400 
     23 CB          1.6650  -25.9447  -40.9321 C.3       10 UNK        -0.1800 
     24 N          -0.3688  -24.7666  -41.5996 N.am      10 UNK        -0.5000 
     25 C          -1.5939  -24.5817  -42.1110 C.2       9 UNK         0.5000 
     26 O          -2.1508  -25.3887  -42.8544 O.2       9 UNK        -0.5000 
     27 CA         -2.2970  -23.2530  -41.7683 C.3       9 UNK         0.1400 
     28 CB         -3.2250  -23.4319  -40.5577 C.3       9 UNK        -0.1800 
     29 N          -1.3751  -22.1409  -41.5078 N.am      9 UNK        -0.5000 
     30 C          -0.5149  -21.6293  -42.3983 C.2       8 UNK         0.5000 
     31 O          -0.3627  -22.0780  -43.5370 O.2       8 UNK        -0.5000 
     32 CA          0.3650  -20.4636  -41.9070 C.3       8 UNK         0.1400 
     33 CB          1.6740  -21.0073  -41.3136 C.3       8 UNK        -0.1800 
     34 N           0.6875  -19.4970  -42.9602 N.am      8 UNK        -0.5000 
     35 C          -0.2177  -18.7845  -43.6407 C.2       7 UNK         0.5000 
     36 O          -1.4375  -18.8745  -43.4566 O.2       7 UNK        -0.5000 
     37 CA          0.3173  -17.8042  -44.6986 C.3       7 UNK         0.1400 
     38 CB          1.0084  -18.5433  -45.8567 C.3       7 UNK        -0.1800 
     39 N          -0.8334  -17.0487  -45.1772 N.am      7 UNK        -0.5000 
     40 C          -0.8526  -15.8130  -45.6779 C.2       6 UNK         0.5000 
     41 O           0.1543  -15.1631  -45.9683 O.2       6 UNK        -0.5000 
     42 CA         -2.2525  -15.1900  -45.8128 C.3       6 UNK         0.1400 
     43 CB         -2.8529  -14.9409  -44.4099 C.3       6 UNK        -0.1800 
     44 N          -2.1643  -13.9451  -46.5706 N.am      6 UNK        -0.5000 
     45 C          -3.1807  -13.1525  -46.9355 C.2       5 UNK         0.5000 
     46 O          -4.3632  -13.4060  -46.7030 O.2       5 UNK        -0.5000 
     47 CA         -2.8141  -11.8615  -47.6977 C.3       5 UNK         0.1400 
     48 CB         -3.8947  -10.7647  -47.5981 C.3       5 UNK        -0.1800 
     49 N          -1.4963  -11.3363  -47.3339 N.am      5 UNK        -0.5000 
     50 C          -1.0823  -10.8573  -46.1520 C.2       4 UNK         0.5000 
     51 O          -1.8028  -10.7315  -45.1616 O.2       4 UNK        -0.5000 
     52 CA          0.4050  -10.4568  -46.0649 C.3       4 UNK         0.1400 
     53 CB          1.2288  -11.6023  -45.4574 C.3       4 UNK        -0.1800 
     54 N           0.9775  -10.1025  -47.3663 N.am      4 UNK        -0.5000 
     55 C           0.6676   -8.9996  -48.0632 C.2       3 UNK         0.5000 
     56 O          -0.0620   -8.1024  -47.6400 O.2       3 UNK        -0.5000 
     57 CA          1.2364   -8.9091  -49.4893 C.3       3 UNK         0.1400 
     58 CB          2.6810   -8.3851  -49.4770 C.3       3 UNK        -0.1800 
     59 N           1.1868  -10.2057  -50.1678 N.am      3 UNK        -0.5000 
     60 C           0.0801  -10.7341  -50.7109 C.2       2 UNK         0.5000 
     61 O          -1.0086  -10.1607  -50.7367 O.2       2 UNK        -0.5000 
     62 CA          0.2008  -12.1476  -51.3124 C.3       2 UNK         0.1400 
     63 CB          0.5897  -12.0700  -52.7963 C.3       2 UNK        -0.1800 
     64 N           1.1716  -12.9833  -50.6055 N.am      2 UNK        -0.5000 
     65 C           0.9811  -13.5036  -49.3844 C.2       1 UNK         0.5000 
     66 O          -0.0628  -13.3758  -48.7489 O.2       1 UNK        -0.5000 
     67 C           0.4705  -24.3862  -46.2226 C.2       11 UNK         0.5000 
     68 O           0.6738  -24.8757  -47.3306 O.2       11 UNK        -0.5000 
     69 N          -0.7383  -23.9966  -45.7891 N.am      12 UNK        -0.5000 
     70 CA         -1.9848  -23.9287  -46.5640 C.3       12 UNK         0.1400 
     71 CB         -3.0923  -23.3759  -45.6546 C.3       12 UNK        -0.1800 
     72 C          -2.4541  -25.2327  -47.2468 C.2       12 UNK         0.5000 
     73 O          -3.3734  -25.1816  -48.0631 O.2       12 UNK        -0.5000 
     74 N          -1.8251  -26.3713  -46.9293 N.am      13 UNK        -0.5000 
     75 CA         -1.9592  -27.6272  -47.6693 C.3       13 UNK         0.1400 
     76 CB         -1.3084  -28.7523  -46.8502 C.3       13 UNK        -0.1800 
     77 C          -1.3435  -27.5628  -49.0864 C.2       13 UNK         0.5000 
     78 O          -1.7570  -28.3294  -49.9575 O.2       13 UNK        -0.5000 
     79 N          -0.3764  -26.6596  -49.2894 N.am      14 UNK        -0.5000 
     80 CA          0.2795  -26.3607  -50.5586 C.3       14 UNK         0.1400 
     81 CB          1.8001  -26.4548  -50.3427 C.3       14 UNK        -0.1800 
     82 C          -0.1154  -24.9529  -51.0450 C.2       14 UNK         0.5000 
     83 O          -0.7670  -24.2030  -50.3138 O.2       14 UNK        -0.5000 
     84 N           0.3079  -24.6261  -52.2771 N.am      15 UNK        -0.5000 
     85 CA          0.0825  -23.3610  -52.9892 C.3       15 UNK         0.1400 
     86 CB          0.8005  -22.1931  -52.2819 C.3       15 UNK        -0.1800 
     87 C          -1.4173  -23.0937  -53.2199 C.2       15 UNK         0.5000 
     88 O          -1.9486  -22.0805  -52.7644 O.2       15 UNK        -0.5000 
     89 N          -2.0708  -24.0332  -53.9195 N.am      16 UNK        -0.5000 
     90 CA         -3.5205  -24.1365  -54.1369 C.3       16 UNK         0.1400 
     91 CB         -3.7914  -25.2854  -55.1202 C.3       16 UNK        -0.1800 
     92 C          -4.2394  -22.8548  -54.6087 C.2       16 UNK         0.5000 
     93 O          -5.4052  -22.6591  -54.2652 O.2       16 UNK        -0.5000 
     94 N          -3.5371  -22.0003  -55.3645 N.am      17 UNK        -0.5000 
     95 CA         -4.0337  -20.7058  -55.8365 C.3       17 UNK         0.1400 
     96 CB         -3.0845  -20.1746  -56.9216 C.3       17 UNK        -0.1800 
     97 C          -4.2048  -19.6599  -54.7145 C.2       17 UNK         0.5000 
     98 O          -5.0619  -18.7841  -54.8379 O.2       17 UNK        -0.5000 
     99 N          -3.3936  -19.7632  -53.6536 N.am      18 UNK        -0.5000 
    100 CA        -3.4027  -18.8696  -52.4932 C.3       18 UNK         0.1400 
    101 CB        -1.9678  -18.3799  -52.2384 C.3       18 UNK        -0.1800 
    102 C         -3.9835  -19.5464  -51.2377 C.2       18 UNK         0.5000 
    103 O         -4.3535  -18.8449  -50.2968 O.2       18 UNK        -0.5000 
    104 N         -4.0783  -20.8842  -51.2408 N.am      19 UNK        -0.5000 
    105 CA        -4.5248  -21.7456  -50.1396 C.3       19 UNK         0.1400 
    106 CB        -4.5345  -23.2014  -50.6226 C.3       19 UNK        -0.1800 
    107 C         -5.8905  -21.3925  -49.5184 C.2       19 UNK         0.5000 
    108 O         -6.1199  -21.7158  -48.3544 O.2       19 UNK        -0.5000 
    109 N         -6.7628  -20.7293  -50.2889 N.am      20 UNK        -0.5000 
    110 CA        -8.0453  -20.1982  -49.8265 C.3       20 UNK         0.1400 
    111 CB        -8.8796  -19.7827  -51.0478 C.3       20 UNK        -0.1800 
    112 C         -7.9000  -19.0160  -48.8446 C.2       20 UNK         0.5000 
    113 O         -8.7803  -18.8231  -48.0049 O.2       20 UNK        -0.5000 
    114 N         -6.8092  -18.2472  -48.9675 N.am      21 UNK        -0.5000 
    115 CA        -6.4757  -17.1275  -48.0877 C.3       21 UNK         0.1400 
    116 CB        -5.7822  -16.0310  -48.9115 C.3       21 UNK        -0.1800 
    117 C         -5.5783  -17.5751  -46.9208 C.2       21 UNK         0.5000 
    118 O         -5.7103  -17.0429  -45.8182 O.2       21 UNK        -0.5000 
    119 N         -4.6814  -18.5348  -47.1819 N.am      22 UNK        -0.5000 
    120 CA        -3.7713  -19.1328  -46.1921 C.3       22 UNK         0.1400 
    121 C         -4.5043  -19.9434  -45.0831 C.2       22 UNK         0.5000 
    122 N         -3.9034  -20.0819  -43.9095 N.am      22 UNK        -0.7600 
    123 O         -5.5957  -20.4722  -45.2764 O.2       22 UNK        -0.5000 
    124 C124       -2.6644  -19.9855  -46.8664 C.3       23 UNK        -0.0398 
    125 S125       -1.7421  -19.0591  -48.1422 S.3       23 UNK        -0.2404 
    126 C126       -0.9685  -20.3911  -49.1197 C.3       23 UNK        -0.0205 
    127 H127        5.9470  -11.8768  -48.5722 H         1 UNK         0.0600 
    128 H128        5.2785  -11.3075  -50.1053 H         1 UNK         0.0600 
    129 H129        5.7904  -12.9900  -49.9349 H         1 UNK         0.0600 
    130 H130        4.0744  -14.4020  -49.6539 H         1 UNK         0.3000 
    131 H131        2.1090  -14.1119  -47.6783 H         1 UNK         0.0600 
    132 H132        1.1149  -16.1612  -48.5201 H         1 UNK         0.0800 
    133 H133        1.8686  -15.9692  -50.0829 H         1 UNK         0.0800 
    134 H134        3.1898  -17.7131  -50.6532 H         1 UNK         0.0800 
    135 H135        4.5621  -18.3605  -49.8060 H         1 UNK         0.0800 
    136 H136        0.7929  -18.4003  -49.7482 H         1 UNK         0.1150 
    137 H137        0.6379  -22.4215  -48.2877 H         1 UNK         0.1150 
    138 H138        4.4163  -20.4524  -48.7204 H         1 UNK         0.1150 
    139 H139        2.7233  -23.7104  -48.1855 H         1 UNK         0.0800 
    140 H140        4.2223  -22.9569  -48.6169 H         1 UNK         0.0800 
    141 H141        1.5797  -22.0607  -45.7764 H         1 UNK         0.0800 
    142 H142        2.4931  -22.4090  -44.3570 H         1 UNK         0.0800 
    143 H143        2.4040  -24.9537  -45.5220 H         1 UNK         0.0600 
    144 H144        0.9138  -23.7451  -43.3211 H         1 UNK         0.3000 
    145 H145       -0.0545  -26.8093  -41.8830 H         1 UNK         0.0600 
    146 H146        1.2881  -26.0883  -39.9193 H         1 UNK         0.0600 
    147 H147        2.3325  -26.7793  -41.1505 H         1 UNK         0.0600 
    148 H148        2.2646  -25.0335  -40.9422 H         1 UNK         0.0600 
    149 H149        0.0033  -24.0645  -40.9775 H         1 UNK         0.3000 
    150 H150       -2.9103  -22.9776  -42.6283 H         1 UNK         0.0600 
    151 H151       -2.6658  -23.6799  -39.6548 H         1 UNK         0.0600 
    152 H152       -3.9426  -24.2351  -40.7308 H         1 UNK         0.0600 
    153 H153       -3.7970  -22.5249  -40.3613 H         1 UNK         0.0600 
    154 H154       -1.4287  -21.7264  -40.5884 H         1 UNK         0.3000 
    155 H155       -0.1770  -19.9287  -41.1244 H         1 UNK         0.0600 
    156 H156        2.2707  -21.5299  -42.0619 H         1 UNK         0.0600 
    157 H157        1.4775  -21.7093  -40.5022 H         1 UNK         0.0600 
    158 H158        2.2839  -20.2030  -40.9016 H         1 UNK         0.0600 
    159 H159        1.6651  -19.3886  -43.1850 H         1 UNK         0.3000 
    160 H160        1.0208  -17.1195  -44.2210 H         1 UNK         0.0600 
    161 H161        1.1831  -17.8821  -46.7042 H         1 UNK         0.0600 
    162 H162        0.4164  -19.3876  -46.2082 H         1 UNK         0.0600 
    163 H163        1.9775  -18.9371  -45.5498 H         1 UNK         0.0600 
    164 H164       -1.7050  -17.4741  -44.8902 H         1 UNK         0.3000 
    165 H165       -2.8854  -15.8850  -46.3681 H         1 UNK         0.0600 
    166 H166       -3.8877  -14.6049  -44.4644 H         1 UNK         0.0600 
    167 H167       -2.2849  -14.1878  -43.8623 H         1 UNK         0.0600 
    168 H168       -2.8589  -15.8501  -43.8074 H         1 UNK         0.0600 
    169 H169       -1.2223  -13.7007  -46.8614 H         1 UNK         0.3000 
    170 H170       -2.7379  -12.1482  -48.7475 H         1 UNK         0.0600 
    171 H171       -4.8395  -11.1076  -48.0211 H         1 UNK         0.0600 
    172 H172       -4.0860  -10.4759  -46.5644 H         1 UNK         0.0600 
    173 H173       -3.5995   -9.8711  -48.1484 H         1 UNK         0.0600 
    174 H174       -0.7862  -11.4730  -48.0413 H         1 UNK         0.3000 
    175 H175        0.4805   -9.5890  -45.4065 H         1 UNK         0.0600 
    176 H176        2.2757  -11.3202  -45.3446 H         1 UNK         0.0600 
    177 H177        0.8545  -11.8733  -44.4694 H         1 UNK         0.0600 
    178 H178        1.1887  -12.4973  -46.0790 H         1 UNK         0.0600 
    179 H179        1.6500  -10.7536  -47.7630 H         1 UNK         0.3000 
    180 H180        0.6268   -8.1965  -50.0494 H         1 UNK         0.0600 
    181 H181        3.3498   -9.0437  -48.9226 H         1 UNK         0.0600 
    182 H182        2.7323   -7.4005  -49.0106 H         1 UNK         0.0600 
    183 H183        3.0723   -8.2855  -50.4895 H         1 UNK         0.0600 
    184 H184        2.0278  -10.7641  -50.1331 H         1 UNK         0.3000 
    185 H185       -0.7798  -12.6236  -51.2415 H         1 UNK         0.0600 
    186 H186        0.6103  -13.0608  -53.2507 H         1 UNK         0.0600 
    187 H187       -0.1292  -11.4713  -53.3572 H         1 UNK         0.0600 
    188 H188        1.5723  -11.6165  -52.9330 H         1 UNK         0.0600 
    189 H189        2.0617  -13.1330  -51.0581 H         1 UNK         0.3000 
    190 H190       -0.7772  -23.5728  -44.8688 H         1 UNK         0.3000 
    191 H191       -1.8116  -23.2080  -47.3644 H         1 UNK         0.0600 
    192 H192       -3.3830  -24.1008  -44.8943 H         1 UNK         0.0600 
    193 H193       -3.9865  -23.1302  -46.2295 H         1 UNK         0.0600 
    194 H194       -2.7729  -22.4681  -45.1444 H         1 UNK         0.0600 
    195 H195       -1.0815  -26.3237  -46.2483 H         1 UNK         0.3000 
    196 H196       -3.0223  -27.8508  -47.7785 H         1 UNK         0.0600 
    197 H197       -1.4062  -29.7126  -47.3581 H         1 UNK         0.0600 
    198 H198       -1.7803  -28.8525  -45.8725 H         1 UNK         0.0600 
    199 H199       -0.2444  -28.5701  -46.6923 H         1 UNK         0.0600 
    200 H200       -0.1343  -26.0229  -48.5325 H         1 UNK         0.3000 
    201 H201       -0.0168  -27.0813  -51.3234 H         1 UNK         0.0600 
    202 H202        2.3467  -26.2901  -51.2716 H         1 UNK         0.0600 
    203 H203        2.1486  -25.7155  -49.6205 H         1 UNK         0.0600 
    204 H204        2.0837  -27.4403  -49.9728 H         1 UNK         0.0600 
    205 H205        0.8334  -25.3181  -52.7926 H         1 UNK         0.3000 
    206 H206        0.5349  -23.4708  -53.9757 H         1 UNK         0.0600 
    207 H207        1.8620  -22.4005  -52.1486 H         1 UNK         0.0600 
    208 H208        0.7163  -21.2730  -52.8612 H         1 UNK         0.0600 
    209 H209        0.3738  -21.9966  -51.2999 H         1 UNK         0.0600 
    210 H210       -1.5307  -24.8182  -54.2528 H         1 UNK         0.3000 
    211 H211       -3.9601  -24.4151  -53.1791 H         1 UNK         0.0600 
    212 H212       -3.3273  -25.1011  -56.0900 H         1 UNK         0.0600 
    213 H213       -4.8616  -25.4151  -55.2877 H         1 UNK         0.0600 
    214 H214       -3.4088  -26.2321  -54.7383 H         1 UNK         0.0600 
    215 H215       -2.5841  -22.2371  -55.5975 H         1 UNK         0.3000 
    216 H216       -5.0143  -20.8636  -56.2905 H         1 UNK         0.0600 
    217 H217       -3.4383  -19.2220  -57.3181 H         1 UNK         0.0600 
    218 H218       -3.0154  -20.8682  -57.7598 H         1 UNK         0.0600 
    219 H219       -2.0781  -20.0147  -56.5326 H         1 UNK         0.0600 
    220 H220       -2.7456  -20.5441  -53.6056 H         1 UNK         0.3000 
    221 H221       -4.0234  -17.9928  -52.6880 H         1 UNK         0.0600 
    222 H222       -1.2619  -19.2086  -52.1815 H         1 UNK         0.0600 
    223 H223       -1.6351  -17.7214  -53.0407 H         1 UNK         0.0600 
    224 H224       -1.8978  -17.8169  -51.3063 H         1 UNK         0.0600 
    225 H225       -3.6628  -21.3698  -52.0268 H         1 UNK         0.3000 
    226 H226       -3.7812  -21.6616  -49.3481 H         1 UNK         0.0600 
    227 H227       -4.8790  -23.8741  -49.8367 H         1 UNK         0.0600 
    228 H228       -5.2003  -23.3323  -51.4756 H         1 UNK         0.0600 
    229 H229       -3.5349  -23.5291  -50.9084 H         1 UNK         0.0600 
    230 H230       -6.4934  -20.5147  -51.2377 H         1 UNK         0.3000 
    231 H231       -8.5768  -20.9972  -49.3052 H         1 UNK         0.0600 
    232 H232       -8.3879  -18.9965  -51.6224 H         1 UNK         0.0600 
    233 H233       -9.8564  -19.4047  -50.7432 H         1 UNK         0.0600 
    234 H234       -9.0529  -20.6281  -51.7139 H         1 UNK         0.0600 
    235 H235       -6.0998  -18.5009  -49.6492 H         1 UNK         0.3000 
    236 H236       -7.3897  -16.7026  -47.6674 H         1 UNK         0.0600 
    237 H237       -5.5852  -15.1531  -48.2967 H         1 UNK         0.0600 
    238 H238       -4.8270  -16.3678  -49.3160 H         1 UNK         0.0600 
    239 H239       -6.4057  -15.7093  -49.7456 H         1 UNK         0.0600 
    240 H240       -4.6075  -18.8837  -48.1288 H         1 UNK         0.3000 
    241 H241       -3.2830  -18.2984  -45.6890 H         1 UNK         0.0600 
    242 H242       -3.0002  -19.6514  -43.7124 H         1 UNK         0.3800 
    243 H243       -4.3723  -20.5985  -43.1842 H         1 UNK         0.3800 
    244 H244       -3.1075  -20.8734  -47.3158 H         1 UNK         0.0800 
    245 H245       -1.9462  -20.3389  -46.1243 H         1 UNK         0.0800 
    246 H246       -1.3805  -21.3596  -48.8370 H         1 UNK         0.0800 
    247 H247       -1.2281  -20.2602  -50.1680 H         1 UNK         0.0800 
@<TRIPOS>BOND
     1    1    2 1    
     2    1  127 1    
     3    1  128 1    
     4    1  129 1    
     5    2    3 2    
     6    2    4 am   BACKBONE|DICT|INTERRES
     7    4    5 1    
     8    4  130 1    
     9    5    6 1    
    10    5   65 1    
    11    5  131 1    
    12    6    7 1    
    13    6  132 1    
    14    6  133 1    
    15    7    8 1    
    16    8    9 1    
    17    8  134 1    
    18    8  135 1    
    19    9   10 ar   
    20    9   14 ar   
    21   10   11 ar   
    22   10  136 1    
    23   11   12 ar   
    24   11  126 1    
    25   12   13 ar   
    26   12  137 1    
    27   13   14 ar   
    28   13   15 1    
    29   14  138 1    
    30   15   16 1    
    31   15  139 1    
    32   15  140 1    
    33   16   17 1    
    34   17   18 1    
    35   17  141 1    
    36   17  142 1    
    37   18   19 1    
    38   18   67 1    
    39   18  143 1    
    40   19   20 am   BACKBONE|DICT|INTERRES
    41   19  144 1    
    42   20   21 2    
    43   20   22 1    
    44   22   23 1    
    45   22   24 1    
    46   22  145 1    
    47   23  146 1    
    48   23  147 1    
    49   23  148 1    
    50   24   25 am   BACKBONE|DICT|INTERRES
    51   24  149 1    
    52   25   26 2    
    53   25   27 1    
    54   27   28 1    
    55   27   29 1    
    56   27  150 1    
    57   28  151 1    
    58   28  152 1    
    59   28  153 1    
    60   29   30 am   BACKBONE|DICT|INTERRES
    61   29  154 1    
    62   30   31 2    
    63   30   32 1    
    64   32   33 1    
    65   32   34 1    
    66   32  155 1    
    67   33  156 1    
    68   33  157 1    
    69   33  158 1    
    70   34   35 am   BACKBONE|DICT|INTERRES
    71   34  159 1    
    72   35   36 2    
    73   35   37 1    
    74   37   38 1    
    75   37   39 1    
    76   37  160 1    
    77   38  161 1    
    78   38  162 1    
    79   38  163 1    
    80   39   40 am   BACKBONE|DICT|INTERRES
    81   39  164 1    
    82   40   41 2    
    83   40   42 1    
    84   42   43 1    
    85   42   44 1    
    86   42  165 1    
    87   43  166 1    
    88   43  167 1    
    89   43  168 1    
    90   44   45 am   BACKBONE|DICT|INTERRES
    91   44  169 1    
    92   45   46 2    
    93   45   47 1    
    94   47   48 1    
    95   47   49 1    
    96   47  170 1    
    97   48  171 1    
    98   48  172 1    
    99   48  173 1    
   100   49   50 am   BACKBONE|DICT|INTERRES
   101   49  174 1    
   102   50   51 2    
   103   50   52 1    
   104   52   53 1    
   105   52   54 1    
   106   52  175 1    
   107   53  176 1    
   108   53  177 1    
   109   53  178 1    
   110   54   55 am   BACKBONE|DICT|INTERRES
   111   54  179 1    
   112   55   56 2    
   113   55   57 1    
   114   57   58 1    
   115   57   59 1    
   116   57  180 1    
   117   58  181 1    
   118   58  182 1    
   119   58  183 1    
   120   59   60 am   BACKBONE|DICT|INTERRES
   121   59  184 1    
   122   60   61 2    
   123   60   62 1    
   124   62   63 1    
   125   62   64 1    
   126   62  185 1    
   127   63  186 1    
   128   63  187 1    
   129   63  188 1    
   130   64   65 am   BACKBONE|DICT|INTERRES
   131   64  189 1    
   132   65   66 2    
   133   67   68 2    
   134   67   69 am   BACKBONE|DICT|INTERRES
   135   69   70 1    
   136   69  190 1    
   137   70   71 1    
   138   70   72 1    
   139   70  191 1    
   140   71  192 1    
   141   71  193 1    
   142   71  194 1    
   143   72   73 2    
   144   72   74 am   BACKBONE|DICT|INTERRES
   145   74   75 1    
   146   74  195 1    
   147   75   76 1    
   148   75   77 1    
   149   75  196 1    
   150   76  197 1    
   151   76  198 1    
   152   76  199 1    
   153   77   78 2    
   154   77   79 am   BACKBONE|DICT|INTERRES
   155   79   80 1    
   156   79  200 1    
   157   80   81 1    
   158   80   82 1    
   159   80  201 1    
   160   81  202 1    
   161   81  203 1    
   162   81  204 1    
   163   82   83 2    
   164   82   84 am   BACKBONE|DICT|INTERRES
   165   84   85 1    
   166   84  205 1    
   167   85   86 1    
   168   85   87 1    
   169   85  206 1    
   170   86  207 1    
   171   86  208 1    
   172   86  209 1    
   173   87   88 2    
   174   87   89 am   BACKBONE|DICT|INTERRES
   175   89   90 1    
   176   89  210 1    
   177   90   91 1    
   178   90   92 1    
   179   90  211 1    
   180   91  212 1    
   181   91  213 1    
   182   91  214 1    
   183   92   93 2    
   184   92   94 am   BACKBONE|DICT|INTERRES
   185   94   95 1    
   186   94  215 1    
   187   95   96 1    
   188   95   97 1    
   189   95  216 1    
   190   96  217 1    
   191   96  218 1    
   192   96  219 1    
   193   97   98 2    
   194   97   99 am   BACKBONE|DICT|INTERRES
   195   99  100 1    
   196   99  220 1    
   197  100  101 1    
   198  100  102 1    
   199  100  221 1    
   200  101  222 1    
   201  101  223 1    
   202  101  224 1    
   203  102  103 2    
   204  102  104 am   BACKBONE|DICT|INTERRES
   205  104  105 1    
   206  104  225 1    
   207  105  106 1    
   208  105  107 1    
   209  105  226 1    
   210  106  227 1    
   211  106  228 1    
   212  106  229 1    
   213  107  108 2    
   214  107  109 am   BACKBONE|DICT|INTERRES
   215  109  110 1    
   216  109  230 1    
   217  110  111 1    
   218  110  112 1    
   219  110  231 1    
   220  111  232 1    
   221  111  233 1    
   222  111  234 1    
   223  112  113 2    
   224  112  114 am   BACKBONE|DICT|INTERRES
   225  114  115 1    
   226  114  235 1    
   227  115  116 1    
   228  115  117 1    
   229  115  236 1    
   230  116  237 1    
   231  116  238 1    
   232  116  239 1    
   233  117  118 2    
   234  117  119 am   BACKBONE|DICT|INTERRES
   235  119  120 1    
   236  119  240 1    
   237  120  121 1    
   238  120  124 1    
   239  120  241 1    
   240  121  122 am   BACKBONE|DICT|INTERRES
   241  121  123 2    
   242  122  242 1    
   243  122  243 1    
   244  124  125 1    
   245  124  244 1    
   246  124  245 1    
   247  125  126 1    
   248  126  246 1    
   249  126  247 1    
@<TRIPOS>SUBSTRUCTURE
     1 UNK         1 GROUP             0       ****    0 ROOT    
