@<TRIPOS>MOLECULE
3R540
247   249    1
SMALL
USER_CHARGES


@<TRIPOS>ATOM
      1 CA         -2.2175  -11.3741  -51.3227 C.3       0 UNK        -0.1800 
      2 C          -3.5580  -12.1066  -51.2523 C.2       0 UNK         0.5000 
      3 O          -4.4999  -11.6863  -51.9219 O.2       0 UNK        -0.5000 
      4 N          -3.7116  -13.1917  -50.4783 N.am      1 UNK        -0.5000 
      5 CA         -2.7428  -13.8046  -49.5606 C.3       1 UNK         0.1400 
      6 C6         -3.3229  -15.0784  -48.8983 C.3       23 UNK        -0.0398 
      7 S7         -3.6669  -16.4058  -50.1060 S.3       23 UNK        -0.2404 
      8 C8         -2.9610  -17.8657  -49.2672 C.3       23 UNK        -0.0205 
      9 C9         -1.5003  -18.1471  -49.6087 C.ar      23 UNK        -0.0193 
     10 C10        -0.5418  -17.1306  -49.6082 C.ar      23 UNK        -0.1150 
     11 C11         0.8001  -17.3972  -49.8984 C.ar      23 UNK        -0.0193 
     12 C12         1.1834  -18.7130  -50.1753 C.ar      23 UNK        -0.1150 
     13 C13         0.2402  -19.7473  -50.1729 C.ar      23 UNK        -0.0193 
     14 C14        -1.0968  -19.4555  -49.8865 C.ar      23 UNK        -0.1150 
     15 C15         0.6473  -21.1836  -50.4848 C.3       23 UNK        -0.0205 
     16 S16         1.9441  -21.8450  -49.3828 S.3       23 UNK        -0.2404 
     17 C17         1.3028  -21.4571  -47.7191 C.3       23 UNK        -0.0398 
     18 CA          0.5170  -22.6035  -47.0408 C.3       11 UNK         0.1400 
     19 N           0.4235  -22.3898  -45.5942 N.am      11 UNK        -0.5000 
     20 C          -0.0969  -23.2489  -44.7075 C.2       10 UNK         0.5000 
     21 O          -0.4939  -24.3766  -45.0000 O.2       10 UNK        -0.5000 
     22 CA         -0.2471  -22.7379  -43.2610 C.3       10 UNK         0.1400 
     23 CB          1.0749  -22.8640  -42.4898 C.3       10 UNK        -0.1800 
     24 N          -0.7218  -21.3521  -43.2097 N.am      10 UNK        -0.5000 
     25 C          -1.9441  -20.9625  -43.6021 C.2       9 UNK         0.5000 
     26 O          -2.8179  -21.7447  -43.9758 O.2       9 UNK        -0.5000 
     27 CA         -2.2178  -19.4454  -43.6379 C.3       9 UNK         0.1400 
     28 CB         -2.6293  -18.9231  -42.2540 C.3       9 UNK        -0.1800 
     29 N          -1.0706  -18.6820  -44.1323 N.am      9 UNK        -0.5000 
     30 C          -0.5809  -18.7819  -45.3759 C.2       8 UNK         0.5000 
     31 O          -1.1024  -19.4628  -46.2546 O.2       8 UNK        -0.5000 
     32 CA          0.7451  -18.0608  -45.6694 C.3       8 UNK         0.1400 
     33 CB          0.4928  -16.6179  -46.1269 C.3       8 UNK        -0.1800 
     34 N           1.6494  -18.0980  -44.5146 N.am      8 UNK        -0.5000 
     35 C           2.2657  -19.2133  -44.0912 C.2       7 UNK         0.5000 
     36 O           2.2010  -20.2830  -44.6939 O.2       7 UNK        -0.5000 
     37 CA          3.0224  -19.1639  -42.7495 C.3       7 UNK         0.1400 
     38 CB          4.5387  -19.0195  -42.9398 C.3       7 UNK        -0.1800 
     39 N           2.5340  -18.1035  -41.8714 N.am      7 UNK        -0.5000 
     40 C           1.4305  -18.2125  -41.1196 C.2       6 UNK         0.5000 
     41 O           0.7576  -19.2410  -41.0449 O.2       6 UNK        -0.5000 
     42 CA          0.9730  -16.9423  -40.3758 C.3       6 UNK         0.1400 
     43 CB          1.6628  -16.8368  -39.0080 C.3       6 UNK        -0.1800 
     44 N           1.2210  -15.7164  -41.1406 N.am      6 UNK        -0.5000 
     45 C           0.6687  -15.4425  -42.3301 C.2       5 UNK         0.5000 
     46 O          -0.1528  -16.1818  -42.8708 O.2       5 UNK        -0.5000 
     47 CA          1.1251  -14.1618  -43.0584 C.3       5 UNK         0.1400 
     48 CB          1.5804  -13.0433  -42.0972 C.3       5 UNK        -0.1800 
     49 N           2.1592  -14.4072  -44.0729 N.am      5 UNK        -0.5000 
     50 C           3.3689  -14.9658  -43.9002 C.2       4 UNK         0.5000 
     51 O           3.7240  -15.5167  -42.8575 O.2       4 UNK        -0.5000 
     52 CA          4.3666  -14.8875  -45.0781 C.3       4 UNK         0.1400 
     53 CB          4.5555  -16.2520  -45.7597 C.3       4 UNK        -0.1800 
     54 N           3.9940  -13.9161  -46.1045 N.am      4 UNK        -0.5000 
     55 C           4.0308  -12.5831  -45.9829 C.2       3 UNK         0.5000 
     56 O           4.4086  -11.9942  -44.9696 O.2       3 UNK        -0.5000 
     57 CA          3.5591  -11.7720  -47.2071 C.3       3 UNK         0.1400 
     58 CB          3.9611  -12.4256  -48.5477 C.3       3 UNK        -0.1800 
     59 N           2.1204  -11.4808  -47.2022 N.am      3 UNK        -0.5000 
     60 C           1.1017  -12.3485  -47.1102 C.2       2 UNK         0.5000 
     61 O           1.2410  -13.5526  -46.8935 O.2       2 UNK        -0.5000 
     62 CA         -0.3195  -11.8054  -47.3304 C.3       2 UNK         0.1400 
     63 CB         -0.3738  -10.3470  -47.8408 C.3       2 UNK        -0.1800 
     64 N          -0.9759  -12.7013  -48.2771 N.am      2 UNK        -0.5000 
     65 C          -2.2926  -12.8088  -48.4711 C.2       1 UNK         0.5000 
     66 O          -3.1372  -12.1652  -47.8444 O.2       1 UNK        -0.5000 
     67 C          -0.8766  -22.8060  -47.6744 C.2       11 UNK         0.5000 
     68 O          -1.0601  -23.7505  -48.4404 O.2       11 UNK        -0.5000 
     69 N          -1.8457  -21.9559  -47.3038 N.am      12 UNK        -0.5000 
     70 CA         -3.2467  -22.0567  -47.7120 C.3       12 UNK         0.1400 
     71 CB         -4.0358  -20.8464  -47.1945 C.3       12 UNK        -0.1800 
     72 C          -3.9034  -23.3614  -47.2371 C.2       12 UNK         0.5000 
     73 O          -4.5889  -24.0076  -48.0254 O.2       12 UNK        -0.5000 
     74 N          -3.6590  -23.7510  -45.9777 N.am      13 UNK        -0.5000 
     75 CA         -4.1314  -25.0110  -45.4001 C.3       13 UNK         0.1400 
     76 CB         -3.8052  -25.0551  -43.9000 C.3       13 UNK        -0.1800 
     77 C          -3.5684  -26.2447  -46.1308 C.2       13 UNK         0.5000 
     78 O          -4.3293  -27.1610  -46.4444 O.2       13 UNK        -0.5000 
     79 N          -2.2658  -26.2187  -46.4490 N.am      14 UNK        -0.5000 
     80 CA         -1.5842  -27.2342  -47.2575 C.3       14 UNK         0.1400 
     81 CB         -0.0705  -26.9740  -47.2354 C.3       14 UNK        -0.1800 
     82 C          -2.1094  -27.3066  -48.7066 C.2       14 UNK         0.5000 
     83 O          -2.1809  -28.3968  -49.2742 O.2       14 UNK        -0.5000 
     84 N          -2.5109  -26.1544  -49.2586 N.am      15 UNK        -0.5000 
     85 CA         -3.1503  -26.0042  -50.5672 C.3       15 UNK         0.1400 
     86 CB         -2.8737  -24.5843  -51.0929 C.3       15 UNK        -0.1800 
     87 C          -4.6660  -26.3101  -50.5570 C.2       15 UNK         0.5000 
     88 O          -5.3229  -26.0877  -51.5738 O.2       15 UNK        -0.5000 
     89 N          -5.2035  -26.8011  -49.4291 N.am      16 UNK        -0.5000 
     90 CA         -6.6050  -27.1707  -49.1987 C.3       16 UNK         0.1400 
     91 CB         -7.0213  -28.3555  -50.0960 C.3       16 UNK        -0.1800 
     92 C          -7.5685  -25.9679  -49.2858 C.2       16 UNK         0.5000 
     93 O          -8.6486  -26.0736  -49.8691 O.2       16 UNK        -0.5000 
     94 N          -7.1435  -24.8463  -48.6892 N.am      17 UNK        -0.5000 
     95 CA         -7.8219  -23.5512  -48.5747 C.3       17 UNK         0.1400 
     96 CB         -9.2137  -23.6869  -47.9219 C.3       17 UNK        -0.1800 
     97 C          -7.8483  -22.7332  -49.8814 C.2       17 UNK         0.5000 
     98 O          -8.5520  -21.7234  -49.9448 O.2       17 UNK        -0.5000 
     99 N          -7.0704  -23.1461  -50.8906 N.am      18 UNK        -0.5000 
    100 CA        -6.8674  -22.3935  -52.1258 C.3       18 UNK         0.1400 
    101 CB        -6.3371  -23.3386  -53.2137 C.3       18 UNK        -0.1800 
    102 C         -5.8836  -21.2314  -51.9053 C.2       18 UNK         0.5000 
    103 O         -4.9169  -21.3732  -51.1509 O.2       18 UNK        -0.5000 
    104 N         -6.1108  -20.1215  -52.6173 N.am      19 UNK        -0.5000 
    105 CA        -5.2316  -18.9515  -52.6536 C.3       19 UNK         0.1400 
    106 CB        -6.0698  -17.7049  -52.9884 C.3       19 UNK        -0.1800 
    107 C         -4.0679  -19.1757  -53.6407 C.2       19 UNK         0.5000 
    108 O         -3.9539  -18.4726  -54.6468 O.2       19 UNK        -0.5000 
    109 N         -3.2548  -20.1976  -53.3536 N.am      20 UNK        -0.5000 
    110 CA        -2.0577  -20.5693  -54.1040 C.3       20 UNK         0.1400 
    111 CB        -1.6178  -21.9672  -53.6395 C.3       20 UNK        -0.1800 
    112 C         -0.9186  -19.5481  -53.9212 C.2       20 UNK         0.5000 
    113 O         -0.9491  -18.7563  -52.9786 O.2       20 UNK        -0.5000 
    114 N          0.0794  -19.6089  -54.8145 N.am      21 UNK        -0.5000 
    115 CA         1.3095  -18.8083  -54.8207 C.3       21 UNK         0.1400 
    116 CB         2.2836  -19.3172  -53.7381 C.3       21 UNK        -0.1800 
    117 C          1.0362  -17.2905  -54.7477 C.2       21 UNK         0.5000 
    118 O          0.6777  -16.7045  -55.7711 O.2       21 UNK        -0.5000 
    119 N          1.2056  -16.6868  -53.5622 N.am      22 UNK        -0.5000 
    120 CA         0.9041  -15.2706  -53.3056 C.3       22 UNK         0.1400 
    121 C         -0.6092  -14.9563  -53.1097 C.2       22 UNK         0.5000 
    122 N         -1.4769  -15.9394  -52.9058 N.am      22 UNK        -0.7600 
    123 O         -1.0032  -13.7962  -53.1712 O.2       22 UNK        -0.5000 
    124 C124        1.8374  -14.6692  -52.2130 C.3       23 UNK        -0.0398 
    125 S125        1.2547  -14.6785  -50.4775 S.3       23 UNK        -0.2404 
    126 C126        1.8492  -16.2878  -49.8488 C.3       23 UNK        -0.0205 
    127 H127       -1.3693  -12.0388  -51.1654 H         1 UNK         0.0600 
    128 H128       -2.0907  -10.9193  -52.3052 H         1 UNK         0.0600 
    129 H129       -2.1810  -10.5804  -50.5767 H         1 UNK         0.0600 
    130 H130       -4.6158  -13.6400  -50.4783 H         1 UNK         0.3000 
    131 H131       -1.8729  -14.0943  -50.1534 H         1 UNK         0.0600 
    132 H132       -2.6398  -15.4558  -48.1354 H         1 UNK         0.0800 
    133 H133       -4.2519  -14.8480  -48.3735 H         1 UNK         0.0800 
    134 H134       -3.5739  -18.7244  -49.5443 H         1 UNK         0.0800 
    135 H135       -3.0585  -17.7580  -48.1866 H         1 UNK         0.0800 
    136 H136       -0.8367  -16.1231  -49.3699 H         1 UNK         0.1150 
    137 H137        2.2198  -18.9400  -50.3814 H         1 UNK         0.1150 
    138 H138       -1.8281  -20.2509  -49.8817 H         1 UNK         0.1150 
    139 H139       -0.2170  -21.8468  -50.4338 H         1 UNK         0.0800 
    140 H140        1.0025  -21.2323  -51.5145 H         1 UNK         0.0800 
    141 H141        0.7199  -20.5388  -47.7362 H         1 UNK         0.0800 
    142 H142        2.1840  -21.2247  -47.1211 H         1 UNK         0.0800 
    143 H143        1.0782  -23.5295  -47.1822 H         1 UNK         0.0600 
    144 H144        0.7943  -21.5101  -45.2492 H         1 UNK         0.3000 
    145 H145       -0.9889  -23.3646  -42.7616 H         1 UNK         0.0600 
    146 H146        0.9698  -22.5100  -41.4640 H         1 UNK         0.0600 
    147 H147        1.3979  -23.9047  -42.4442 H         1 UNK         0.0600 
    148 H148        1.8765  -22.2957  -42.9604 H         1 UNK         0.0600 
    149 H149       -0.0701  -20.6511  -42.8853 H         1 UNK         0.3000 
    150 H150       -3.0504  -19.2758  -44.3238 H         1 UNK         0.0600 
    151 H151       -3.5181  -19.4411  -41.8917 H         1 UNK         0.0600 
    152 H152       -2.8631  -17.8587  -42.2882 H         1 UNK         0.0600 
    153 H153       -1.8420  -19.0682  -41.5147 H         1 UNK         0.0600 
    154 H154       -0.6323  -18.0312  -43.4891 H         1 UNK         0.3000 
    155 H155        1.2297  -18.5815  -46.4973 H         1 UNK         0.0600 
    156 H156        0.0341  -16.0047  -45.3552 H         1 UNK         0.0600 
    157 H157       -0.1823  -16.5956  -46.9803 H         1 UNK         0.0600 
    158 H158        1.4161  -16.1345  -46.4374 H         1 UNK         0.0600 
    159 H159        1.6826  -17.2723  -43.9354 H         1 UNK         0.3000 
    160 H160        2.8546  -20.1281  -42.2652 H         1 UNK         0.0600 
    161 H161        5.0687  -19.3194  -42.0357 H         1 UNK         0.0600 
    162 H162        4.8258  -17.9926  -43.1532 H         1 UNK         0.0600 
    163 H163        4.9035  -19.6493  -43.7524 H         1 UNK         0.0600 
    164 H164        3.0138  -17.2099  -41.9200 H         1 UNK         0.3000 
    165 H165       -0.1036  -17.0250  -40.2124 H         1 UNK         0.0600 
    166 H166        1.2878  -15.9840  -38.4418 H         1 UNK         0.0600 
    167 H167        1.4795  -17.7297  -38.4087 H         1 UNK         0.0600 
    168 H168        2.7431  -16.7248  -39.1091 H         1 UNK         0.0600 
    169 H169        1.9180  -15.0832  -40.7759 H         1 UNK         0.3000 
    170 H170        0.2512  -13.7927  -43.5974 H         1 UNK         0.0600 
    171 H171        0.8199  -12.8388  -41.3424 H         1 UNK         0.0600 
    172 H172        2.5064  -13.2925  -41.5781 H         1 UNK         0.0600 
    173 H173        1.7520  -12.1139  -42.6407 H         1 UNK         0.0600 
    174 H174        1.9464  -14.0534  -45.0002 H         1 UNK         0.3000 
    175 H175        5.3291  -14.5810  -44.6635 H         1 UNK         0.0600 
    176 H176        3.6159  -16.6649  -46.1236 H         1 UNK         0.0600 
    177 H177        5.2349  -16.1763  -46.6090 H         1 UNK         0.0600 
    178 H178        4.9921  -16.9762  -45.0766 H         1 UNK         0.0600 
    179 H179        3.5966  -14.2918  -46.9536 H         1 UNK         0.3000 
    180 H180        4.0686  -10.8088  -47.1509 H         1 UNK         0.0600 
    181 H181        5.0283  -12.6498  -48.5710 H         1 UNK         0.0600 
    182 H182        3.7542  -11.7571  -49.3834 H         1 UNK         0.0600 
    183 H183        3.4240  -13.3557  -48.7345 H         1 UNK         0.0600 
    184 H184        1.8853  -10.5094  -47.3487 H         1 UNK         0.3000 
    185 H185       -0.8350  -11.8656  -46.3699 H         1 UNK         0.0600 
    186 H186        0.0878   -9.6591  -47.1316 H         1 UNK         0.0600 
    187 H187        0.1322  -10.2360  -48.8008 H         1 UNK         0.0600 
    188 H188       -1.4026  -10.0121  -47.9731 H         1 UNK         0.0600 
    189 H189       -0.3401  -13.3091  -48.7795 H         1 UNK         0.3000 
    190 H190       -1.5998  -21.1549  -46.7257 H         1 UNK         0.3000 
    191 H191       -3.2736  -22.0397  -48.8033 H         1 UNK         0.0600 
    192 H192       -4.1442  -20.8625  -46.1104 H         1 UNK         0.0600 
    193 H193       -5.0375  -20.8244  -47.6255 H         1 UNK         0.0600 
    194 H194       -3.5441  -19.9139  -47.4589 H         1 UNK         0.0600 
    195 H195       -3.1263  -23.1372  -45.3690 H         1 UNK         0.3000 
    196 H196       -5.2179  -25.0327  -45.5074 H         1 UNK         0.0600 
    197 H197       -4.1919  -25.9675  -43.4444 H         1 UNK         0.0600 
    198 H198       -4.2551  -24.2126  -43.3744 H         1 UNK         0.0600 
    199 H199       -2.7316  -25.0275  -43.7167 H         1 UNK         0.0600 
    200 H200       -1.6994  -25.4413  -46.1205 H         1 UNK         0.3000 
    201 H201       -1.7675  -28.2051  -46.7927 H         1 UNK         0.0600 
    202 H202        0.1797  -26.0084  -47.6750 H         1 UNK         0.0600 
    203 H203        0.3165  -26.9865  -46.2163 H         1 UNK         0.0600 
    204 H204        0.4656  -27.7395  -47.7975 H         1 UNK         0.0600 
    205 H205       -2.3526  -25.2953  -48.7417 H         1 UNK         0.3000 
    206 H206       -2.6886  -26.7107  -51.2596 H         1 UNK         0.0600 
    207 H207       -3.3762  -23.8266  -50.4916 H         1 UNK         0.0600 
    208 H208       -1.8068  -24.3606  -51.0901 H         1 UNK         0.0600 
    209 H209       -3.2215  -24.4712  -52.1195 H         1 UNK         0.0600 
    210 H210       -4.5949  -26.9087  -48.6270 H         1 UNK         0.3000 
    211 H211       -6.6548  -27.5165  -48.1653 H         1 UNK         0.0600 
    212 H212       -7.0577  -28.0765  -51.1494 H         1 UNK         0.0600 
    213 H213       -8.0113  -28.7221  -49.8224 H         1 UNK         0.0600 
    214 H214       -6.3277  -29.1900  -49.9933 H         1 UNK         0.0600 
    215 H215       -6.1890  -24.8347  -48.3330 H         1 UNK         0.3000 
    216 H216       -7.2066  -22.9692  -47.8872 H         1 UNK         0.0600 
    217 H217       -9.9310  -24.1678  -48.5871 H         1 UNK         0.0600 
    218 H218       -9.6199  -22.7084  -47.6633 H         1 UNK         0.0600 
    219 H219       -9.1638  -24.2685  -47.0014 H         1 UNK         0.0600 
    220 H220       -6.4982  -23.9685  -50.7591 H         1 UNK         0.3000 
    221 H221       -7.8283  -21.9934  -52.4568 H         1 UNK         0.0600 
    222 H222       -5.3517  -23.7297  -52.9607 H         1 UNK         0.0600 
    223 H223       -7.0056  -24.1869  -53.3623 H         1 UNK         0.0600 
    224 H224       -6.2468  -22.8221  -54.1701 H         1 UNK         0.0600 
    225 H225       -6.9024  -20.0978  -53.2439 H         1 UNK         0.3000 
    226 H226       -4.7948  -18.7990  -51.6652 H         1 UNK         0.0600 
    227 H227       -6.8491  -17.5440  -52.2433 H         1 UNK         0.0600 
    228 H228       -5.4465  -16.8097  -53.0011 H         1 UNK         0.0600 
    229 H229       -6.5490  -17.7882  -53.9645 H         1 UNK         0.0600 
    230 H230       -3.4381  -20.7151  -52.5023 H         1 UNK         0.3000 
    231 H231       -2.3138  -20.6126  -55.1645 H         1 UNK         0.0600 
    232 H232       -2.3964  -22.7063  -53.8292 H         1 UNK         0.0600 
    233 H233       -1.3975  -21.9831  -52.5720 H         1 UNK         0.0600 
    234 H234       -0.7220  -22.2989  -54.1656 H         1 UNK         0.0600 
    235 H235       -0.0020  -20.2713  -55.5727 H         1 UNK         0.3000 
    236 H236        1.7848  -18.9821  -55.7873 H         1 UNK         0.0600 
    237 H237        3.2028  -18.7302  -53.7247 H         1 UNK         0.0600 
    238 H238        1.8444  -19.2727  -52.7447 H         1 UNK         0.0600 
    239 H239        2.5652  -20.3535  -53.9244 H         1 UNK         0.0600 
    240 H240        1.4093  -17.2554  -52.7534 H         1 UNK         0.3000 
    241 H241        1.1677  -14.7396  -54.2227 H         1 UNK         0.0600 
    242 H242       -2.4490  -15.7197  -52.7731 H         1 UNK         0.3800 
    243 H243       -1.1726  -16.9103  -52.8584 H         1 UNK         0.3800 
    244 H244        2.0005  -13.6177  -52.4541 H         1 UNK         0.0800 
    245 H245        2.8297  -15.1187  -52.2657 H         1 UNK         0.0800 
    246 H246        2.7513  -16.5828  -50.3861 H         1 UNK         0.0800 
    247 H247        2.1451  -16.1543  -48.8079 H         1 UNK         0.0800 
@<TRIPOS>BOND
     1    1    2 1    
     2    1  127 1    
     3    1  128 1    
     4    1  129 1    
     5    2    3 2    
     6    2    4 am   BACKBONE|DICT|INTERRES
     7    4    5 1    
     8    4  130 1    
     9    5    6 1    
    10    5   65 1    
    11    5  131 1    
    12    6    7 1    
    13    6  132 1    
    14    6  133 1    
    15    7    8 1    
    16    8    9 1    
    17    8  134 1    
    18    8  135 1    
    19    9   10 ar   
    20    9   14 ar   
    21   10   11 ar   
    22   10  136 1    
    23   11   12 ar   
    24   11  126 1    
    25   12   13 ar   
    26   12  137 1    
    27   13   14 ar   
    28   13   15 1    
    29   14  138 1    
    30   15   16 1    
    31   15  139 1    
    32   15  140 1    
    33   16   17 1    
    34   17   18 1    
    35   17  141 1    
    36   17  142 1    
    37   18   19 1    
    38   18   67 1    
    39   18  143 1    
    40   19   20 am   BACKBONE|DICT|INTERRES
    41   19  144 1    
    42   20   21 2    
    43   20   22 1    
    44   22   23 1    
    45   22   24 1    
    46   22  145 1    
    47   23  146 1    
    48   23  147 1    
    49   23  148 1    
    50   24   25 am   BACKBONE|DICT|INTERRES
    51   24  149 1    
    52   25   26 2    
    53   25   27 1    
    54   27   28 1    
    55   27   29 1    
    56   27  150 1    
    57   28  151 1    
    58   28  152 1    
    59   28  153 1    
    60   29   30 am   BACKBONE|DICT|INTERRES
    61   29  154 1    
    62   30   31 2    
    63   30   32 1    
    64   32   33 1    
    65   32   34 1    
    66   32  155 1    
    67   33  156 1    
    68   33  157 1    
    69   33  158 1    
    70   34   35 am   BACKBONE|DICT|INTERRES
    71   34  159 1    
    72   35   36 2    
    73   35   37 1    
    74   37   38 1    
    75   37   39 1    
    76   37  160 1    
    77   38  161 1    
    78   38  162 1    
    79   38  163 1    
    80   39   40 am   BACKBONE|DICT|INTERRES
    81   39  164 1    
    82   40   41 2    
    83   40   42 1    
    84   42   43 1    
    85   42   44 1    
    86   42  165 1    
    87   43  166 1    
    88   43  167 1    
    89   43  168 1    
    90   44   45 am   BACKBONE|DICT|INTERRES
    91   44  169 1    
    92   45   46 2    
    93   45   47 1    
    94   47   48 1    
    95   47   49 1    
    96   47  170 1    
    97   48  171 1    
    98   48  172 1    
    99   48  173 1    
   100   49   50 am   BACKBONE|DICT|INTERRES
   101   49  174 1    
   102   50   51 2    
   103   50   52 1    
   104   52   53 1    
   105   52   54 1    
   106   52  175 1    
   107   53  176 1    
   108   53  177 1    
   109   53  178 1    
   110   54   55 am   BACKBONE|DICT|INTERRES
   111   54  179 1    
   112   55   56 2    
   113   55   57 1    
   114   57   58 1    
   115   57   59 1    
   116   57  180 1    
   117   58  181 1    
   118   58  182 1    
   119   58  183 1    
   120   59   60 am   BACKBONE|DICT|INTERRES
   121   59  184 1    
   122   60   61 2    
   123   60   62 1    
   124   62   63 1    
   125   62   64 1    
   126   62  185 1    
   127   63  186 1    
   128   63  187 1    
   129   63  188 1    
   130   64   65 am   BACKBONE|DICT|INTERRES
   131   64  189 1    
   132   65   66 2    
   133   67   68 2    
   134   67   69 am   BACKBONE|DICT|INTERRES
   135   69   70 1    
   136   69  190 1    
   137   70   71 1    
   138   70   72 1    
   139   70  191 1    
   140   71  192 1    
   141   71  193 1    
   142   71  194 1    
   143   72   73 2    
   144   72   74 am   BACKBONE|DICT|INTERRES
   145   74   75 1    
   146   74  195 1    
   147   75   76 1    
   148   75   77 1    
   149   75  196 1    
   150   76  197 1    
   151   76  198 1    
   152   76  199 1    
   153   77   78 2    
   154   77   79 am   BACKBONE|DICT|INTERRES
   155   79   80 1    
   156   79  200 1    
   157   80   81 1    
   158   80   82 1    
   159   80  201 1    
   160   81  202 1    
   161   81  203 1    
   162   81  204 1    
   163   82   83 2    
   164   82   84 am   BACKBONE|DICT|INTERRES
   165   84   85 1    
   166   84  205 1    
   167   85   86 1    
   168   85   87 1    
   169   85  206 1    
   170   86  207 1    
   171   86  208 1    
   172   86  209 1    
   173   87   88 2    
   174   87   89 am   BACKBONE|DICT|INTERRES
   175   89   90 1    
   176   89  210 1    
   177   90   91 1    
   178   90   92 1    
   179   90  211 1    
   180   91  212 1    
   181   91  213 1    
   182   91  214 1    
   183   92   93 2    
   184   92   94 am   BACKBONE|DICT|INTERRES
   185   94   95 1    
   186   94  215 1    
   187   95   96 1    
   188   95   97 1    
   189   95  216 1    
   190   96  217 1    
   191   96  218 1    
   192   96  219 1    
   193   97   98 2    
   194   97   99 am   BACKBONE|DICT|INTERRES
   195   99  100 1    
   196   99  220 1    
   197  100  101 1    
   198  100  102 1    
   199  100  221 1    
   200  101  222 1    
   201  101  223 1    
   202  101  224 1    
   203  102  103 2    
   204  102  104 am   BACKBONE|DICT|INTERRES
   205  104  105 1    
   206  104  225 1    
   207  105  106 1    
   208  105  107 1    
   209  105  226 1    
   210  106  227 1    
   211  106  228 1    
   212  106  229 1    
   213  107  108 2    
   214  107  109 am   BACKBONE|DICT|INTERRES
   215  109  110 1    
   216  109  230 1    
   217  110  111 1    
   218  110  112 1    
   219  110  231 1    
   220  111  232 1    
   221  111  233 1    
   222  111  234 1    
   223  112  113 2    
   224  112  114 am   BACKBONE|DICT|INTERRES
   225  114  115 1    
   226  114  235 1    
   227  115  116 1    
   228  115  117 1    
   229  115  236 1    
   230  116  237 1    
   231  116  238 1    
   232  116  239 1    
   233  117  118 2    
   234  117  119 am   BACKBONE|DICT|INTERRES
   235  119  120 1    
   236  119  240 1    
   237  120  121 1    
   238  120  124 1    
   239  120  241 1    
   240  121  122 am   BACKBONE|DICT|INTERRES
   241  121  123 2    
   242  122  242 1    
   243  122  243 1    
   244  124  125 1    
   245  124  244 1    
   246  124  245 1    
   247  125  126 1    
   248  126  246 1    
   249  126  247 1    
@<TRIPOS>SUBSTRUCTURE
     1 UNK         1 GROUP             0       ****    0 ROOT    
