@<TRIPOS>MOLECULE
3R540
247   249    1
SMALL
USER_CHARGES


@<TRIPOS>ATOM
      1 CA          4.3624  -17.3207  -47.9684 C.3       0 UNK        -0.1800 
      2 C           3.8716  -16.2402  -47.0161 C.2       0 UNK         0.5000 
      3 O           4.2752  -16.2174  -45.8540 O.2       0 UNK        -0.5000 
      4 N           3.0041  -15.3451  -47.5033 N.am      1 UNK        -0.5000 
      5 CA          2.3489  -14.2659  -46.7528 C.3       1 UNK         0.1400 
      6 C6          1.0362  -13.8173  -47.4451 C.3       23 UNK        -0.0398 
      7 S7         -0.1722  -15.1762  -47.5849 S.3       23 UNK        -0.2404 
      8 C8         -0.2701  -15.3638  -49.3921 C.3       23 UNK        -0.0205 
      9 C9         -0.9655  -16.6572  -49.7852 C.ar      23 UNK        -0.0193 
     10 C10        -2.3482  -16.7886  -49.6275 C.ar      23 UNK        -0.1150 
     11 C11        -2.9962  -17.9677  -50.0069 C.ar      23 UNK        -0.0193 
     12 C12        -2.2511  -19.0166  -50.5502 C.ar      23 UNK        -0.1150 
     13 C13        -0.8684  -18.8994  -50.7105 C.ar      23 UNK        -0.0193 
     14 C14        -0.2300  -17.7178  -50.3237 C.ar      23 UNK        -0.1150 
     15 C15        -0.0674  -20.0480  -51.3055 C.3       23 UNK        -0.0205 
     16 S16         0.7100  -21.0719  -50.0177 S.3       23 UNK        -0.2404 
     17 C17        -0.7587  -21.7328  -49.1640 C.3       23 UNK        -0.0398 
     18 CA         -0.4342  -22.9608  -48.2853 C.3       11 UNK         0.1400 
     19 N           0.5444  -22.6513  -47.2434 N.am      11 UNK        -0.5000 
     20 C           1.0769  -23.5038  -46.3615 C.2       10 UNK         0.5000 
     21 O           0.7310  -24.6808  -46.2664 O.2       10 UNK        -0.5000 
     22 CA          2.1549  -22.9553  -45.4025 C.3       10 UNK         0.1400 
     23 CB          3.5578  -23.0521  -46.0300 C.3       10 UNK        -0.1800 
     24 N           1.8727  -21.6044  -44.8968 N.am      10 UNK        -0.5000 
     25 C           1.8119  -20.4428  -45.5667 C.2       9 UNK         0.5000 
     26 O           2.1478  -20.3157  -46.7440 O.2       9 UNK        -0.5000 
     27 CA          1.2073  -19.2442  -44.8051 C.3       9 UNK         0.1400 
     28 CB          0.5637  -18.2101  -45.7506 C.3       9 UNK        -0.1800 
     29 N           0.2519  -19.6268  -43.7557 N.am      9 UNK        -0.5000 
     30 C          -0.8611  -20.3701  -43.8852 C.2       8 UNK         0.5000 
     31 O          -1.2251  -20.8897  -44.9420 O.2       8 UNK        -0.5000 
     32 CA         -1.6867  -20.6195  -42.6064 C.3       8 UNK         0.1400 
     33 CB         -1.3523  -22.0041  -42.0260 C.3       8 UNK        -0.1800 
     34 N          -1.4759  -19.6100  -41.5670 N.am      8 UNK        -0.5000 
     35 C          -1.9161  -18.3463  -41.6278 C.2       7 UNK         0.5000 
     36 O          -2.6177  -17.9101  -42.5414 O.2       7 UNK        -0.5000 
     37 CA         -1.4672  -17.3852  -40.5067 C.3       7 UNK         0.1400 
     38 CB         -0.9496  -18.0916  -39.2327 C.3       7 UNK        -0.1800 
     39 N          -0.4794  -16.4243  -41.0113 N.am      7 UNK        -0.5000 
     40 C           0.7068  -16.7107  -41.5720 C.2       6 UNK         0.5000 
     41 O           1.1629  -17.8527  -41.6583 O.2       6 UNK        -0.5000 
     42 CA          1.4773  -15.5242  -42.1766 C.3       6 UNK         0.1400 
     43 CB          2.6463  -15.9643  -43.0817 C.3       6 UNK        -0.1800 
     44 N           0.5506  -14.6546  -42.9048 N.am      6 UNK        -0.5000 
     45 C           0.8195  -13.4050  -43.2898 C.2       5 UNK         0.5000 
     46 O           1.9194  -12.8596  -43.1356 O.2       5 UNK        -0.5000 
     47 CA         -0.3226  -12.6322  -43.9712 C.3       5 UNK         0.1400 
     48 CB         -1.3686  -12.1643  -42.9433 C.3       5 UNK        -0.1800 
     49 N           0.3057  -11.4925  -44.6145 N.am      5 UNK        -0.5000 
     50 C          -0.1838  -10.6039  -45.4815 C.2       4 UNK         0.5000 
     51 O          -1.3460  -10.6069  -45.8874 O.2       4 UNK        -0.5000 
     52 CA          0.8312   -9.5681  -46.0198 C.3       4 UNK         0.1400 
     53 CB          0.2553   -8.1378  -46.0660 C.3       4 UNK        -0.1800 
     54 N           2.1306   -9.6256  -45.3257 N.am      4 UNK        -0.5000 
     55 C           2.4083   -9.2599  -44.0623 C.2       3 UNK         0.5000 
     56 O           1.6208   -8.6480  -43.3401 O.2       3 UNK        -0.5000 
     57 CA          3.7653   -9.7198  -43.4905 C.3       3 UNK         0.1400 
     58 CB          3.7093   -9.9350  -41.9668 C.3       3 UNK        -0.1800 
     59 N           4.2110  -10.9690  -44.1167 N.am      3 UNK        -0.5000 
     60 C           5.2292  -11.0686  -44.9803 C.2       2 UNK         0.5000 
     61 O           5.9066  -10.1091  -45.3508 O.2       2 UNK        -0.5000 
     62 CA          5.5457  -12.4683  -45.5428 C.3       2 UNK         0.1400 
     63 CB          6.5504  -13.1924  -44.6339 C.3       2 UNK        -0.1800 
     64 N           4.3910  -13.3449  -45.7580 N.am      2 UNK        -0.5000 
     65 C           3.3162  -13.0833  -46.5122 C.2       1 UNK         0.5000 
     66 O           3.0950  -11.9850  -47.0258 O.2       1 UNK        -0.5000 
     67 C          -1.7397  -23.5755  -47.7498 C.2       11 UNK         0.5000 
     68 O          -2.2762  -24.4740  -48.3976 O.2       11 UNK        -0.5000 
     69 N          -2.2384  -23.1051  -46.5975 N.am      12 UNK        -0.5000 
     70 CA         -3.4601  -23.6405  -45.9889 C.3       12 UNK         0.1400 
     71 CB         -4.0286  -22.6361  -44.9786 C.3       12 UNK        -0.1800 
     72 C          -3.2407  -25.0157  -45.3327 C.2       12 UNK         0.5000 
     73 O          -4.1625  -25.8312  -45.3215 O.2       12 UNK        -0.5000 
     74 N          -2.0238  -25.2617  -44.8272 N.am      13 UNK        -0.5000 
     75 CA         -1.6135  -26.5438  -44.2515 C.3       13 UNK         0.1400 
     76 CB         -0.3813  -26.3339  -43.3576 C.3       13 UNK        -0.1800 
     77 C          -1.3349  -27.5926  -45.3436 C.2       13 UNK         0.5000 
     78 O          -1.7073  -28.7554  -45.1852 O.2       13 UNK        -0.5000 
     79 N          -0.7149  -27.1508  -46.4463 N.am      14 UNK        -0.5000 
     80 CA         -0.4317  -27.9523  -47.6386 C.3       14 UNK         0.1400 
     81 CB          0.6330  -27.2202  -48.4717 C.3       14 UNK        -0.1800 
     82 C          -1.6769  -28.2349  -48.5048 C.2       14 UNK         0.5000 
     83 O          -1.6154  -29.1029  -49.3756 O.2       14 UNK        -0.5000 
     84 N          -2.7596  -27.4760  -48.2757 N.am      15 UNK        -0.5000 
     85 CA         -4.0184  -27.4383  -49.0318 C.3       15 UNK         0.1400 
     86 CB         -4.7294  -28.8070  -49.0281 C.3       15 UNK        -0.1800 
     87 C          -3.8666  -26.8446  -50.4500 C.2       15 UNK         0.5000 
     88 O          -4.7596  -27.0012  -51.2837 O.2       15 UNK        -0.5000 
     89 N          -2.7642  -26.1200  -50.6838 N.am      16 UNK        -0.5000 
     90 CA         -2.4920  -25.3497  -51.8961 C.3       16 UNK         0.1400 
     91 CB         -1.0067  -24.9621  -51.9254 C.3       16 UNK        -0.1800 
     92 C          -3.3759  -24.0944  -51.9959 C.2       16 UNK         0.5000 
     93 O          -3.6501  -23.6365  -53.1037 O.2       16 UNK        -0.5000 
     94 N          -3.8511  -23.5878  -50.8477 N.am      17 UNK        -0.5000 
     95 CA         -4.7716  -22.4517  -50.7282 C.3       17 UNK         0.1400 
     96 CB         -4.9924  -22.1446  -49.2397 C.3       17 UNK        -0.1800 
     97 C          -6.1242  -22.6412  -51.4474 C.2       17 UNK         0.5000 
     98 O          -6.7819  -21.6506  -51.7623 O.2       17 UNK        -0.5000 
     99 N          -6.5098  -23.8978  -51.7103 N.am      18 UNK        -0.5000 
    100 CA        -7.6854  -24.2520  -52.5049 C.3       18 UNK         0.1400 
    101 CB        -8.0483  -25.7182  -52.2237 C.3       18 UNK        -0.1800 
    102 C         -7.4817  -24.0294  -54.0183 C.2       18 UNK         0.5000 
    103 O         -8.4679  -23.8428  -54.7324 O.2       18 UNK        -0.5000 
    104 N         -6.2248  -24.0686  -54.4822 N.am      19 UNK        -0.5000 
    105 CA        -5.8440  -23.9063  -55.8859 C.3       19 UNK         0.1400 
    106 CB        -4.8089  -24.9844  -56.2453 C.3       19 UNK        -0.1800 
    107 C         -5.2750  -22.5058  -56.1713 C.2       19 UNK         0.5000 
    108 O         -5.4838  -21.9827  -57.2671 O.2       19 UNK        -0.5000 
    109 N         -4.5546  -21.9325  -55.1977 N.am      20 UNK        -0.5000 
    110 CA        -3.9243  -20.6150  -55.2694 C.3       20 UNK         0.1400 
    111 CB        -3.0524  -20.4172  -54.0186 C.3       20 UNK        -0.1800 
    112 C         -4.9404  -19.4634  -55.3918 C.2       20 UNK         0.5000 
    113 O         -6.0557  -19.5583  -54.8748 O.2       20 UNK        -0.5000 
    114 N         -4.5113  -18.3761  -56.0452 N.am      21 UNK        -0.5000 
    115 CA        -5.2798  -17.1351  -56.1769 C.3       21 UNK         0.1400 
    116 CB        -4.7269  -16.3307  -57.3639 C.3       21 UNK        -0.1800 
    117 C         -5.2633  -16.2805  -54.8931 C.2       21 UNK         0.5000 
    118 O         -6.1636  -15.4619  -54.7044 O.2       21 UNK        -0.5000 
    119 N         -4.2413  -16.4821  -54.0483 N.am      22 UNK        -0.5000 
    120 CA        -4.0231  -15.8145  -52.7507 C.3       22 UNK         0.1400 
    121 C         -3.6753  -14.2961  -52.8411 C.2       22 UNK         0.5000 
    122 N         -3.2993  -13.7703  -54.0006 N.am      22 UNK        -0.7600 
    123 O         -3.7119  -13.5842  -51.8411 O.2       22 UNK        -0.5000 
    124 C124       -5.1460  -16.1071  -51.7132 C.3       23 UNK        -0.0398 
    125 S125       -5.3870  -17.8923  -51.4066 S.3       23 UNK        -0.2404 
    126 C126       -4.4995  -18.1145  -49.8330 C.3       23 UNK        -0.0205 
    127 H127        3.9208  -17.2192  -48.9599 H         1 UNK         0.0600 
    128 H128        5.4463  -17.2688  -48.0695 H         1 UNK         0.0600 
    129 H129        4.1007  -18.3056  -47.5810 H         1 UNK         0.0600 
    130 H130        2.7380  -15.4110  -48.4743 H         1 UNK         0.3000 
    131 H131        2.0801  -14.6547  -45.7690 H         1 UNK         0.0600 
    132 H132        0.5569  -13.0200  -46.8811 H         1 UNK         0.0800 
    133 H133        1.2432  -13.3985  -48.4315 H         1 UNK         0.0800 
    134 H134        0.7337  -15.3348  -49.8182 H         1 UNK         0.0800 
    135 H135       -0.8107  -14.5155  -49.8149 H         1 UNK         0.0800 
    136 H136       -2.9169  -15.9695  -49.2099 H         1 UNK         0.1150 
    137 H137       -2.7497  -19.9259  -50.8486 H         1 UNK         0.1150 
    138 H138        0.8404  -17.6269  -50.4444 H         1 UNK         0.1150 
    139 H139       -0.7013  -20.6743  -51.9350 H         1 UNK         0.0800 
    140 H140        0.7109  -19.6508  -51.9587 H         1 UNK         0.0800 
    141 H141       -1.1947  -20.9352  -48.5589 H         1 UNK         0.0800 
    142 H142       -1.5003  -21.9921  -49.9218 H         1 UNK         0.0800 
    143 H143        0.0280  -23.7178  -48.9210 H         1 UNK         0.0600 
    144 H144        0.9256  -21.7097  -47.2588 H         1 UNK         0.3000 
    145 H145        2.1453  -23.6041  -44.5253 H         1 UNK         0.0600 
    146 H146        4.3239  -22.6997  -45.3395 H         1 UNK         0.0600 
    147 H147        3.7972  -24.0859  -46.2821 H         1 UNK         0.0600 
    148 H148        3.6385  -22.4695  -46.9479 H         1 UNK         0.0600 
    149 H149        1.5523  -21.5754  -43.9395 H         1 UNK         0.3000 
    150 H150        2.0438  -18.7628  -44.2983 H         1 UNK         0.0600 
    151 H151        0.1636  -17.3624  -45.1943 H         1 UNK         0.0600 
    152 H152       -0.2512  -18.6444  -46.3311 H         1 UNK         0.0600 
    153 H153        1.2922  -17.8148  -46.4588 H         1 UNK         0.0600 
    154 H154        0.4592  -19.2361  -42.8406 H         1 UNK         0.3000 
    155 H155       -2.7411  -20.6046  -42.8885 H         1 UNK         0.0600 
    156 H156       -2.0149  -22.2529  -41.1969 H         1 UNK         0.0600 
    157 H157       -0.3259  -22.0492  -41.6599 H         1 UNK         0.0600 
    158 H158       -1.4626  -22.7893  -42.7748 H         1 UNK         0.0600 
    159 H159       -0.8851  -19.8731  -40.7915 H         1 UNK         0.3000 
    160 H160       -2.3505  -16.8096  -40.2257 H         1 UNK         0.0600 
    161 H161       -0.0335  -18.6563  -39.4069 H         1 UNK         0.0600 
    162 H162       -1.6957  -18.7821  -38.8373 H         1 UNK         0.0600 
    163 H163       -0.7398  -17.3652  -38.4475 H         1 UNK         0.0600 
    164 H164       -0.7653  -15.4562  -40.9759 H         1 UNK         0.3000 
    165 H165        1.8896  -14.9656  -41.3338 H         1 UNK         0.0600 
    166 H166        2.2834  -16.4458  -43.9885 H         1 UNK         0.0600 
    167 H167        3.2651  -15.1189  -43.3803 H         1 UNK         0.0600 
    168 H168        3.3051  -16.6682  -42.5721 H         1 UNK         0.0600 
    169 H169       -0.3615  -15.0483  -43.0933 H         1 UNK         0.3000 
    170 H170       -0.7884  -13.2649  -44.7290 H         1 UNK         0.0600 
    171 H171       -1.8276  -13.0124  -42.4344 H         1 UNK         0.0600 
    172 H172       -0.9221  -11.5242  -42.1812 H         1 UNK         0.0600 
    173 H173       -2.1725  -11.6036  -43.4201 H         1 UNK         0.0600 
    174 H174        1.2777  -11.4008  -44.3463 H         1 UNK         0.3000 
    175 H175        1.0386   -9.8663  -47.0485 H         1 UNK         0.0600 
    176 H176        0.9996   -7.4227  -46.4160 H         1 UNK         0.0600 
    177 H177       -0.5923   -8.0845  -46.7500 H         1 UNK         0.0600 
    178 H178       -0.0996   -7.8068  -45.0900 H         1 UNK         0.0600 
    179 H179        2.8414  -10.1507  -45.8229 H         1 UNK         0.3000 
    180 H180        4.4749   -8.9135  -43.6853 H         1 UNK         0.0600 
    181 H181        2.9652  -10.6843  -41.6940 H         1 UNK         0.0600 
    182 H182        4.6737  -10.2656  -41.5810 H         1 UNK         0.0600 
    183 H183        3.4544   -9.0112  -41.4461 H         1 UNK         0.0600 
    184 H184        3.6938  -11.8047  -43.8664 H         1 UNK         0.3000 
    185 H185        6.0168  -12.3215  -46.5167 H         1 UNK         0.0600 
    186 H186        6.8759  -14.1340  -45.0768 H         1 UNK         0.0600 
    187 H187        7.4420  -12.5854  -44.4711 H         1 UNK         0.0600 
    188 H188        6.1190  -13.4132  -43.6566 H         1 UNK         0.0600 
    189 H189        4.4916  -14.3021  -45.4329 H         1 UNK         0.3000 
    190 H190       -1.7685  -22.3457  -46.1096 H         1 UNK         0.3000 
    191 H191       -4.2063  -23.7713  -46.7746 H         1 UNK         0.0600 
    192 H192       -5.0056  -22.9597  -44.6179 H         1 UNK         0.0600 
    193 H193       -3.3808  -22.5336  -44.1110 H         1 UNK         0.0600 
    194 H194       -4.1551  -21.6501  -45.4262 H         1 UNK         0.0600 
    195 H195       -1.3060  -24.5595  -44.9329 H         1 UNK         0.3000 
    196 H196       -2.4241  -26.9202  -43.6236 H         1 UNK         0.0600 
    197 H197       -0.0813  -27.2697  -42.8845 H         1 UNK         0.0600 
    198 H198       -0.5898  -25.6194  -42.5610 H         1 UNK         0.0600 
    199 H199        0.4748  -25.9650  -43.9229 H         1 UNK         0.0600 
    200 H200       -0.3687  -26.1944  -46.4543 H         1 UNK         0.3000 
    201 H201       -0.0230  -28.9141  -47.3223 H         1 UNK         0.0600 
    202 H202        1.5427  -27.0572  -47.8935 H         1 UNK         0.0600 
    203 H203        0.2762  -26.2479  -48.8135 H         1 UNK         0.0600 
    204 H204        0.9085  -27.7984  -49.3546 H         1 UNK         0.0600 
    205 H205       -2.6736  -26.7703  -47.5572 H         1 UNK         0.3000 
    206 H206       -4.6592  -26.7406  -48.4908 H         1 UNK         0.0600 
    207 H207       -4.8152  -29.2039  -48.0165 H         1 UNK         0.0600 
    208 H208       -5.7401  -28.7217  -49.4289 H         1 UNK         0.0600 
    209 H209       -4.2022  -29.5426  -49.6356 H         1 UNK         0.0600 
    210 H210       -2.1429  -25.9632  -49.9006 H         1 UNK         0.3000 
    211 H211       -2.7043  -25.9793  -52.7626 H         1 UNK         0.0600 
    212 H212       -0.7423  -24.3135  -51.0908 H         1 UNK         0.0600 
    213 H213       -0.7618  -24.4281  -52.8445 H         1 UNK         0.0600 
    214 H214       -0.3674  -25.8441  -51.8812 H         1 UNK         0.0600 
    215 H215       -3.5541  -24.0251  -49.9829 H         1 UNK         0.3000 
    216 H216       -4.2908  -21.5883  -51.1872 H         1 UNK         0.0600 
    217 H217       -5.6938  -21.3200  -49.1078 H         1 UNK         0.0600 
    218 H218       -4.0618  -21.8563  -48.7515 H         1 UNK         0.0600 
    219 H219       -5.4020  -23.0064  -48.7122 H         1 UNK         0.0600 
    220 H220       -5.9172  -24.6607  -51.4143 H         1 UNK         0.3000 
    221 H221       -8.5229  -23.6272  -52.1870 H         1 UNK         0.0600 
    222 H222       -7.2466  -26.3953  -52.5218 H         1 UNK         0.0600 
    223 H223       -8.2471  -25.8801  -51.1641 H         1 UNK         0.0600 
    224 H224       -8.9454  -26.0107  -52.7708 H         1 UNK         0.0600 
    225 H225       -5.4623  -24.1721  -53.8233 H         1 UNK         0.3000 
    226 H226       -6.7122  -24.0487  -56.5329 H         1 UNK         0.0600 
    227 H227       -4.5079  -24.9040  -57.2906 H         1 UNK         0.0600 
    228 H228       -3.9080  -24.8992  -55.6362 H         1 UNK         0.0600 
    229 H229       -5.2170  -25.9848  -56.1006 H         1 UNK         0.0600 
    230 H230       -4.3839  -22.4623  -54.3485 H         1 UNK         0.3000 
    231 H231       -3.2785  -20.6071  -56.1498 H         1 UNK         0.0600 
    232 H232       -2.4973  -19.4798  -54.0666 H         1 UNK         0.0600 
    233 H233       -2.3236  -21.2207  -53.9107 H         1 UNK         0.0600 
    234 H234       -3.6601  -20.3896  -53.1142 H         1 UNK         0.0600 
    235 H235       -3.5880  -18.3790  -56.4548 H         1 UNK         0.3000 
    236 H236       -6.3205  -17.3870  -56.3924 H         1 UNK         0.0600 
    237 H237       -3.6818  -16.0569  -57.2151 H         1 UNK         0.0600 
    238 H238       -4.7968  -16.8990  -58.2916 H         1 UNK         0.0600 
    239 H239       -5.2910  -15.4080  -57.5072 H         1 UNK         0.0600 
    240 H240       -3.5530  -17.1743  -54.3006 H         1 UNK         0.3000 
    241 H241       -3.1091  -16.2635  -52.3623 H         1 UNK         0.0600 
    242 H242       -3.0662  -12.7908  -54.0483 H         1 UNK         0.3800 
    243 H243       -3.2532  -14.3380  -54.8311 H         1 UNK         0.3800 
    244 H244       -6.0943  -15.6868  -52.0492 H         1 UNK         0.0800 
    245 H245       -4.9310  -15.6191  -50.7618 H         1 UNK         0.0800 
    246 H246       -4.8771  -17.4074  -49.0929 H         1 UNK         0.0800 
    247 H247       -4.7206  -19.1077  -49.4418 H         1 UNK         0.0800 
@<TRIPOS>BOND
     1    1    2 1    
     2    1  127 1    
     3    1  128 1    
     4    1  129 1    
     5    2    3 2    
     6    2    4 am   BACKBONE|DICT|INTERRES
     7    4    5 1    
     8    4  130 1    
     9    5    6 1    
    10    5   65 1    
    11    5  131 1    
    12    6    7 1    
    13    6  132 1    
    14    6  133 1    
    15    7    8 1    
    16    8    9 1    
    17    8  134 1    
    18    8  135 1    
    19    9   10 ar   
    20    9   14 ar   
    21   10   11 ar   
    22   10  136 1    
    23   11   12 ar   
    24   11  126 1    
    25   12   13 ar   
    26   12  137 1    
    27   13   14 ar   
    28   13   15 1    
    29   14  138 1    
    30   15   16 1    
    31   15  139 1    
    32   15  140 1    
    33   16   17 1    
    34   17   18 1    
    35   17  141 1    
    36   17  142 1    
    37   18   19 1    
    38   18   67 1    
    39   18  143 1    
    40   19   20 am   BACKBONE|DICT|INTERRES
    41   19  144 1    
    42   20   21 2    
    43   20   22 1    
    44   22   23 1    
    45   22   24 1    
    46   22  145 1    
    47   23  146 1    
    48   23  147 1    
    49   23  148 1    
    50   24   25 am   BACKBONE|DICT|INTERRES
    51   24  149 1    
    52   25   26 2    
    53   25   27 1    
    54   27   28 1    
    55   27   29 1    
    56   27  150 1    
    57   28  151 1    
    58   28  152 1    
    59   28  153 1    
    60   29   30 am   BACKBONE|DICT|INTERRES
    61   29  154 1    
    62   30   31 2    
    63   30   32 1    
    64   32   33 1    
    65   32   34 1    
    66   32  155 1    
    67   33  156 1    
    68   33  157 1    
    69   33  158 1    
    70   34   35 am   BACKBONE|DICT|INTERRES
    71   34  159 1    
    72   35   36 2    
    73   35   37 1    
    74   37   38 1    
    75   37   39 1    
    76   37  160 1    
    77   38  161 1    
    78   38  162 1    
    79   38  163 1    
    80   39   40 am   BACKBONE|DICT|INTERRES
    81   39  164 1    
    82   40   41 2    
    83   40   42 1    
    84   42   43 1    
    85   42   44 1    
    86   42  165 1    
    87   43  166 1    
    88   43  167 1    
    89   43  168 1    
    90   44   45 am   BACKBONE|DICT|INTERRES
    91   44  169 1    
    92   45   46 2    
    93   45   47 1    
    94   47   48 1    
    95   47   49 1    
    96   47  170 1    
    97   48  171 1    
    98   48  172 1    
    99   48  173 1    
   100   49   50 am   BACKBONE|DICT|INTERRES
   101   49  174 1    
   102   50   51 2    
   103   50   52 1    
   104   52   53 1    
   105   52   54 1    
   106   52  175 1    
   107   53  176 1    
   108   53  177 1    
   109   53  178 1    
   110   54   55 am   BACKBONE|DICT|INTERRES
   111   54  179 1    
   112   55   56 2    
   113   55   57 1    
   114   57   58 1    
   115   57   59 1    
   116   57  180 1    
   117   58  181 1    
   118   58  182 1    
   119   58  183 1    
   120   59   60 am   BACKBONE|DICT|INTERRES
   121   59  184 1    
   122   60   61 2    
   123   60   62 1    
   124   62   63 1    
   125   62   64 1    
   126   62  185 1    
   127   63  186 1    
   128   63  187 1    
   129   63  188 1    
   130   64   65 am   BACKBONE|DICT|INTERRES
   131   64  189 1    
   132   65   66 2    
   133   67   68 2    
   134   67   69 am   BACKBONE|DICT|INTERRES
   135   69   70 1    
   136   69  190 1    
   137   70   71 1    
   138   70   72 1    
   139   70  191 1    
   140   71  192 1    
   141   71  193 1    
   142   71  194 1    
   143   72   73 2    
   144   72   74 am   BACKBONE|DICT|INTERRES
   145   74   75 1    
   146   74  195 1    
   147   75   76 1    
   148   75   77 1    
   149   75  196 1    
   150   76  197 1    
   151   76  198 1    
   152   76  199 1    
   153   77   78 2    
   154   77   79 am   BACKBONE|DICT|INTERRES
   155   79   80 1    
   156   79  200 1    
   157   80   81 1    
   158   80   82 1    
   159   80  201 1    
   160   81  202 1    
   161   81  203 1    
   162   81  204 1    
   163   82   83 2    
   164   82   84 am   BACKBONE|DICT|INTERRES
   165   84   85 1    
   166   84  205 1    
   167   85   86 1    
   168   85   87 1    
   169   85  206 1    
   170   86  207 1    
   171   86  208 1    
   172   86  209 1    
   173   87   88 2    
   174   87   89 am   BACKBONE|DICT|INTERRES
   175   89   90 1    
   176   89  210 1    
   177   90   91 1    
   178   90   92 1    
   179   90  211 1    
   180   91  212 1    
   181   91  213 1    
   182   91  214 1    
   183   92   93 2    
   184   92   94 am   BACKBONE|DICT|INTERRES
   185   94   95 1    
   186   94  215 1    
   187   95   96 1    
   188   95   97 1    
   189   95  216 1    
   190   96  217 1    
   191   96  218 1    
   192   96  219 1    
   193   97   98 2    
   194   97   99 am   BACKBONE|DICT|INTERRES
   195   99  100 1    
   196   99  220 1    
   197  100  101 1    
   198  100  102 1    
   199  100  221 1    
   200  101  222 1    
   201  101  223 1    
   202  101  224 1    
   203  102  103 2    
   204  102  104 am   BACKBONE|DICT|INTERRES
   205  104  105 1    
   206  104  225 1    
   207  105  106 1    
   208  105  107 1    
   209  105  226 1    
   210  106  227 1    
   211  106  228 1    
   212  106  229 1    
   213  107  108 2    
   214  107  109 am   BACKBONE|DICT|INTERRES
   215  109  110 1    
   216  109  230 1    
   217  110  111 1    
   218  110  112 1    
   219  110  231 1    
   220  111  232 1    
   221  111  233 1    
   222  111  234 1    
   223  112  113 2    
   224  112  114 am   BACKBONE|DICT|INTERRES
   225  114  115 1    
   226  114  235 1    
   227  115  116 1    
   228  115  117 1    
   229  115  236 1    
   230  116  237 1    
   231  116  238 1    
   232  116  239 1    
   233  117  118 2    
   234  117  119 am   BACKBONE|DICT|INTERRES
   235  119  120 1    
   236  119  240 1    
   237  120  121 1    
   238  120  124 1    
   239  120  241 1    
   240  121  122 am   BACKBONE|DICT|INTERRES
   241  121  123 2    
   242  122  242 1    
   243  122  243 1    
   244  124  125 1    
   245  124  244 1    
   246  124  245 1    
   247  125  126 1    
   248  126  246 1    
   249  126  247 1    
@<TRIPOS>SUBSTRUCTURE
     1 UNK         1 GROUP             0       ****    0 ROOT    
