@<TRIPOS>MOLECULE
3R540
247   249    1
SMALL
USER_CHARGES


@<TRIPOS>ATOM
      1 CA         -4.2761  -17.8762  -45.9655 C.3       0 UNK        -0.1800 
      2 C          -4.0701  -16.3674  -45.9793 C.2       0 UNK         0.5000 
      3 O          -4.4147  -15.6908  -45.0108 O.2       0 UNK        -0.5000 
      4 N          -3.5187  -15.8419  -47.0793 N.am      1 UNK        -0.5000 
      5 CA         -3.1926  -14.4291  -47.2864 C.3       1 UNK         0.1400 
      6 C6         -2.7824  -14.1368  -48.7508 C.3       23 UNK        -0.0398 
      7 S7         -4.1147  -14.4276  -49.9683 S.3       23 UNK        -0.2404 
      8 C8         -4.0207  -16.2186  -50.3055 C.3       23 UNK        -0.0205 
      9 C9         -2.6283  -16.6829  -50.7046 C.ar      23 UNK        -0.0193 
     10 C10        -2.1525  -16.4397  -51.9953 C.ar      23 UNK        -0.1150 
     11 C11        -0.8709  -16.8534  -52.3689 C.ar      23 UNK        -0.0193 
     12 C12        -0.0612  -17.5096  -51.4364 C.ar      23 UNK        -0.1150 
     13 C13        -0.5214  -17.7480  -50.1378 C.ar      23 UNK        -0.0193 
     14 C14        -1.8114  -17.3476  -49.7833 C.ar      23 UNK        -0.1150 
     15 C15         0.3910  -18.3975  -49.1080 C.3       23 UNK        -0.0205 
     16 S16         0.2491  -20.2098  -49.1149 S.3       23 UNK        -0.2404 
     17 C17        -1.2110  -20.4880  -48.0561 C.3       23 UNK        -0.0398 
     18 CA         -1.0981  -21.8382  -47.3108 C.3       11 UNK         0.1400 
     19 N          -0.0689  -21.8407  -46.2685 N.am      11 UNK        -0.5000 
     20 C           0.3831  -22.9539  -45.6739 C.2       10 UNK         0.5000 
     21 O          -0.0233  -24.0847  -45.9407 O.2       10 UNK        -0.5000 
     22 CA          1.4300  -22.7796  -44.5635 C.3       10 UNK         0.1400 
     23 CB          2.8038  -22.4332  -45.1563 C.3       10 UNK        -0.1800 
     24 N           1.0379  -21.7755  -43.5755 N.am      10 UNK        -0.5000 
     25 C          -0.0503  -21.8627  -42.7964 C.2       9 UNK         0.5000 
     26 O          -0.8325  -22.8135  -42.8150 O.2       9 UNK        -0.5000 
     27 CA         -0.3368  -20.6718  -41.8645 C.3       9 UNK         0.1400 
     28 CB          0.5631  -20.7236  -40.6210 C.3       9 UNK        -0.1800 
     29 N          -0.1876  -19.3759  -42.5270 N.am      9 UNK        -0.5000 
     30 C          -0.9083  -18.9749  -43.5852 C.2       8 UNK         0.5000 
     31 O          -1.7843  -19.6529  -44.1193 O.2       8 UNK        -0.5000 
     32 CA         -0.5445  -17.6098  -44.1895 C.3       8 UNK         0.1400 
     33 CB         -1.0233  -16.4663  -43.2821 C.3       8 UNK        -0.1800 
     34 N           0.8914  -17.4854  -44.4277 N.am      8 UNK        -0.5000 
     35 C           1.6103  -18.2967  -45.2166 C.2       7 UNK         0.5000 
     36 O           1.1342  -19.2253  -45.8691 O.2       7 UNK        -0.5000 
     37 CA          3.1286  -18.0646  -45.2312 C.3       7 UNK         0.1400 
     38 CB          3.4905  -16.8613  -46.1161 C.3       7 UNK        -0.1800 
     39 N           3.6656  -17.8775  -43.8818 N.am      7 UNK        -0.5000 
     40 C           3.6909  -18.8316  -42.9388 C.2       6 UNK         0.5000 
     41 O           3.2820  -19.9783  -43.1127 O.2       6 UNK        -0.5000 
     42 CA          4.2344  -18.4290  -41.5571 C.3       6 UNK         0.1400 
     43 CB          5.7691  -18.4869  -41.5393 C.3       6 UNK        -0.1800 
     44 N           3.7933  -17.0961  -41.1493 N.am      6 UNK        -0.5000 
     45 C           2.5254  -16.7731  -40.8582 C.2       5 UNK         0.5000 
     46 O           1.5892  -17.5729  -40.8764 O.2       5 UNK        -0.5000 
     47 CA          2.2586  -15.2871  -40.5531 C.3       5 UNK         0.1400 
     48 CB          2.6067  -14.9587  -39.0935 C.3       5 UNK        -0.1800 
     49 N           2.9877  -14.3811  -41.4490 N.am      5 UNK        -0.5000 
     50 C           2.8021  -14.3415  -42.7737 C.2       4 UNK         0.5000 
     51 O           2.0122  -15.0793  -43.3707 O.2       4 UNK        -0.5000 
     52 CA          3.6405  -13.3398  -43.5782 C.3       4 UNK         0.1400 
     53 CB          5.0336  -13.9104  -43.8984 C.3       4 UNK        -0.1800 
     54 N           2.8917  -13.0906  -44.7994 N.am      4 UNK        -0.5000 
     55 C           3.0378  -12.0966  -45.6785 C.2       3 UNK         0.5000 
     56 O           3.9471  -11.2670  -45.6467 O.2       3 UNK        -0.5000 
     57 CA          1.9311  -12.0007  -46.7478 C.3       3 UNK         0.1400 
     58 CB          2.2437  -12.9195  -47.9393 C.3       3 UNK        -0.1800 
     59 N           0.6208  -12.3608  -46.1965 N.am      3 UNK        -0.5000 
     60 C          -0.0619  -11.6302  -45.3054 C.2       2 UNK         0.5000 
     61 O           0.2737  -10.4935  -44.9677 O.2       2 UNK        -0.5000 
     62 CA         -1.3131  -12.2885  -44.6808 C.3       2 UNK         0.1400 
     63 CB         -2.1008  -11.3264  -43.7730 C.3       2 UNK        -0.1800 
     64 N          -2.2330  -12.8527  -45.6712 N.am      2 UNK        -0.5000 
     65 C          -2.0588  -14.0007  -46.3361 C.2       1 UNK         0.5000 
     66 O          -1.0414  -14.6929  -46.2516 O.2       1 UNK        -0.5000 
     67 C          -2.4630  -22.3053  -46.7739 C.2       11 UNK         0.5000 
     68 O          -3.1390  -23.0663  -47.4647 O.2       11 UNK        -0.5000 
     69 N          -2.8413  -21.8952  -45.5545 N.am      12 UNK        -0.5000 
     70 CA         -4.0551  -22.3565  -44.8744 C.3       12 UNK         0.1400 
     71 CB         -4.2409  -21.5983  -43.5522 C.3       12 UNK        -0.1800 
     72 C          -4.0698  -23.8781  -44.6414 C.2       12 UNK         0.5000 
     73 O          -5.0894  -24.5191  -44.8983 O.2       12 UNK        -0.5000 
     74 N          -2.9359  -24.4236  -44.1841 N.am      13 UNK        -0.5000 
     75 CA         -2.7627  -25.8448  -43.9026 C.3       13 UNK         0.1400 
     76 CB         -1.5328  -26.0393  -43.0010 C.3       13 UNK        -0.1800 
     77 C          -2.6490  -26.7049  -45.1736 C.2       13 UNK         0.5000 
     78 O          -3.3955  -27.6742  -45.3167 O.2       13 UNK        -0.5000 
     79 N          -1.6930  -26.3689  -46.0491 N.am      14 UNK        -0.5000 
     80 CA         -1.2625  -27.2384  -47.1453 C.3       14 UNK         0.1400 
     81 CB          0.2463  -27.0481  -47.3689 C.3       14 UNK        -0.1800 
     82 C          -2.0185  -27.0036  -48.4617 C.2       14 UNK         0.5000 
     83 O          -2.1416  -27.9431  -49.2490 O.2       14 UNK        -0.5000 
     84 N          -2.4813  -25.7700  -48.6993 N.am      15 UNK        -0.5000 
     85 CA         -3.0504  -25.3375  -49.9796 C.3       15 UNK         0.1400 
     86 CB         -2.1743  -24.2069  -50.5473 C.3       15 UNK        -0.1800 
     87 C          -4.5207  -24.8999  -49.8613 C.2       15 UNK         0.5000 
     88 O          -5.0587  -24.3556  -50.8259 O.2       15 UNK        -0.5000 
     89 N          -5.1414  -25.1126  -48.6902 N.am      16 UNK        -0.5000 
     90 CA         -6.5200  -24.7405  -48.3441 C.3       16 UNK         0.1400 
     91 CB         -7.5251  -25.6304  -49.1046 C.3       16 UNK        -0.1800 
     92 C          -6.7952  -23.2294  -48.5194 C.2       16 UNK         0.5000 
     93 O          -7.8330  -22.8438  -49.0585 O.2       16 UNK        -0.5000 
     94 N          -5.8254  -22.4185  -48.0750 N.am      17 UNK        -0.5000 
     95 CA         -5.7212  -20.9567  -48.1578 C.3       17 UNK         0.1400 
     96 CB         -7.0112  -20.2324  -47.7206 C.3       17 UNK        -0.1800 
     97 C          -5.1731  -20.4431  -49.5019 C.2       17 UNK         0.5000 
     98 O          -5.0255  -19.2315  -49.6477 O.2       17 UNK        -0.5000 
     99 N          -4.8263  -21.3504  -50.4276 N.am      18 UNK        -0.5000 
    100 CA        -4.2479  -21.0901  -51.7480 C.3       18 UNK         0.1400 
    101 CB        -2.7996  -20.5642  -51.6242 C.3       18 UNK        -0.1800 
    102 C         -5.1667  -20.2078  -52.6177 C.2       18 UNK         0.5000 
    103 O         -6.2483  -20.6653  -52.9897 O.2       18 UNK        -0.5000 
    104 N         -4.7115  -18.9880  -52.9468 N.am      19 UNK        -0.5000 
    105 CA        -5.3467  -18.0097  -53.8418 C.3       19 UNK         0.1400 
    106 CB        -6.7090  -17.5447  -53.2842 C.3       19 UNK        -0.1800 
    107 C         -5.4376  -18.4928  -55.3075 C.2       19 UNK         0.5000 
    108 O         -6.2700  -18.0021  -56.0722 O.2       19 UNK        -0.5000 
    109 N         -4.5673  -19.4377  -55.6742 N.am      20 UNK        -0.5000 
    110 CA        -4.4329  -20.0521  -56.9859 C.3       20 UNK         0.1400 
    111 CB        -5.5149  -21.1283  -57.1828 C.3       20 UNK        -0.1800 
    112 C         -3.0259  -20.6581  -57.0603 C.2       20 UNK         0.5000 
    113 O         -2.4617  -21.0087  -56.0196 O.2       20 UNK        -0.5000 
    114 N         -2.4855  -20.7528  -58.2835 N.am      21 UNK        -0.5000 
    115 CA        -1.1237  -21.2046  -58.6117 C.3       21 UNK         0.1400 
    116 CB        -0.9292  -22.6923  -58.2494 C.3       21 UNK        -0.1800 
    117 C         -0.0147  -20.2945  -58.0315 C.2       21 UNK         0.5000 
    118 O          1.1139  -20.7457  -57.8284 O.2       21 UNK        -0.5000 
    119 N         -0.3572  -19.0228  -57.7894 N.am      22 UNK        -0.5000 
    120 CA         0.5272  -17.9843  -57.2374 C.3       22 UNK         0.1400 
    121 C          1.5220  -17.3713  -58.2684 C.2       22 UNK         0.5000 
    122 N          1.4148  -17.6612  -59.5596 N.am      22 UNK        -0.7600 
    123 O          2.4172  -16.6223  -57.8867 O.2       22 UNK        -0.5000 
    124 C124       -0.2944  -16.8738  -56.5322 C.3       23 UNK        -0.0398 
    125 S125       -1.1916  -17.4849  -55.0608 S.3       23 UNK        -0.2404 
    126 C126       -0.3421  -16.5369  -53.7593 C.3       23 UNK        -0.0205 
    127 H127       -3.8491  -18.3037  -45.0594 H         1 UNK         0.0600 
    128 H128       -3.8093  -18.3610  -46.8233 H         1 UNK         0.0600 
    129 H129       -5.3405  -18.1077  -45.9778 H         1 UNK         0.0600 
    130 H130       -3.2589  -16.4504  -47.8379 H         1 UNK         0.3000 
    131 H131       -4.0857  -13.8449  -47.0539 H         1 UNK         0.0600 
    132 H132       -2.5053  -13.0857  -48.8509 H         1 UNK         0.0800 
    133 H133       -1.8880  -14.6944  -49.0297 H         1 UNK         0.0800 
    134 H134       -4.7181  -16.4568  -51.1082 H         1 UNK         0.0800 
    135 H135       -4.3803  -16.7676  -49.4370 H         1 UNK         0.0800 
    136 H136       -2.7743  -15.9144  -52.7065 H         1 UNK         0.1150 
    137 H137        0.9376  -17.8172  -51.7126 H         1 UNK         0.1150 
    138 H138       -2.1671  -17.5479  -48.7848 H         1 UNK         0.1150 
    139 H139        1.4276  -18.1321  -49.3201 H         1 UNK         0.0800 
    140 H140        0.1829  -18.0045  -48.1119 H         1 UNK         0.0800 
    141 H141       -2.0910  -20.4638  -48.7008 H         1 UNK         0.0800 
    142 H142       -1.3241  -19.6695  -47.3432 H         1 UNK         0.0800 
    143 H143       -0.7996  -22.5894  -48.0457 H         1 UNK         0.0600 
    144 H144        0.3272  -20.9384  -46.0139 H         1 UNK         0.3000 
    145 H145        1.5199  -23.7356  -44.0435 H         1 UNK         0.0600 
    146 H146        3.5732  -22.4211  -44.3844 H         1 UNK         0.0600 
    147 H147        3.1048  -23.1693  -45.9028 H         1 UNK         0.0600 
    148 H148        2.8002  -21.4562  -45.6404 H         1 UNK         0.0600 
    149 H149        1.6542  -20.9736  -43.4780 H         1 UNK         0.3000 
    150 H150       -1.3744  -20.7542  -41.5349 H         1 UNK         0.0600 
    151 H151        0.2978  -19.9404  -39.9106 H         1 UNK         0.0600 
    152 H152        0.4628  -21.6790  -40.1046 H         1 UNK         0.0600 
    153 H153        1.6150  -20.5971  -40.8795 H         1 UNK         0.0600 
    154 H154        0.5112  -18.7482  -42.1420 H         1 UNK         0.3000 
    155 H155       -1.0492  -17.5178  -45.1535 H         1 UNK         0.0600 
    156 H156       -0.5583  -16.5069  -42.2969 H         1 UNK         0.0600 
    157 H157       -2.1041  -16.5070  -43.1415 H         1 UNK         0.0600 
    158 H158       -0.7886  -15.4957  -43.7161 H         1 UNK         0.0600 
    159 H159        1.3622  -16.7206  -43.9505 H         1 UNK         0.3000 
    160 H160        3.5974  -18.9528  -45.6602 H         1 UNK         0.0600 
    161 H161        3.0533  -15.9352  -45.7433 H         1 UNK         0.0600 
    162 H162        3.1255  -17.0056  -47.1339 H         1 UNK         0.0600 
    163 H163        4.5702  -16.7250  -46.1755 H         1 UNK         0.0600 
    164 H164        3.9785  -16.9506  -43.6393 H         1 UNK         0.3000 
    165 H165        3.8573  -19.1496  -40.8281 H         1 UNK         0.0600 
    166 H166        6.1597  -18.2783  -40.5431 H         1 UNK         0.0600 
    167 H167        6.1248  -19.4776  -41.8256 H         1 UNK         0.0600 
    168 H168        6.2096  -17.7674  -42.2306 H         1 UNK         0.0600 
    169 H169        4.4954  -16.3722  -41.1127 H         1 UNK         0.3000 
    170 H170        1.1903  -15.1100  -40.6957 H         1 UNK         0.0600 
    171 H171        2.0657  -15.6118  -38.4073 H         1 UNK         0.0600 
    172 H172        3.6717  -15.0824  -38.8937 H         1 UNK         0.0600 
    173 H173        2.3352  -13.9326  -38.8450 H         1 UNK         0.0600 
    174 H174        3.6512  -13.7519  -41.0201 H         1 UNK         0.3000 
    175 H175        3.7314  -12.4097  -43.0139 H         1 UNK         0.0600 
    176 H176        4.9700  -14.8345  -44.4725 H         1 UNK         0.0600 
    177 H177        5.6291  -13.2022  -44.4745 H         1 UNK         0.0600 
    178 H178        5.5874  -14.1276  -42.9845 H         1 UNK         0.0600 
    179 H179        2.1012  -13.7166  -44.8997 H         1 UNK         0.3000 
    180 H180        1.8899  -10.9695  -47.1047 H         1 UNK         0.0600 
    181 H181        2.2790  -13.9686  -47.6422 H         1 UNK         0.0600 
    182 H182        3.2091  -12.6701  -48.3814 H         1 UNK         0.0600 
    183 H183        1.4916  -12.8188  -48.7220 H         1 UNK         0.0600 
    184 H184        0.2624  -13.2872  -46.4107 H         1 UNK         0.3000 
    185 H185       -0.9493  -13.1021  -44.0501 H         1 UNK         0.0600 
    186 H186       -1.4701  -10.9338  -42.9743 H         1 UNK         0.0600 
    187 H187       -2.4929  -10.4759  -44.3321 H         1 UNK         0.0600 
    188 H188       -2.9413  -11.8324  -43.2976 H         1 UNK         0.0600 
    189 H189       -3.0806  -12.3263  -45.8275 H         1 UNK         0.3000 
    190 H190       -2.2606  -21.2352  -45.0419 H         1 UNK         0.3000 
    191 H191       -4.9094  -22.1163  -45.5070 H         1 UNK         0.0600 
    192 H192       -4.3560  -20.5284  -43.7257 H         1 UNK         0.0600 
    193 H193       -5.1344  -21.9387  -43.0274 H         1 UNK         0.0600 
    194 H194       -3.3922  -21.7399  -42.8829 H         1 UNK         0.0600 
    195 H195       -2.1498  -23.8178  -43.9684 H         1 UNK         0.3000 
    196 H196       -3.6371  -26.1905  -43.3467 H         1 UNK         0.0600 
    197 H197       -1.3739  -27.0945  -42.7757 H         1 UNK         0.0600 
    198 H198       -1.6567  -25.5188  -42.0512 H         1 UNK         0.0600 
    199 H199       -0.6233  -25.6610  -43.4699 H         1 UNK         0.0600 
    200 H200       -1.1301  -25.5353  -45.8859 H         1 UNK         0.3000 
    201 H201       -1.4195  -28.2809  -46.8593 H         1 UNK         0.0600 
    202 H202        0.8080  -27.2292  -46.4524 H         1 UNK         0.0600 
    203 H203        0.4796  -26.0395  -47.7118 H         1 UNK         0.0600 
    204 H204        0.6198  -27.7430  -48.1221 H         1 UNK         0.0600 
    205 H205       -2.3782  -25.0519  -47.9922 H         1 UNK         0.3000 
    206 H206       -3.0390  -26.1545  -50.7033 H         1 UNK         0.0600 
    207 H207       -1.1329  -24.5180  -50.6305 H         1 UNK         0.0600 
    208 H208       -2.5036  -23.9157  -51.5453 H         1 UNK         0.0600 
    209 H209       -2.2084  -23.3184  -49.9189 H         1 UNK         0.0600 
    210 H210       -4.6025  -25.5410  -47.9509 H         1 UNK         0.3000 
    211 H211       -6.6365  -24.9483  -47.2794 H         1 UNK         0.0600 
    212 H212       -7.4963  -25.4475  -50.1792 H         1 UNK         0.0600 
    213 H213       -8.5454  -25.4437  -48.7679 H         1 UNK         0.0600 
    214 H214       -7.3185  -26.6877  -48.9389 H         1 UNK         0.0600 
    215 H215       -4.9779  -22.8688  -47.7356 H         1 UNK         0.3000 
    216 H216       -4.9576  -20.6863  -47.4287 H         1 UNK         0.0600 
    217 H217       -6.8368  -19.1619  -47.6101 H         1 UNK         0.0600 
    218 H218       -7.3687  -20.6037  -46.7603 H         1 UNK         0.0600 
    219 H219       -7.8123  -20.3472  -48.4505 H         1 UNK         0.0600 
    220 H220       -5.0373  -22.3241  -50.2436 H         1 UNK         0.3000 
    221 H221       -4.1975  -22.0558  -52.2529 H         1 UNK         0.0600 
    222 H222       -2.7494  -19.6205  -51.0843 H         1 UNK         0.0600 
    223 H223       -2.1664  -21.2742  -51.0950 H         1 UNK         0.0600 
    224 H224       -2.3476  -20.4106  -52.6052 H         1 UNK         0.0600 
    225 H225       -3.8159  -18.7113  -52.5690 H         1 UNK         0.3000 
    226 H226       -4.6848  -17.1429  -53.8536 H         1 UNK         0.0600 
    227 H227       -6.6356  -17.2582  -52.2356 H         1 UNK         0.0600 
    228 H228       -7.0785  -16.6775  -53.8324 H         1 UNK         0.0600 
    229 H229       -7.4666  -18.3247  -53.3631 H         1 UNK         0.0600 
    230 H230       -3.8788  -19.7615  -55.0060 H         1 UNK         0.3000 
    231 H231       -4.5296  -19.2823  -57.7542 H         1 UNK         0.0600 
    232 H232       -5.4540  -21.9016  -56.4158 H         1 UNK         0.0600 
    233 H233       -5.4105  -21.6163  -58.1525 H         1 UNK         0.0600 
    234 H234       -6.5153  -20.6971  -57.1430 H         1 UNK         0.0600 
    235 H235       -3.0370  -20.4464  -59.0736 H         1 UNK         0.3000 
    236 H236       -1.0345  -21.1223  -59.6958 H         1 UNK         0.0600 
    237 H237       -0.9170  -22.8504  -57.1708 H         1 UNK         0.0600 
    238 H238       -1.7240  -23.3081  -58.6703 H         1 UNK         0.0600 
    239 H239        0.0148  -23.0705  -58.6435 H         1 UNK         0.0600 
    240 H240       -1.3048  -18.7388  -57.9848 H         1 UNK         0.3000 
    241 H241        1.1548  -18.4557  -56.4784 H         1 UNK         0.0600 
    242 H242        0.6885  -18.2759  -59.8899 H         1 UNK         0.3800 
    243 H243        2.0689  -17.2612  -60.2143 H         1 UNK         0.3800 
    244 H244        0.3535  -16.0486  -56.2311 H         1 UNK         0.0800 
    245 H245       -1.0192  -16.4410  -57.2235 H         1 UNK         0.0800 
    246 H246       -0.4673  -15.4700  -53.9501 H         1 UNK         0.0800 
    247 H247        0.7291  -16.7376  -53.8146 H         1 UNK         0.0800 
@<TRIPOS>BOND
     1    1    2 1    
     2    1  127 1    
     3    1  128 1    
     4    1  129 1    
     5    2    3 2    
     6    2    4 am   BACKBONE|DICT|INTERRES
     7    4    5 1    
     8    4  130 1    
     9    5    6 1    
    10    5   65 1    
    11    5  131 1    
    12    6    7 1    
    13    6  132 1    
    14    6  133 1    
    15    7    8 1    
    16    8    9 1    
    17    8  134 1    
    18    8  135 1    
    19    9   10 ar   
    20    9   14 ar   
    21   10   11 ar   
    22   10  136 1    
    23   11   12 ar   
    24   11  126 1    
    25   12   13 ar   
    26   12  137 1    
    27   13   14 ar   
    28   13   15 1    
    29   14  138 1    
    30   15   16 1    
    31   15  139 1    
    32   15  140 1    
    33   16   17 1    
    34   17   18 1    
    35   17  141 1    
    36   17  142 1    
    37   18   19 1    
    38   18   67 1    
    39   18  143 1    
    40   19   20 am   BACKBONE|DICT|INTERRES
    41   19  144 1    
    42   20   21 2    
    43   20   22 1    
    44   22   23 1    
    45   22   24 1    
    46   22  145 1    
    47   23  146 1    
    48   23  147 1    
    49   23  148 1    
    50   24   25 am   BACKBONE|DICT|INTERRES
    51   24  149 1    
    52   25   26 2    
    53   25   27 1    
    54   27   28 1    
    55   27   29 1    
    56   27  150 1    
    57   28  151 1    
    58   28  152 1    
    59   28  153 1    
    60   29   30 am   BACKBONE|DICT|INTERRES
    61   29  154 1    
    62   30   31 2    
    63   30   32 1    
    64   32   33 1    
    65   32   34 1    
    66   32  155 1    
    67   33  156 1    
    68   33  157 1    
    69   33  158 1    
    70   34   35 am   BACKBONE|DICT|INTERRES
    71   34  159 1    
    72   35   36 2    
    73   35   37 1    
    74   37   38 1    
    75   37   39 1    
    76   37  160 1    
    77   38  161 1    
    78   38  162 1    
    79   38  163 1    
    80   39   40 am   BACKBONE|DICT|INTERRES
    81   39  164 1    
    82   40   41 2    
    83   40   42 1    
    84   42   43 1    
    85   42   44 1    
    86   42  165 1    
    87   43  166 1    
    88   43  167 1    
    89   43  168 1    
    90   44   45 am   BACKBONE|DICT|INTERRES
    91   44  169 1    
    92   45   46 2    
    93   45   47 1    
    94   47   48 1    
    95   47   49 1    
    96   47  170 1    
    97   48  171 1    
    98   48  172 1    
    99   48  173 1    
   100   49   50 am   BACKBONE|DICT|INTERRES
   101   49  174 1    
   102   50   51 2    
   103   50   52 1    
   104   52   53 1    
   105   52   54 1    
   106   52  175 1    
   107   53  176 1    
   108   53  177 1    
   109   53  178 1    
   110   54   55 am   BACKBONE|DICT|INTERRES
   111   54  179 1    
   112   55   56 2    
   113   55   57 1    
   114   57   58 1    
   115   57   59 1    
   116   57  180 1    
   117   58  181 1    
   118   58  182 1    
   119   58  183 1    
   120   59   60 am   BACKBONE|DICT|INTERRES
   121   59  184 1    
   122   60   61 2    
   123   60   62 1    
   124   62   63 1    
   125   62   64 1    
   126   62  185 1    
   127   63  186 1    
   128   63  187 1    
   129   63  188 1    
   130   64   65 am   BACKBONE|DICT|INTERRES
   131   64  189 1    
   132   65   66 2    
   133   67   68 2    
   134   67   69 am   BACKBONE|DICT|INTERRES
   135   69   70 1    
   136   69  190 1    
   137   70   71 1    
   138   70   72 1    
   139   70  191 1    
   140   71  192 1    
   141   71  193 1    
   142   71  194 1    
   143   72   73 2    
   144   72   74 am   BACKBONE|DICT|INTERRES
   145   74   75 1    
   146   74  195 1    
   147   75   76 1    
   148   75   77 1    
   149   75  196 1    
   150   76  197 1    
   151   76  198 1    
   152   76  199 1    
   153   77   78 2    
   154   77   79 am   BACKBONE|DICT|INTERRES
   155   79   80 1    
   156   79  200 1    
   157   80   81 1    
   158   80   82 1    
   159   80  201 1    
   160   81  202 1    
   161   81  203 1    
   162   81  204 1    
   163   82   83 2    
   164   82   84 am   BACKBONE|DICT|INTERRES
   165   84   85 1    
   166   84  205 1    
   167   85   86 1    
   168   85   87 1    
   169   85  206 1    
   170   86  207 1    
   171   86  208 1    
   172   86  209 1    
   173   87   88 2    
   174   87   89 am   BACKBONE|DICT|INTERRES
   175   89   90 1    
   176   89  210 1    
   177   90   91 1    
   178   90   92 1    
   179   90  211 1    
   180   91  212 1    
   181   91  213 1    
   182   91  214 1    
   183   92   93 2    
   184   92   94 am   BACKBONE|DICT|INTERRES
   185   94   95 1    
   186   94  215 1    
   187   95   96 1    
   188   95   97 1    
   189   95  216 1    
   190   96  217 1    
   191   96  218 1    
   192   96  219 1    
   193   97   98 2    
   194   97   99 am   BACKBONE|DICT|INTERRES
   195   99  100 1    
   196   99  220 1    
   197  100  101 1    
   198  100  102 1    
   199  100  221 1    
   200  101  222 1    
   201  101  223 1    
   202  101  224 1    
   203  102  103 2    
   204  102  104 am   BACKBONE|DICT|INTERRES
   205  104  105 1    
   206  104  225 1    
   207  105  106 1    
   208  105  107 1    
   209  105  226 1    
   210  106  227 1    
   211  106  228 1    
   212  106  229 1    
   213  107  108 2    
   214  107  109 am   BACKBONE|DICT|INTERRES
   215  109  110 1    
   216  109  230 1    
   217  110  111 1    
   218  110  112 1    
   219  110  231 1    
   220  111  232 1    
   221  111  233 1    
   222  111  234 1    
   223  112  113 2    
   224  112  114 am   BACKBONE|DICT|INTERRES
   225  114  115 1    
   226  114  235 1    
   227  115  116 1    
   228  115  117 1    
   229  115  236 1    
   230  116  237 1    
   231  116  238 1    
   232  116  239 1    
   233  117  118 2    
   234  117  119 am   BACKBONE|DICT|INTERRES
   235  119  120 1    
   236  119  240 1    
   237  120  121 1    
   238  120  124 1    
   239  120  241 1    
   240  121  122 am   BACKBONE|DICT|INTERRES
   241  121  123 2    
   242  122  242 1    
   243  122  243 1    
   244  124  125 1    
   245  124  244 1    
   246  124  245 1    
   247  125  126 1    
   248  126  246 1    
   249  126  247 1    
@<TRIPOS>SUBSTRUCTURE
     1 UNK         1 GROUP             0       ****    0 ROOT    
