@<TRIPOS>MOLECULE
3R540
247   249    1
SMALL
USER_CHARGES


@<TRIPOS>ATOM
      1 CA          2.6976  -15.4388  -51.4799 C.3       0 UNK        -0.1800 
      2 C           2.6081  -15.4500  -49.9605 C.2       0 UNK         0.5000 
      3 O           3.4862  -16.0041  -49.2996 O.2       0 UNK        -0.5000 
      4 N           1.5435  -14.8497  -49.4105 N.am      1 UNK        -0.5000 
      5 CA          1.2569  -14.7834  -47.9715 C.3       1 UNK         0.1400 
      6 C6         -0.1881  -14.2841  -47.6995 C.3       23 UNK        -0.0398 
      7 S7         -1.4289  -15.6226  -47.6812 S.3       23 UNK        -0.2404 
      8 C8         -1.9626  -15.7383  -49.4265 C.3       23 UNK        -0.0205 
      9 C9         -1.1381  -16.6725  -50.3166 C.ar      23 UNK        -0.0193 
     10 C10        -1.3728  -16.6583  -51.6962 C.ar      23 UNK        -0.1150 
     11 C11        -0.6517  -17.4917  -52.5573 C.ar      23 UNK        -0.0193 
     12 C12         0.3300  -18.3341  -52.0323 C.ar      23 UNK        -0.1150 
     13 C13         0.5811  -18.3597  -50.6599 C.ar      23 UNK        -0.0193 
     14 C14        -0.1690  -17.5483  -49.8074 C.ar      23 UNK        -0.1150 
     15 C15         1.6900  -19.2366  -50.1059 C.3       23 UNK        -0.0205 
     16 S16         1.0566  -20.8534  -49.5834 S.3       23 UNK        -0.2404 
     17 C17         0.6231  -20.5352  -47.8381 C.3       23 UNK        -0.0398 
     18 CA          0.3091  -21.8573  -47.1011 C.3       11 UNK         0.1400 
     19 N           0.5956  -21.8031  -45.6664 N.am      11 UNK        -0.5000 
     20 C           0.7129  -22.8983  -44.9002 C.2       10 UNK         0.5000 
     21 O           0.5736  -24.0460  -45.3278 O.2       10 UNK        -0.5000 
     22 CA          0.9908  -22.6740  -43.4045 C.3       10 UNK         0.1400 
     23 CB          2.4507  -22.2547  -43.1756 C.3       10 UNK        -0.1800 
     24 N           0.0915  -21.6801  -42.8204 N.am      10 UNK        -0.5000 
     25 C          -1.2348  -21.8385  -42.7031 C.2       9 UNK         0.5000 
     26 O          -1.8297  -22.8713  -43.0131 O.2       9 UNK        -0.5000 
     27 CA         -2.0367  -20.6267  -42.1918 C.3       9 UNK         0.1400 
     28 CB         -1.9865  -20.5470  -40.6590 C.3       9 UNK        -0.1800 
     29 N          -1.5826  -19.3565  -42.7614 N.am      9 UNK        -0.5000 
     30 C          -1.6069  -19.0522  -44.0672 C.2       8 UNK         0.5000 
     31 O          -2.0305  -19.8063  -44.9389 O.2       8 UNK        -0.5000 
     32 CA         -1.0014  -17.7021  -44.4770 C.3       8 UNK         0.1400 
     33 CB         -1.9774  -16.5489  -44.1994 C.3       8 UNK        -0.1800 
     34 N           0.2728  -17.4630  -43.8029 N.am      8 UNK        -0.5000 
     35 C           1.3937  -18.1548  -44.0537 C.2       7 UNK         0.5000 
     36 O           1.4807  -19.0304  -44.9153 O.2       7 UNK        -0.5000 
     37 CA          2.6025  -17.8521  -43.1521 C.3       7 UNK         0.1400 
     38 CB          3.4064  -16.6638  -43.7010 C.3       7 UNK        -0.1800 
     39 N           2.2036  -17.5879  -41.7674 N.am      7 UNK        -0.5000 
     40 C           1.7356  -18.5316  -40.9357 C.2       6 UNK         0.5000 
     41 O           1.6150  -19.7147  -41.2514 O.2       6 UNK        -0.5000 
     42 CA          1.2837  -18.0808  -39.5330 C.3       6 UNK         0.1400 
     43 CB          2.4671  -18.0980  -38.5546 C.3       6 UNK        -0.1800 
     44 N           0.6632  -16.7558  -39.5170 N.am      6 UNK        -0.5000 
     45 C          -0.4488  -16.4209  -40.1842 C.2       5 UNK         0.5000 
     46 O          -1.0916  -17.2139  -40.8734 O.2       5 UNK        -0.5000 
     47 CA         -0.8944  -14.9452  -40.1302 C.3       5 UNK         0.1400 
     48 CB         -0.2322  -14.1254  -38.9998 C.3       5 UNK        -0.1800 
     49 N          -0.6975  -14.2851  -41.4257 N.am      5 UNK        -0.5000 
     50 C           0.4529  -14.1779  -42.1077 C.2       4 UNK         0.5000 
     51 O           1.5258  -14.6393  -41.7105 O.2       4 UNK        -0.5000 
     52 CA          0.3957  -13.4976  -43.4915 C.3       4 UNK         0.1400 
     53 CB         -0.8608  -12.6311  -43.7319 C.3       4 UNK        -0.1800 
     54 N           1.6170  -12.7465  -43.7812 N.am      4 UNK        -0.5000 
     55 C           2.0947  -11.6751  -43.1302 C.2       3 UNK         0.5000 
     56 O           1.5141  -11.1245  -42.1935 O.2       3 UNK        -0.5000 
     57 CA          3.4571  -11.1170  -43.5959 C.3       3 UNK         0.1400 
     58 CB          4.5551  -11.4758  -42.5820 C.3       3 UNK        -0.1800 
     59 N           3.8709  -11.5934  -44.9181 N.am      3 UNK        -0.5000 
     60 C           3.3210  -11.2224  -46.0820 C.2       2 UNK         0.5000 
     61 O           2.4296  -10.3776  -46.1784 O.2       2 UNK        -0.5000 
     62 CA          3.8228  -11.9351  -47.3562 C.3       2 UNK         0.1400 
     63 CB          5.1954  -12.6266  -47.1922 C.3       2 UNK        -0.1800 
     64 N           2.8315  -12.8871  -47.8687 N.am      2 UNK        -0.5000 
     65 C           2.2874  -13.9232  -47.2093 C.2       1 UNK         0.5000 
     66 O           2.5658  -14.2201  -46.0472 O.2       1 UNK        -0.5000 
     67 C          -1.1104  -22.3771  -47.4089 C.2       11 UNK         0.5000 
     68 O          -1.2930  -23.0246  -48.4363 O.2       11 UNK        -0.5000 
     69 N          -2.0805  -22.1445  -46.5128 N.am      12 UNK        -0.5000 
     70 CA         -3.4493  -22.6523  -46.6285 C.3       12 UNK         0.1400 
     71 CB         -4.3305  -22.0635  -45.5178 C.3       12 UNK        -0.1800 
     72 C          -3.5241  -24.1888  -46.6338 C.2       12 UNK         0.5000 
     73 O          -4.3447  -24.7523  -47.3580 O.2       12 UNK        -0.5000 
     74 N          -2.6414  -24.8363  -45.8627 N.am      13 UNK        -0.5000 
     75 CA         -2.4720  -26.2868  -45.8632 C.3       13 UNK         0.1400 
     76 CB         -1.7654  -26.7140  -44.5675 C.3       13 UNK        -0.1800 
     77 C          -1.6942  -26.7803  -47.0981 C.2       13 UNK         0.5000 
     78 O          -2.0317  -27.8309  -47.6450 O.2       13 UNK        -0.5000 
     79 N          -0.6599  -26.0298  -47.5015 N.am      14 UNK        -0.5000 
     80 CA          0.2663  -26.4129  -48.5668 C.3       14 UNK         0.1400 
     81 CB          1.5861  -25.6467  -48.3892 C.3       14 UNK        -0.1800 
     82 C          -0.2853  -26.2003  -49.9889 C.2       14 UNK         0.5000 
     83 O          -0.0995  -27.0723  -50.8392 O.2       14 UNK        -0.5000 
     84 N          -0.9090  -25.0425  -50.2403 N.am      15 UNK        -0.5000 
     85 CA         -1.2620  -24.5630  -51.5780 C.3       15 UNK         0.1400 
     86 CB         -0.0298  -23.9088  -52.2365 C.3       15 UNK        -0.1800 
     87 C          -2.4846  -23.6263  -51.5631 C.2       15 UNK         0.5000 
     88 O          -2.5771  -22.7338  -52.4040 O.2       15 UNK        -0.5000 
     89 N          -3.4102  -23.8377  -50.6181 N.am      16 UNK        -0.5000 
     90 CA         -4.7328  -23.2056  -50.4866 C.3       16 UNK         0.1400 
     91 CB         -5.5909  -23.4732  -51.7383 C.3       16 UNK        -0.1800 
     92 C          -4.7599  -21.7039  -50.1256 C.2       16 UNK         0.5000 
     93 O          -5.8112  -21.2349  -49.6933 O.2       16 UNK        -0.5000 
     94 N          -3.6451  -20.9754  -50.2826 N.am      17 UNK        -0.5000 
     95 CA         -3.4594  -19.5546  -49.9448 C.3       17 UNK         0.1400 
     96 CB         -3.3353  -19.3721  -48.4193 C.3       17 UNK        -0.1800 
     97 C          -4.5353  -18.6301  -50.5573 C.2       17 UNK         0.5000 
     98 O          -5.1770  -17.8570  -49.8446 O.2       17 UNK        -0.5000 
     99 N          -4.7278  -18.7652  -51.8750 N.am      18 UNK        -0.5000 
    100 CA        -5.6673  -18.0265  -52.7272 C.3       18 UNK         0.1400 
    101 CB        -5.4618  -16.4999  -52.6286 C.3       18 UNK        -0.1800 
    102 C         -7.1474  -18.4379  -52.5790 C.2       18 UNK         0.5000 
    103 O         -7.9955  -17.8475  -53.2501 O.2       18 UNK        -0.5000 
    104 N         -7.4487  -19.4741  -51.7785 N.am      19 UNK        -0.5000 
    105 CA        -8.7601  -20.1401  -51.7735 C.3       19 UNK         0.1400 
    106 CB        -8.9366  -20.9318  -50.4694 C.3       19 UNK        -0.1800 
    107 C         -8.9515  -21.0605  -53.0001 C.2       19 UNK         0.5000 
    108 O        -10.0827  -21.4229  -53.3251 O.2       19 UNK        -0.5000 
    109 N         -7.8417  -21.3980  -53.6638 N.am      20 UNK        -0.5000 
    110 CA        -7.7459  -22.0661  -54.9542 C.3       20 UNK         0.1400 
    111 CB        -7.6600  -23.5909  -54.7538 C.3       20 UNK        -0.1800 
    112 C         -6.5140  -21.4874  -55.6760 C.2       20 UNK         0.5000 
    113 O         -5.9312  -20.5086  -55.1976 O.2       20 UNK        -0.5000 
    114 N         -6.1412  -22.0842  -56.8148 N.am      21 UNK        -0.5000 
    115 CA        -4.9974  -21.6953  -57.6431 C.3       21 UNK         0.1400 
    116 CB        -5.0929  -22.4282  -58.9929 C.3       21 UNK        -0.1800 
    117 C         -3.6480  -21.9534  -56.9381 C.2       21 UNK         0.5000 
    118 O         -3.0528  -23.0191  -57.1088 O.2       21 UNK        -0.5000 
    119 N         -3.2090  -20.9742  -56.1414 N.am      22 UNK        -0.5000 
    120 CA        -1.9633  -20.9909  -55.3590 C.3       22 UNK         0.1400 
    121 C         -0.6594  -20.7338  -56.1710 C.2       22 UNK         0.5000 
    122 N         -0.7272  -20.3725  -57.4467 N.am      22 UNK        -0.7600 
    123 O          0.4365  -20.8761  -55.6361 O.2       22 UNK        -0.5000 
    124 C124       -2.0703  -20.0647  -54.1207 C.3       23 UNK        -0.0398 
    125 S125       -2.4522  -18.3185  -54.5111 S.3       23 UNK        -0.2404 
    126 C126       -0.9097  -17.4650  -54.0573 C.3       23 UNK        -0.0205 
    127 H127        3.5390  -14.8261  -51.8031 H         1 UNK         0.0600 
    128 H128        1.7889  -15.0444  -51.9357 H         1 UNK         0.0600 
    129 H129        2.8473  -16.4519  -51.8533 H         1 UNK         0.0600 
    130 H130        0.8489  -14.4386  -50.0166 H         1 UNK         0.3000 
    131 H131        1.3572  -15.7938  -47.5684 H         1 UNK         0.0600 
    132 H132       -0.2615  -13.8170  -46.7153 H         1 UNK         0.0800 
    133 H133       -0.4819  -13.5071  -48.4067 H         1 UNK         0.0800 
    134 H134       -2.9939  -16.0926  -49.4347 H         1 UNK         0.0800 
    135 H135       -1.9837  -14.7389  -49.8628 H         1 UNK         0.0800 
    136 H136       -2.1230  -15.9965  -52.1051 H         1 UNK         0.1150 
    137 H137        0.9063  -18.9664  -52.6934 H         1 UNK         0.1150 
    138 H138        0.0372  -17.5895  -48.7492 H         1 UNK         0.1150 
    139 H139        2.4533  -19.3921  -50.8698 H         1 UNK         0.0800 
    140 H140        2.1939  -18.7362  -49.2775 H         1 UNK         0.0800 
    141 H141       -0.1987  -19.8222  -47.7683 H         1 UNK         0.0800 
    142 H142        1.4847  -20.0519  -47.3764 H         1 UNK         0.0800 
    143 H143        0.9973  -22.6070  -47.4945 H         1 UNK         0.0600 
    144 H144        0.7357  -20.8840  -45.2585 H         1 UNK         0.3000 
    145 H145        0.8260  -23.6227  -42.8893 H         1 UNK         0.0600 
    146 H146        2.6775  -22.1870  -42.1115 H         1 UNK         0.0600 
    147 H147        3.1391  -22.9813  -43.6090 H         1 UNK         0.0600 
    148 H148        2.6685  -21.2852  -43.6249 H         1 UNK         0.0600 
    149 H149        0.5182  -20.8246  -42.4787 H         1 UNK         0.3000 
    150 H150       -3.0770  -20.7682  -42.4917 H         1 UNK         0.0600 
    151 H151       -2.3652  -21.4650  -40.2080 H         1 UNK         0.0600 
    152 H152       -2.5968  -19.7242  -40.2862 H         1 UNK         0.0600 
    153 H153       -0.9688  -20.3990  -40.2976 H         1 UNK         0.0600 
    154 H154       -1.2558  -18.6537  -42.1035 H         1 UNK         0.3000 
    155 H155       -0.8161  -17.7362  -45.5528 H         1 UNK         0.0600 
    156 H156       -2.9312  -16.7229  -44.6991 H         1 UNK         0.0600 
    157 H157       -2.1832  -16.4294  -43.1362 H         1 UNK         0.0600 
    158 H158       -1.5886  -15.6050  -44.5773 H         1 UNK         0.0600 
    159 H159        0.2672  -16.8292  -43.0183 H         1 UNK         0.3000 
    160 H160        3.2519  -18.7302  -43.1594 H         1 UNK         0.0600 
    161 H161        2.8089  -15.7534  -43.7432 H         1 UNK         0.0600 
    162 H162        3.7577  -16.8658  -44.7137 H         1 UNK         0.0600 
    163 H163        4.2832  -16.4608  -43.0861 H         1 UNK         0.0600 
    164 H164        2.2187  -16.6203  -41.4628 H         1 UNK         0.3000 
    165 H165        0.5404  -18.7981  -39.1800 H         1 UNK         0.0600 
    166 H166        2.1435  -17.8670  -37.5395 H         1 UNK         0.0600 
    167 H167        2.9375  -19.0819  -38.5284 H         1 UNK         0.0600 
    168 H168        3.2334  -17.3748  -38.8366 H         1 UNK         0.0600 
    169 H169        1.1513  -16.0329  -39.0087 H         1 UNK         0.3000 
    170 H170       -1.9691  -14.9584  -39.9432 H         1 UNK         0.0600 
    171 H171        0.8441  -14.0173  -39.1377 H         1 UNK         0.0600 
    172 H172       -0.6559  -13.1222  -38.9524 H         1 UNK         0.0600 
    173 H173       -0.4002  -14.5890  -38.0268 H         1 UNK         0.0600 
    174 H174       -1.5321  -13.8985  -41.8431 H         1 UNK         0.3000 
    175 H175        0.3787  -14.3096  -44.2188 H         1 UNK         0.0600 
    176 H176       -0.8172  -12.1449  -44.7067 H         1 UNK         0.0600 
    177 H177       -0.9688  -11.8501  -42.9786 H         1 UNK         0.0600 
    178 H178       -1.7698  -13.2330  -43.7201 H         1 UNK         0.0600 
    179 H179        2.1880  -13.1448  -44.5219 H         1 UNK         0.3000 
    180 H180        3.3687  -10.0294  -43.6353 H         1 UNK         0.0600 
    181 H181        4.6901  -12.5554  -42.5024 H         1 UNK         0.0600 
    182 H182        4.3065  -11.1028  -41.5875 H         1 UNK         0.0600 
    183 H183        5.5122  -11.0356  -42.8625 H         1 UNK         0.0600 
    184 H184        4.5751  -12.3169  -44.9347 H         1 UNK         0.3000 
    185 H185        3.9349  -11.1600  -48.1158 H         1 UNK         0.0600 
    186 H186        5.9501  -11.9240  -46.8364 H         1 UNK         0.0600 
    187 H187        5.1612  -13.4630  -46.4933 H         1 UNK         0.0600 
    188 H188        5.5469  -13.0166  -48.1475 H         1 UNK         0.0600 
    189 H189        2.5208  -12.7231  -48.8155 H         1 UNK         0.3000 
    190 H190       -1.8932  -21.5197  -45.7331 H         1 UNK         0.3000 
    191 H191       -3.8442  -22.3056  -47.5814 H         1 UNK         0.0600 
    192 H192       -4.3723  -20.9764  -45.5828 H         1 UNK         0.0600 
    193 H193       -5.3547  -22.4302  -45.5971 H         1 UNK         0.0600 
    194 H194       -3.9628  -22.3281  -44.5269 H         1 UNK         0.0600 
    195 H195       -1.9986  -24.2964  -45.2981 H         1 UNK         0.3000 
    196 H196       -3.4584  -26.7556  -45.8780 H         1 UNK         0.0600 
    197 H197       -1.6524  -27.7980  -44.5243 H         1 UNK         0.0600 
    198 H198       -2.3360  -26.4107  -43.6895 H         1 UNK         0.0600 
    199 H199       -0.7697  -26.2768  -44.4858 H         1 UNK         0.0600 
    200 H200       -0.4352  -25.1928  -46.9786 H         1 UNK         0.3000 
    201 H201        0.4885  -27.4765  -48.4549 H         1 UNK         0.0600 
    202 H202        1.9987  -25.7905  -47.3904 H         1 UNK         0.0600 
    203 H203        1.4549  -24.5770  -48.5489 H         1 UNK         0.0600 
    204 H204        2.3342  -25.9916  -49.1040 H         1 UNK         0.0600 
    205 H205       -1.0281  -24.3616  -49.4878 H         1 UNK         0.3000 
    206 H206       -1.5604  -25.4156  -52.1911 H         1 UNK         0.0600 
    207 H207        0.8086  -24.6030  -52.2917 H         1 UNK         0.0600 
    208 H208       -0.2467  -23.5885  -53.2564 H         1 UNK         0.0600 
    209 H209        0.2983  -23.0314  -51.6785 H         1 UNK         0.0600 
    210 H210       -3.2135  -24.5558  -49.9345 H         1 UNK         0.3000 
    211 H211       -5.2155  -23.7181  -49.6541 H         1 UNK         0.0600 
    212 H212       -5.2174  -22.9334  -52.6090 H         1 UNK         0.0600 
    213 H213       -6.6227  -23.1590  -51.5807 H         1 UNK         0.0600 
    214 H214       -5.6128  -24.5349  -51.9836 H         1 UNK         0.0600 
    215 H215       -2.8510  -21.4448  -50.7004 H         1 UNK         0.3000 
    216 H216       -2.5096  -19.2577  -50.3907 H         1 UNK         0.0600 
    217 H217       -3.1569  -18.3287  -48.1581 H         1 UNK         0.0600 
    218 H218       -2.4982  -19.9394  -48.0253 H         1 UNK         0.0600 
    219 H219       -4.2366  -19.6926  -47.8963 H         1 UNK         0.0600 
    220 H220       -4.1629  -19.4464  -52.3603 H         1 UNK         0.3000 
    221 H221       -5.4009  -18.3074  -53.7463 H         1 UNK         0.0600 
    222 H222       -5.7810  -16.1031  -51.6651 H         1 UNK         0.0600 
    223 H223       -4.4156  -16.2337  -52.7753 H         1 UNK         0.0600 
    224 H224       -6.0351  -15.9798  -53.3967 H         1 UNK         0.0600 
    225 H225       -6.7249  -19.8884  -51.2031 H         1 UNK         0.3000 
    226 H226       -9.5397  -19.3762  -51.8075 H         1 UNK         0.0600 
    227 H227       -8.7479  -20.3071  -49.5961 H         1 UNK         0.0600 
    228 H228       -9.9547  -21.3133  -50.3836 H         1 UNK         0.0600 
    229 H229       -8.2661  -21.7893  -50.4217 H         1 UNK         0.0600 
    230 H230       -6.9722  -20.9734  -53.3704 H         1 UNK         0.3000 
    231 H231       -8.6267  -21.8249  -55.5525 H         1 UNK         0.0600 
    232 H232       -6.7104  -23.8885  -54.3102 H         1 UNK         0.0600 
    233 H233       -7.7566  -24.1187  -55.7028 H         1 UNK         0.0600 
    234 H234       -8.4593  -23.9509  -54.1058 H         1 UNK         0.0600 
    235 H235       -6.6570  -22.8934  -57.1279 H         1 UNK         0.3000 
    236 H236       -5.0712  -20.6245  -57.8455 H         1 UNK         0.0600 
    237 H237       -6.0054  -22.1575  -59.5245 H         1 UNK         0.0600 
    238 H238       -4.2530  -22.1680  -59.6384 H         1 UNK         0.0600 
    239 H239       -5.0873  -23.5117  -58.8673 H         1 UNK         0.0600 
    240 H240       -3.8003  -20.1650  -56.0031 H         1 UNK         0.3000 
    241 H241       -1.8515  -22.0058  -54.9726 H         1 UNK         0.0600 
    242 H242       -1.6195  -20.2461  -57.8959 H         1 UNK         0.3800 
    243 H243        0.1231  -20.2142  -57.9642 H         1 UNK         0.3800 
    244 H244       -2.8759  -20.4268  -53.4837 H         1 UNK         0.0800 
    245 H245       -1.1700  -20.1386  -53.5107 H         1 UNK         0.0800 
    246 H246       -0.9711  -16.4283  -54.3910 H         1 UNK         0.0800 
    247 H247       -0.0772  -17.9115  -54.6037 H         1 UNK         0.0800 
@<TRIPOS>BOND
     1    1    2 1    
     2    1  127 1    
     3    1  128 1    
     4    1  129 1    
     5    2    3 2    
     6    2    4 am   BACKBONE|DICT|INTERRES
     7    4    5 1    
     8    4  130 1    
     9    5    6 1    
    10    5   65 1    
    11    5  131 1    
    12    6    7 1    
    13    6  132 1    
    14    6  133 1    
    15    7    8 1    
    16    8    9 1    
    17    8  134 1    
    18    8  135 1    
    19    9   10 ar   
    20    9   14 ar   
    21   10   11 ar   
    22   10  136 1    
    23   11   12 ar   
    24   11  126 1    
    25   12   13 ar   
    26   12  137 1    
    27   13   14 ar   
    28   13   15 1    
    29   14  138 1    
    30   15   16 1    
    31   15  139 1    
    32   15  140 1    
    33   16   17 1    
    34   17   18 1    
    35   17  141 1    
    36   17  142 1    
    37   18   19 1    
    38   18   67 1    
    39   18  143 1    
    40   19   20 am   BACKBONE|DICT|INTERRES
    41   19  144 1    
    42   20   21 2    
    43   20   22 1    
    44   22   23 1    
    45   22   24 1    
    46   22  145 1    
    47   23  146 1    
    48   23  147 1    
    49   23  148 1    
    50   24   25 am   BACKBONE|DICT|INTERRES
    51   24  149 1    
    52   25   26 2    
    53   25   27 1    
    54   27   28 1    
    55   27   29 1    
    56   27  150 1    
    57   28  151 1    
    58   28  152 1    
    59   28  153 1    
    60   29   30 am   BACKBONE|DICT|INTERRES
    61   29  154 1    
    62   30   31 2    
    63   30   32 1    
    64   32   33 1    
    65   32   34 1    
    66   32  155 1    
    67   33  156 1    
    68   33  157 1    
    69   33  158 1    
    70   34   35 am   BACKBONE|DICT|INTERRES
    71   34  159 1    
    72   35   36 2    
    73   35   37 1    
    74   37   38 1    
    75   37   39 1    
    76   37  160 1    
    77   38  161 1    
    78   38  162 1    
    79   38  163 1    
    80   39   40 am   BACKBONE|DICT|INTERRES
    81   39  164 1    
    82   40   41 2    
    83   40   42 1    
    84   42   43 1    
    85   42   44 1    
    86   42  165 1    
    87   43  166 1    
    88   43  167 1    
    89   43  168 1    
    90   44   45 am   BACKBONE|DICT|INTERRES
    91   44  169 1    
    92   45   46 2    
    93   45   47 1    
    94   47   48 1    
    95   47   49 1    
    96   47  170 1    
    97   48  171 1    
    98   48  172 1    
    99   48  173 1    
   100   49   50 am   BACKBONE|DICT|INTERRES
   101   49  174 1    
   102   50   51 2    
   103   50   52 1    
   104   52   53 1    
   105   52   54 1    
   106   52  175 1    
   107   53  176 1    
   108   53  177 1    
   109   53  178 1    
   110   54   55 am   BACKBONE|DICT|INTERRES
   111   54  179 1    
   112   55   56 2    
   113   55   57 1    
   114   57   58 1    
   115   57   59 1    
   116   57  180 1    
   117   58  181 1    
   118   58  182 1    
   119   58  183 1    
   120   59   60 am   BACKBONE|DICT|INTERRES
   121   59  184 1    
   122   60   61 2    
   123   60   62 1    
   124   62   63 1    
   125   62   64 1    
   126   62  185 1    
   127   63  186 1    
   128   63  187 1    
   129   63  188 1    
   130   64   65 am   BACKBONE|DICT|INTERRES
   131   64  189 1    
   132   65   66 2    
   133   67   68 2    
   134   67   69 am   BACKBONE|DICT|INTERRES
   135   69   70 1    
   136   69  190 1    
   137   70   71 1    
   138   70   72 1    
   139   70  191 1    
   140   71  192 1    
   141   71  193 1    
   142   71  194 1    
   143   72   73 2    
   144   72   74 am   BACKBONE|DICT|INTERRES
   145   74   75 1    
   146   74  195 1    
   147   75   76 1    
   148   75   77 1    
   149   75  196 1    
   150   76  197 1    
   151   76  198 1    
   152   76  199 1    
   153   77   78 2    
   154   77   79 am   BACKBONE|DICT|INTERRES
   155   79   80 1    
   156   79  200 1    
   157   80   81 1    
   158   80   82 1    
   159   80  201 1    
   160   81  202 1    
   161   81  203 1    
   162   81  204 1    
   163   82   83 2    
   164   82   84 am   BACKBONE|DICT|INTERRES
   165   84   85 1    
   166   84  205 1    
   167   85   86 1    
   168   85   87 1    
   169   85  206 1    
   170   86  207 1    
   171   86  208 1    
   172   86  209 1    
   173   87   88 2    
   174   87   89 am   BACKBONE|DICT|INTERRES
   175   89   90 1    
   176   89  210 1    
   177   90   91 1    
   178   90   92 1    
   179   90  211 1    
   180   91  212 1    
   181   91  213 1    
   182   91  214 1    
   183   92   93 2    
   184   92   94 am   BACKBONE|DICT|INTERRES
   185   94   95 1    
   186   94  215 1    
   187   95   96 1    
   188   95   97 1    
   189   95  216 1    
   190   96  217 1    
   191   96  218 1    
   192   96  219 1    
   193   97   98 2    
   194   97   99 am   BACKBONE|DICT|INTERRES
   195   99  100 1    
   196   99  220 1    
   197  100  101 1    
   198  100  102 1    
   199  100  221 1    
   200  101  222 1    
   201  101  223 1    
   202  101  224 1    
   203  102  103 2    
   204  102  104 am   BACKBONE|DICT|INTERRES
   205  104  105 1    
   206  104  225 1    
   207  105  106 1    
   208  105  107 1    
   209  105  226 1    
   210  106  227 1    
   211  106  228 1    
   212  106  229 1    
   213  107  108 2    
   214  107  109 am   BACKBONE|DICT|INTERRES
   215  109  110 1    
   216  109  230 1    
   217  110  111 1    
   218  110  112 1    
   219  110  231 1    
   220  111  232 1    
   221  111  233 1    
   222  111  234 1    
   223  112  113 2    
   224  112  114 am   BACKBONE|DICT|INTERRES
   225  114  115 1    
   226  114  235 1    
   227  115  116 1    
   228  115  117 1    
   229  115  236 1    
   230  116  237 1    
   231  116  238 1    
   232  116  239 1    
   233  117  118 2    
   234  117  119 am   BACKBONE|DICT|INTERRES
   235  119  120 1    
   236  119  240 1    
   237  120  121 1    
   238  120  124 1    
   239  120  241 1    
   240  121  122 am   BACKBONE|DICT|INTERRES
   241  121  123 2    
   242  122  242 1    
   243  122  243 1    
   244  124  125 1    
   245  124  244 1    
   246  124  245 1    
   247  125  126 1    
   248  126  246 1    
   249  126  247 1    
@<TRIPOS>SUBSTRUCTURE
     1 UNK         1 GROUP             0       ****    0 ROOT    
