@<TRIPOS>MOLECULE
3R540
247   249    1
SMALL
USER_CHARGES


@<TRIPOS>ATOM
      1 CA         -4.2525  -13.9690  -45.5270 C.3       0 UNK        -0.1800 
      2 C          -3.4667  -12.9772  -46.3703 C.2       0 UNK         0.5000 
      3 O          -3.7291  -11.7760  -46.3021 O.2       0 UNK        -0.5000 
      4 N          -2.5117  -13.4766  -47.1613 N.am      1 UNK        -0.5000 
      5 CA         -1.5564  -12.6772  -47.9341 C.3       1 UNK         0.1400 
      6 C6         -1.3488  -13.2403  -49.3680 C.3       23 UNK        -0.0398 
      7 S7         -0.8629  -14.9964  -49.4382 S.3       23 UNK        -0.2404 
      8 C8          0.6135  -14.9542  -50.4990 C.3       23 UNK        -0.0205 
      9 C9          1.4296  -16.2146  -50.2816 C.ar      23 UNK        -0.0193 
     10 C10         1.3828  -17.2866  -51.1783 C.ar      23 UNK        -0.1150 
     11 C11         2.0700  -18.4737  -50.9007 C.ar      23 UNK        -0.0193 
     12 C12         2.8376  -18.5653  -49.7337 C.ar      23 UNK        -0.1150 
     13 C13         2.9124  -17.4847  -48.8490 C.ar      23 UNK        -0.0193 
     14 C14         2.2088  -16.3172  -49.1316 C.ar      23 UNK        -0.1150 
     15 C15         3.7259  -17.5731  -47.5712 C.3       23 UNK        -0.0205 
     16 S16         2.8593  -18.5462  -46.3118 S.3       23 UNK        -0.2404 
     17 C17         1.4221  -17.4997  -45.8732 C.3       23 UNK        -0.0398 
     18 CA          0.0910  -17.8671  -46.5865 C.3       11 UNK         0.1400 
     19 N          -0.0982  -19.3101  -46.6855 N.am      11 UNK        -0.5000 
     20 C          -0.8374  -19.9281  -47.6115 C.2       10 UNK         0.5000 
     21 O          -1.6448  -19.3584  -48.3487 O.2       10 UNK        -0.5000 
     22 CA         -0.6155  -21.4422  -47.7272 C.3       10 UNK         0.1400 
     23 CB          0.8117  -21.7379  -48.2231 C.3       10 UNK        -0.1800 
     24 N          -0.8106  -22.0941  -46.4340 N.am      10 UNK        -0.5000 
     25 C          -1.7734  -22.9819  -46.1508 C.2       9 UNK         0.5000 
     26 O          -2.6180  -23.3600  -46.9614 O.2       9 UNK        -0.5000 
     27 CA         -1.8109  -23.5649  -44.7210 C.3       9 UNK         0.1400 
     28 CB         -1.2284  -24.9868  -44.7095 C.3       9 UNK        -0.1800 
     29 N          -1.1033  -22.7618  -43.7220 N.am      9 UNK        -0.5000 
     30 C          -1.4693  -21.5372  -43.3222 C.2       8 UNK         0.5000 
     31 O          -2.4784  -20.9635  -43.7283 O.2       8 UNK        -0.5000 
     32 CA         -0.5200  -20.8049  -42.3498 C.3       8 UNK         0.1400 
     33 CB         -0.9781  -20.9993  -40.8974 C.3       8 UNK        -0.1800 
     34 N           0.8975  -21.1710  -42.4632 N.am      8 UNK        -0.5000 
     35 C           1.6207  -21.1093  -43.5883 C.2       7 UNK         0.5000 
     36 O           1.1436  -20.8212  -44.6860 O.2       7 UNK        -0.5000 
     37 CA          3.1240  -21.3618  -43.4562 C.3       7 UNK         0.1400 
     38 CB          3.7162  -22.0119  -44.7238 C.3       7 UNK        -0.1800 
     39 N           3.7445  -20.0708  -43.1882 N.am      7 UNK        -0.5000 
     40 C           4.9874  -19.8766  -42.7370 C.2       6 UNK         0.5000 
     41 O           5.7851  -20.7860  -42.5037 O.2       6 UNK        -0.5000 
     42 CA          5.4042  -18.4164  -42.4774 C.3       6 UNK         0.1400 
     43 CB          5.9573  -17.7757  -43.7594 C.3       6 UNK        -0.1800 
     44 N           4.3244  -17.5851  -41.9310 N.am      6 UNK        -0.5000 
     45 C           3.7991  -17.7527  -40.7058 C.2       5 UNK         0.5000 
     46 O           4.1427  -18.6592  -39.9456 O.2       5 UNK        -0.5000 
     47 CA          2.7440  -16.7423  -40.2075 C.3       5 UNK         0.1400 
     48 CB          3.3238  -15.8760  -39.0774 C.3       5 UNK        -0.1800 
     49 N           2.2158  -15.8542  -41.2411 N.am      5 UNK        -0.5000 
     50 C           1.3132  -16.2048  -42.1642 C.2       4 UNK         0.5000 
     51 O           0.8460  -17.3387  -42.2673 O.2       4 UNK        -0.5000 
     52 CA          0.8812  -15.1034  -43.1553 C.3       4 UNK         0.1400 
     53 CB         -0.3097  -14.3162  -42.5879 C.3       4 UNK        -0.1800 
     54 N           1.9401  -14.1620  -43.5424 N.am      4 UNK        -0.5000 
     55 C           3.1616  -14.4767  -44.0024 C.2       3 UNK         0.5000 
     56 O           3.5825  -15.6305  -44.0828 O.2       3 UNK        -0.5000 
     57 CA          4.0545  -13.2908  -44.4261 C.3       3 UNK         0.1400 
     58 CB          5.3649  -13.7332  -45.1126 C.3       3 UNK        -0.1800 
     59 N           3.3281  -12.3091  -45.2422 N.am      3 UNK        -0.5000 
     60 C           2.7762  -12.5188  -46.4467 C.2       2 UNK         0.5000 
     61 O           2.8912  -13.5606  -47.0920 O.2       2 UNK        -0.5000 
     62 CA          1.9663  -11.3458  -47.0353 C.3       2 UNK         0.1400 
     63 CB          2.8176  -10.5640  -48.0476 C.3       2 UNK        -0.1800 
     64 N           0.7135  -11.7529  -47.6828 N.am      2 UNK        -0.5000 
     65 C          -0.2576  -12.4836  -47.1142 C.2       1 UNK         0.5000 
     66 O          -0.1783  -12.9370  -45.9683 O.2       1 UNK        -0.5000 
     67 C          -1.1324  -17.2061  -45.9189 C.2       11 UNK         0.5000 
     68 O          -1.7399  -16.3039  -46.4971 O.2       11 UNK        -0.5000 
     69 N          -1.5268  -17.7098  -44.7371 N.am      12 UNK        -0.5000 
     70 CA         -2.7314  -17.2643  -44.0208 C.3       12 UNK         0.1400 
     71 CB         -2.6764  -17.6905  -42.5460 C.3       12 UNK        -0.1800 
     72 C          -4.0369  -17.7527  -44.6804 C.2       12 UNK         0.5000 
     73 O          -5.0916  -17.1651  -44.4421 O.2       12 UNK        -0.5000 
     74 N          -3.9384  -18.7811  -45.5343 N.am      13 UNK        -0.5000 
     75 CA         -5.0070  -19.2553  -46.4156 C.3       13 UNK         0.1400 
     76 CB         -4.6857  -20.6893  -46.8621 C.3       13 UNK        -0.1800 
     77 C          -5.2429  -18.3358  -47.6345 C.2       13 UNK         0.5000 
     78 O          -6.1739  -18.5878  -48.3995 O.2       13 UNK        -0.5000 
     79 N          -4.4091  -17.2956  -47.7942 N.am      14 UNK        -0.5000 
     80 CA         -4.4808  -16.2429  -48.8096 C.3       14 UNK         0.1400 
     81 CB         -5.7800  -15.4216  -48.6665 C.3       14 UNK        -0.1800 
     82 C          -4.2470  -16.7576  -50.2420 C.2       14 UNK         0.5000 
     83 O          -4.8308  -16.2203  -51.1852 O.2       14 UNK        -0.5000 
     84 N          -3.3836  -17.7769  -50.3756 N.am      15 UNK        -0.5000 
     85 CA         -2.9465  -18.3897  -51.6329 C.3       15 UNK         0.1400 
     86 CB         -2.1110  -17.3854  -52.4523 C.3       15 UNK        -0.1800 
     87 C          -4.1074  -18.9964  -52.4479 C.2       15 UNK         0.5000 
     88 O          -4.1730  -18.8137  -53.6657 O.2       15 UNK        -0.5000 
     89 N          -5.0182  -19.6931  -51.7539 N.am      16 UNK        -0.5000 
     90 CA         -6.1894  -20.3635  -52.3172 C.3       16 UNK         0.1400 
     91 CB         -7.1271  -20.7798  -51.1709 C.3       16 UNK        -0.1800 
     92 C          -5.8023  -21.5578  -53.2131 C.2       16 UNK         0.5000 
     93 O          -5.8105  -22.7058  -52.7635 O.2       16 UNK        -0.5000 
     94 N          -5.4644  -21.2661  -54.4748 N.am      17 UNK        -0.5000 
     95 CA         -5.0706  -22.2350  -55.5011 C.3       17 UNK         0.1400 
     96 CB         -4.6379  -21.4810  -56.7665 C.3       17 UNK        -0.1800 
     97 C          -6.1669  -23.2658  -55.8311 C.2       17 UNK         0.5000 
     98 O          -5.8423  -24.4038  -56.1672 O.2       17 UNK        -0.5000 
     99 N          -7.4391  -22.8758  -55.6655 N.am      18 UNK        -0.5000 
    100 CA        -8.6104  -23.7493  -55.7857 C.3       18 UNK         0.1400 
    101 CB        -9.8812  -22.8870  -55.7493 C.3       18 UNK        -0.1800 
    102 C         -8.6712  -24.8447  -54.7000 C.2       18 UNK         0.5000 
    103 O         -9.2351  -25.9109  -54.9476 O.2       18 UNK        -0.5000 
    104 N         -8.0709  -24.5723  -53.5332 N.am      19 UNK        -0.5000 
    105 CA        -7.8970  -25.5173  -52.4286 C.3       19 UNK         0.1400 
    106 CB        -8.1233  -24.7633  -51.1067 C.3       19 UNK        -0.1800 
    107 C         -6.5001  -26.1736  -52.4468 C.2       19 UNK         0.5000 
    108 O         -6.2101  -26.9895  -51.5710 O.2       19 UNK        -0.5000 
    109 N         -5.6579  -25.7926  -53.4215 N.am      20 UNK        -0.5000 
    110 CA        -4.2510  -26.1643  -53.5975 C.3       20 UNK         0.1400 
    111 CB        -4.1198  -27.6616  -53.9448 C.3       20 UNK        -0.1800 
    112 C         -3.3606  -25.7363  -52.4109 C.2       20 UNK         0.5000 
    113 O         -2.4058  -26.4404  -52.0779 O.2       20 UNK        -0.5000 
    114 N         -3.6852  -24.5869  -51.7970 N.am      21 UNK        -0.5000 
    115 CA        -3.0685  -24.0639  -50.5728 C.3       21 UNK         0.1400 
    116 CB        -3.7424  -22.7315  -50.2140 C.3       21 UNK        -0.1800 
    117 C         -1.5387  -23.9011  -50.6584 C.2       21 UNK         0.5000 
    118 O         -0.8262  -24.3333  -49.7533 O.2       21 UNK        -0.5000 
    119 N         -1.0676  -23.3253  -51.7703 N.am      22 UNK        -0.5000 
    120 CA         0.3600  -23.1738  -52.1012 C.3       22 UNK         0.1400 
    121 C          0.9872  -24.4270  -52.7868 C.2       22 UNK         0.5000 
    122 N          0.2896  -25.5486  -52.9253 N.am      22 UNK        -0.7600 
    123 O          2.1452  -24.3905  -53.1936 O.2       22 UNK        -0.5000 
    124 C124        0.6143  -21.8771  -52.9162 C.3       23 UNK        -0.0398 
    125 S125        0.3153  -20.3750  -51.9214 S.3       23 UNK        -0.2404 
    126 C126        1.9881  -19.6519  -51.8624 C.3       23 UNK        -0.0205 
    127 H127       -4.1109  -14.9888  -45.8814 H         1 UNK         0.0600 
    128 H128       -5.3180  -13.7436  -45.5680 H         1 UNK         0.0600 
    129 H129       -3.9304  -13.9174  -44.4872 H         1 UNK         0.0600 
    130 H130       -2.2730  -14.4619  -47.0883 H         1 UNK         0.3000 
    131 H131       -1.9627  -11.6721  -48.0638 H         1 UNK         0.0600 
    132 H132       -2.2876  -13.1517  -49.9163 H         1 UNK         0.0800 
    133 H133       -0.6379  -12.6316  -49.9272 H         1 UNK         0.0800 
    134 H134        0.3152  -14.8540  -51.5435 H         1 UNK         0.0800 
    135 H135        1.2254  -14.0839  -50.2561 H         1 UNK         0.0800 
    136 H136        0.7951  -17.2136  -52.0810 H         1 UNK         0.1150 
    137 H137        3.3699  -19.4778  -49.5049 H         1 UNK         0.1150 
    138 H138        2.2348  -15.4943  -48.4349 H         1 UNK         0.1150 
    139 H139        3.9483  -16.5808  -47.1737 H         1 UNK         0.0800 
    140 H140        4.6869  -18.0432  -47.7835 H         1 UNK         0.0800 
    141 H141        1.6699  -16.4507  -46.0444 H         1 UNK         0.0800 
    142 H142        1.3140  -17.6214  -44.7976 H         1 UNK         0.0800 
    143 H143        0.1488  -17.4769  -47.6046 H         1 UNK         0.0600 
    144 H144        0.5162  -19.8672  -46.0955 H         1 UNK         0.3000 
    145 H145       -1.3156  -21.8229  -48.4694 H         1 UNK         0.0600 
    146 H146        1.0102  -21.2331  -49.1682 H         1 UNK         0.0600 
    147 H147        0.9570  -22.8052  -48.3871 H         1 UNK         0.0600 
    148 H148        1.5698  -21.4075  -47.5117 H         1 UNK         0.0600 
    149 H149       -0.1732  -21.8144  -45.6952 H         1 UNK         0.3000 
    150 H150       -2.8600  -23.6223  -44.4231 H         1 UNK         0.0600 
    151 H151       -0.1722  -24.9898  -44.9819 H         1 UNK         0.0600 
    152 H152       -1.7515  -25.6296  -45.4189 H         1 UNK         0.0600 
    153 H153       -1.3247  -25.4460  -43.7255 H         1 UNK         0.0600 
    154 H154       -0.2519  -23.1521  -43.3463 H         1 UNK         0.3000 
    155 H155       -0.5835  -19.7413  -42.5825 H         1 UNK         0.0600 
    156 H156       -0.8818  -22.0387  -40.5814 H         1 UNK         0.0600 
    157 H157       -2.0238  -20.7137  -40.7747 H         1 UNK         0.0600 
    158 H158       -0.3936  -20.3827  -40.2143 H         1 UNK         0.0600 
    159 H159        1.3669  -21.4009  -41.5991 H         1 UNK         0.3000 
    160 H160        3.2931  -22.0272  -42.6072 H         1 UNK         0.0600 
    161 H161        3.6448  -21.3529  -45.5893 H         1 UNK         0.0600 
    162 H162        3.1888  -22.9340  -44.9707 H         1 UNK         0.0600 
    163 H163        4.7666  -22.2680  -44.5880 H         1 UNK         0.0600 
    164 H164        3.1572  -19.2635  -43.3504 H         1 UNK         0.3000 
    165 H165        6.2110  -18.4338  -41.7415 H         1 UNK         0.0600 
    166 H166        6.3102  -16.7613  -43.5739 H         1 UNK         0.0600 
    167 H167        6.7996  -18.3478  -44.1499 H         1 UNK         0.0600 
    168 H168        5.2027  -17.7291  -44.5446 H         1 UNK         0.0600 
    169 H169        3.9840  -16.8360  -42.5262 H         1 UNK         0.3000 
    170 H170        1.9146  -17.3223  -39.7968 H         1 UNK         0.0600 
    171 H171        2.5676  -15.2081  -38.6642 H         1 UNK         0.0600 
    172 H172        4.1577  -15.2658  -39.4265 H         1 UNK         0.0600 
    173 H173        3.6904  -16.4937  -38.2565 H         1 UNK         0.0600 
    174 H174        2.5620  -14.9062  -41.2453 H         1 UNK         0.3000 
    175 H175        0.5388  -15.5885  -44.0667 H         1 UNK         0.0600 
    176 H176       -1.1210  -14.9843  -42.2977 H         1 UNK         0.0600 
    177 H177       -0.0279  -13.7396  -41.7061 H         1 UNK         0.0600 
    178 H178       -0.7138  -13.6247  -43.3276 H         1 UNK         0.0600 
    179 H179        1.6771  -13.1875  -43.5434 H         1 UNK         0.3000 
    180 H180        4.3307  -12.7773  -43.5042 H         1 UNK         0.0600 
    181 H181        5.1776  -14.3302  -46.0056 H         1 UNK         0.0600 
    182 H182        5.9694  -14.3415  -44.4389 H         1 UNK         0.0600 
    183 H183        5.9687  -12.8737  -45.4031 H         1 UNK         0.0600 
    184 H184        3.1887  -11.4079  -44.8065 H         1 UNK         0.3000 
    185 H185        1.6972  -10.6703  -46.2209 H         1 UNK         0.0600 
    186 H186        3.7497  -10.2230  -47.5948 H         1 UNK         0.0600 
    187 H187        3.0783  -11.1785  -48.9104 H         1 UNK         0.0600 
    188 H188        2.2920   -9.6801  -48.4096 H         1 UNK         0.0600 
    189 H189        0.5804  -11.4129  -48.6230 H         1 UNK         0.3000 
    190 H190       -1.0025  -18.4675  -44.3253 H         1 UNK         0.3000 
    191 H191       -2.7447  -16.1729  -44.0429 H         1 UNK         0.0600 
    192 H192       -1.7473  -17.3834  -42.0697 H         1 UNK         0.0600 
    193 H193       -3.4902  -17.2297  -41.9849 H         1 UNK         0.0600 
    194 H194       -2.7800  -18.7669  -42.4265 H         1 UNK         0.0600 
    195 H195       -3.0419  -19.2362  -45.6268 H         1 UNK         0.3000 
    196 H196       -5.9382  -19.2802  -45.8461 H         1 UNK         0.0600 
    197 H197       -5.4911  -21.1035  -47.4697 H         1 UNK         0.0600 
    198 H198       -4.5550  -21.3493  -46.0042 H         1 UNK         0.0600 
    199 H199       -3.7751  -20.7306  -47.4578 H         1 UNK         0.0600 
    200 H200       -3.6362  -17.2079  -47.1463 H         1 UNK         0.3000 
    201 H201       -3.6503  -15.5718  -48.5971 H         1 UNK         0.0600 
    202 H202       -5.7407  -14.5213  -49.2807 H         1 UNK         0.0600 
    203 H203       -5.9401  -15.1039  -47.6371 H         1 UNK         0.0600 
    204 H204       -6.6555  -15.9916  -48.9787 H         1 UNK         0.0600 
    205 H205       -2.9464  -18.1517  -49.5394 H         1 UNK         0.3000 
    206 H206       -2.2982  -19.2184  -51.3494 H         1 UNK         0.0600 
    207 H207       -1.3850  -16.8794  -51.8203 H         1 UNK         0.0600 
    208 H208       -1.5654  -17.8902  -53.2501 H         1 UNK         0.0600 
    209 H209       -2.7334  -16.6169  -52.9117 H         1 UNK         0.0600 
    210 H210       -4.9071  -19.7572  -50.7525 H         1 UNK         0.3000 
    211 H211       -6.7286  -19.6441  -52.9368 H         1 UNK         0.0600 
    212 H212       -6.6342  -21.4413  -50.4591 H         1 UNK         0.0600 
    213 H213       -8.0046  -21.3036  -51.5523 H         1 UNK         0.0600 
    214 H214       -7.4834  -19.9088  -50.6205 H         1 UNK         0.0600 
    215 H215       -5.3800  -20.2870  -54.7210 H         1 UNK         0.3000 
    216 H216       -4.2087  -22.7862  -55.1194 H         1 UNK         0.0600 
    217 H217       -5.4539  -20.8866  -57.1794 H         1 UNK         0.0600 
    218 H218       -4.3100  -22.1742  -57.5424 H         1 UNK         0.0600 
    219 H219       -3.8047  -20.8091  -56.5590 H         1 UNK         0.0600 
    220 H220       -7.6124  -21.9192  -55.3934 H         1 UNK         0.3000 
    221 H221       -8.5613  -24.2487  -56.7556 H         1 UNK         0.0600 
    222 H222       -9.9738  -22.3459  -54.8067 H         1 UNK         0.0600 
    223 H223       -9.8864  -22.1569  -56.5588 H         1 UNK         0.0600 
    224 H224      -10.7744  -23.5028  -55.8634 H         1 UNK         0.0600 
    225 H225       -7.5970  -23.6846  -53.4214 H         1 UNK         0.3000 
    226 H226       -8.6369  -26.3172  -52.4962 H         1 UNK         0.0600 
    227 H227       -9.1051  -24.2904  -51.0850 H         1 UNK         0.0600 
    228 H228       -8.0721  -25.4420  -50.2545 H         1 UNK         0.0600 
    229 H229       -7.3736  -23.9869  -50.9510 H         1 UNK         0.0600 
    230 H230       -6.0112  -25.1401  -54.1085 H         1 UNK         0.3000 
    231 H231       -3.8935  -25.5973  -54.4579 H         1 UNK         0.0600 
    232 H232       -4.3981  -28.2990  -53.1052 H         1 UNK         0.0600 
    233 H233       -3.0942  -27.9115  -54.2186 H         1 UNK         0.0600 
    234 H234       -4.7532  -27.9257  -54.7917 H         1 UNK         0.0600 
    235 H235       -4.4826  -24.0648  -52.1482 H         1 UNK         0.3000 
    236 H236       -3.2793  -24.7765  -49.7728 H         1 UNK         0.0600 
    237 H237       -3.5767  -21.9790  -50.9843 H         1 UNK         0.0600 
    238 H238       -4.8166  -22.8611  -50.0888 H         1 UNK         0.0600 
    239 H239       -3.3605  -22.3311  -49.2775 H         1 UNK         0.0600 
    240 H240       -1.7245  -23.0300  -52.4764 H         1 UNK         0.3000 
    241 H241        0.9151  -23.0722  -51.1666 H         1 UNK         0.0600 
    242 H242        0.7267  -26.3421  -53.3663 H         1 UNK         0.3800 
    243 H243       -0.6460  -25.6474  -52.5467 H         1 UNK         0.3800 
    244 H244       -0.0270  -21.8479  -53.7981 H         1 UNK         0.0800 
    245 H245        1.6380  -21.8433  -53.2926 H         1 UNK         0.0800 
    246 H246        2.7013  -20.4254  -51.5732 H         1 UNK         0.0800 
    247 H247        2.2743  -19.3219  -52.8620 H         1 UNK         0.0800 
@<TRIPOS>BOND
     1    1    2 1    
     2    1  127 1    
     3    1  128 1    
     4    1  129 1    
     5    2    3 2    
     6    2    4 am   BACKBONE|DICT|INTERRES
     7    4    5 1    
     8    4  130 1    
     9    5    6 1    
    10    5   65 1    
    11    5  131 1    
    12    6    7 1    
    13    6  132 1    
    14    6  133 1    
    15    7    8 1    
    16    8    9 1    
    17    8  134 1    
    18    8  135 1    
    19    9   10 ar   
    20    9   14 ar   
    21   10   11 ar   
    22   10  136 1    
    23   11   12 ar   
    24   11  126 1    
    25   12   13 ar   
    26   12  137 1    
    27   13   14 ar   
    28   13   15 1    
    29   14  138 1    
    30   15   16 1    
    31   15  139 1    
    32   15  140 1    
    33   16   17 1    
    34   17   18 1    
    35   17  141 1    
    36   17  142 1    
    37   18   19 1    
    38   18   67 1    
    39   18  143 1    
    40   19   20 am   BACKBONE|DICT|INTERRES
    41   19  144 1    
    42   20   21 2    
    43   20   22 1    
    44   22   23 1    
    45   22   24 1    
    46   22  145 1    
    47   23  146 1    
    48   23  147 1    
    49   23  148 1    
    50   24   25 am   BACKBONE|DICT|INTERRES
    51   24  149 1    
    52   25   26 2    
    53   25   27 1    
    54   27   28 1    
    55   27   29 1    
    56   27  150 1    
    57   28  151 1    
    58   28  152 1    
    59   28  153 1    
    60   29   30 am   BACKBONE|DICT|INTERRES
    61   29  154 1    
    62   30   31 2    
    63   30   32 1    
    64   32   33 1    
    65   32   34 1    
    66   32  155 1    
    67   33  156 1    
    68   33  157 1    
    69   33  158 1    
    70   34   35 am   BACKBONE|DICT|INTERRES
    71   34  159 1    
    72   35   36 2    
    73   35   37 1    
    74   37   38 1    
    75   37   39 1    
    76   37  160 1    
    77   38  161 1    
    78   38  162 1    
    79   38  163 1    
    80   39   40 am   BACKBONE|DICT|INTERRES
    81   39  164 1    
    82   40   41 2    
    83   40   42 1    
    84   42   43 1    
    85   42   44 1    
    86   42  165 1    
    87   43  166 1    
    88   43  167 1    
    89   43  168 1    
    90   44   45 am   BACKBONE|DICT|INTERRES
    91   44  169 1    
    92   45   46 2    
    93   45   47 1    
    94   47   48 1    
    95   47   49 1    
    96   47  170 1    
    97   48  171 1    
    98   48  172 1    
    99   48  173 1    
   100   49   50 am   BACKBONE|DICT|INTERRES
   101   49  174 1    
   102   50   51 2    
   103   50   52 1    
   104   52   53 1    
   105   52   54 1    
   106   52  175 1    
   107   53  176 1    
   108   53  177 1    
   109   53  178 1    
   110   54   55 am   BACKBONE|DICT|INTERRES
   111   54  179 1    
   112   55   56 2    
   113   55   57 1    
   114   57   58 1    
   115   57   59 1    
   116   57  180 1    
   117   58  181 1    
   118   58  182 1    
   119   58  183 1    
   120   59   60 am   BACKBONE|DICT|INTERRES
   121   59  184 1    
   122   60   61 2    
   123   60   62 1    
   124   62   63 1    
   125   62   64 1    
   126   62  185 1    
   127   63  186 1    
   128   63  187 1    
   129   63  188 1    
   130   64   65 am   BACKBONE|DICT|INTERRES
   131   64  189 1    
   132   65   66 2    
   133   67   68 2    
   134   67   69 am   BACKBONE|DICT|INTERRES
   135   69   70 1    
   136   69  190 1    
   137   70   71 1    
   138   70   72 1    
   139   70  191 1    
   140   71  192 1    
   141   71  193 1    
   142   71  194 1    
   143   72   73 2    
   144   72   74 am   BACKBONE|DICT|INTERRES
   145   74   75 1    
   146   74  195 1    
   147   75   76 1    
   148   75   77 1    
   149   75  196 1    
   150   76  197 1    
   151   76  198 1    
   152   76  199 1    
   153   77   78 2    
   154   77   79 am   BACKBONE|DICT|INTERRES
   155   79   80 1    
   156   79  200 1    
   157   80   81 1    
   158   80   82 1    
   159   80  201 1    
   160   81  202 1    
   161   81  203 1    
   162   81  204 1    
   163   82   83 2    
   164   82   84 am   BACKBONE|DICT|INTERRES
   165   84   85 1    
   166   84  205 1    
   167   85   86 1    
   168   85   87 1    
   169   85  206 1    
   170   86  207 1    
   171   86  208 1    
   172   86  209 1    
   173   87   88 2    
   174   87   89 am   BACKBONE|DICT|INTERRES
   175   89   90 1    
   176   89  210 1    
   177   90   91 1    
   178   90   92 1    
   179   90  211 1    
   180   91  212 1    
   181   91  213 1    
   182   91  214 1    
   183   92   93 2    
   184   92   94 am   BACKBONE|DICT|INTERRES
   185   94   95 1    
   186   94  215 1    
   187   95   96 1    
   188   95   97 1    
   189   95  216 1    
   190   96  217 1    
   191   96  218 1    
   192   96  219 1    
   193   97   98 2    
   194   97   99 am   BACKBONE|DICT|INTERRES
   195   99  100 1    
   196   99  220 1    
   197  100  101 1    
   198  100  102 1    
   199  100  221 1    
   200  101  222 1    
   201  101  223 1    
   202  101  224 1    
   203  102  103 2    
   204  102  104 am   BACKBONE|DICT|INTERRES
   205  104  105 1    
   206  104  225 1    
   207  105  106 1    
   208  105  107 1    
   209  105  226 1    
   210  106  227 1    
   211  106  228 1    
   212  106  229 1    
   213  107  108 2    
   214  107  109 am   BACKBONE|DICT|INTERRES
   215  109  110 1    
   216  109  230 1    
   217  110  111 1    
   218  110  112 1    
   219  110  231 1    
   220  111  232 1    
   221  111  233 1    
   222  111  234 1    
   223  112  113 2    
   224  112  114 am   BACKBONE|DICT|INTERRES
   225  114  115 1    
   226  114  235 1    
   227  115  116 1    
   228  115  117 1    
   229  115  236 1    
   230  116  237 1    
   231  116  238 1    
   232  116  239 1    
   233  117  118 2    
   234  117  119 am   BACKBONE|DICT|INTERRES
   235  119  120 1    
   236  119  240 1    
   237  120  121 1    
   238  120  124 1    
   239  120  241 1    
   240  121  122 am   BACKBONE|DICT|INTERRES
   241  121  123 2    
   242  122  242 1    
   243  122  243 1    
   244  124  125 1    
   245  124  244 1    
   246  124  245 1    
   247  125  126 1    
   248  126  246 1    
   249  126  247 1    
@<TRIPOS>SUBSTRUCTURE
     1 UNK         1 GROUP             0       ****    0 ROOT    
