@<TRIPOS>MOLECULE
3R540
247   249    1
SMALL
USER_CHARGES


@<TRIPOS>ATOM
      1 CA          2.5525  -15.6864  -47.4817 C.3       0 UNK        -0.1800 
      2 C           1.2443  -15.3877  -48.1990 C.2       0 UNK         0.5000 
      3 O           1.2349  -14.6016  -49.1454 O.2       0 UNK        -0.5000 
      4 N           0.1486  -16.0151  -47.7514 N.am      1 UNK        -0.5000 
      5 CA         -1.2037  -15.9281  -48.3289 C.3       1 UNK         0.1400 
      6 C6         -1.2957  -16.3895  -49.8096 C.3       23 UNK        -0.0398 
      7 S7         -0.8332  -18.1421  -50.0053 S.3       23 UNK        -0.2404 
      8 C8          0.5877  -18.0350  -51.1314 C.3       23 UNK        -0.0205 
      9 C9          0.9722  -19.4098  -51.6571 C.ar      23 UNK        -0.0193 
     10 C10         0.1297  -20.0640  -52.5607 C.ar      23 UNK        -0.1150 
     11 C11         0.4640  -21.3205  -53.0714 C.ar      23 UNK        -0.0193 
     12 C12         1.6628  -21.9199  -52.6706 C.ar      23 UNK        -0.1150 
     13 C13         2.5254  -21.2705  -51.7821 C.ar      23 UNK        -0.0193 
     14 C14         2.1691  -20.0196  -51.2670 C.ar      23 UNK        -0.1150 
     15 C15         3.8667  -21.9019  -51.4368 C.3       23 UNK        -0.0205 
     16 S16         3.6996  -23.3797  -50.3873 S.3       23 UNK        -0.2404 
     17 C17         3.6221  -22.6539  -48.7171 C.3       23 UNK        -0.0398 
     18 CA          2.5099  -23.2953  -47.8505 C.3       11 UNK         0.1400 
     19 N           2.8741  -23.3252  -46.4314 N.am      11 UNK        -0.5000 
     20 C           2.2137  -24.0183  -45.4930 C.2       10 UNK         0.5000 
     21 O           1.2428  -24.7372  -45.7288 O.2       10 UNK        -0.5000 
     22 CA          2.6948  -23.8420  -44.0410 C.3       10 UNK         0.1400 
     23 CB          3.8023  -24.8544  -43.7135 C.3       10 UNK        -0.1800 
     24 N           3.1704  -22.4870  -43.7430 N.am      10 UNK        -0.5000 
     25 C           2.4054  -21.3890  -43.7910 C.2       9 UNK         0.5000 
     26 O           1.2262  -21.3919  -44.1506 O.2       9 UNK        -0.5000 
     27 CA          3.0694  -20.0621  -43.3955 C.3       9 UNK         0.1400 
     28 CB          3.2239  -19.1382  -44.6137 C.3       9 UNK        -0.1800 
     29 N           2.2435  -19.4053  -42.3877 N.am      9 UNK        -0.5000 
     30 C           2.3527  -19.6250  -41.0707 C.2       8 UNK         0.5000 
     31 O           3.2451  -20.3066  -40.5643 O.2       8 UNK        -0.5000 
     32 CA          1.2860  -18.9884  -40.1598 C.3       8 UNK         0.1400 
     33 CB          1.7979  -17.6631  -39.5737 C.3       8 UNK        -0.1800 
     34 N           0.0005  -18.7658  -40.8293 N.am      8 UNK        -0.5000 
     35 C          -0.8453  -19.7506  -41.1710 C.2       7 UNK         0.5000 
     36 O          -0.6094  -20.9415  -40.9677 O.2       7 UNK        -0.5000 
     37 CA         -2.1765  -19.3624  -41.8360 C.3       7 UNK         0.1400 
     38 CB         -3.2769  -19.1882  -40.7776 C.3       7 UNK        -0.1800 
     39 N          -2.0740  -18.1342  -42.6254 N.am      7 UNK        -0.5000 
     40 C          -2.4980  -18.0067  -43.8918 C.2       6 UNK         0.5000 
     41 O          -3.0236  -18.9146  -44.5350 O.2       6 UNK        -0.5000 
     42 CA         -2.3058  -16.6344  -44.5682 C.3       6 UNK         0.1400 
     43 CB         -3.6026  -15.8148  -44.5176 C.3       6 UNK        -0.1800 
     44 N          -1.2210  -15.8574  -43.9732 N.am      6 UNK        -0.5000 
     45 C           0.0795  -16.1523  -44.1042 C.2       5 UNK         0.5000 
     46 O           0.4981  -16.9592  -44.9308 O.2       5 UNK        -0.5000 
     47 CA          1.0802  -15.4768  -43.1438 C.3       5 UNK         0.1400 
     48 CB          2.2153  -14.7753  -43.9044 C.3       5 UNK        -0.1800 
     49 N           0.4696  -14.5370  -42.2010 N.am      5 UNK        -0.5000 
     50 C          -0.3287  -14.8659  -41.1754 C.2       4 UNK         0.5000 
     51 O          -0.6579  -16.0251  -40.9188 O.2       4 UNK        -0.5000 
     52 CA         -0.9129  -13.7005  -40.3546 C.3       4 UNK         0.1400 
     53 CB          0.0289  -13.3337  -39.1987 C.3       4 UNK        -0.1800 
     54 N          -1.1686  -12.5112  -41.1743 N.am      4 UNK        -0.5000 
     55 C          -2.0746  -12.4584  -42.1612 C.2       3 UNK         0.5000 
     56 O          -2.8463  -13.3860  -42.4119 O.2       3 UNK        -0.5000 
     57 CA         -2.1225  -11.1834  -43.0340 C.3       3 UNK         0.1400 
     58 CB         -0.9107  -10.2427  -42.8441 C.3       3 UNK        -0.1800 
     59 N          -2.3024  -11.5069  -44.4559 N.am      3 UNK        -0.5000 
     60 C          -1.5025  -12.2778  -45.2064 C.2       2 UNK         0.5000 
     61 O          -0.4497  -12.7808  -44.8066 O.2       2 UNK        -0.5000 
     62 CA         -1.9494  -12.5230  -46.6529 C.3       2 UNK         0.1400 
     63 CB         -1.4658  -11.3934  -47.5792 C.3       2 UNK        -0.1800 
     64 N          -1.4025  -13.8008  -47.0954 N.am      2 UNK        -0.5000 
     65 C          -1.8901  -14.5635  -48.0805 C.2       1 UNK         0.5000 
     66 O          -2.8714  -14.2440  -48.7530 O.2       1 UNK        -0.5000 
     67 C           1.1457  -22.6104  -48.0673 C.2       11 UNK         0.5000 
     68 O           0.3152  -23.1272  -48.8127 O.2       11 UNK        -0.5000 
     69 N           0.9174  -21.4959  -47.3570 N.am      12 UNK        -0.5000 
     70 CA         -0.3462  -20.7633  -47.3719 C.3       12 UNK         0.1400 
     71 CB         -0.1661  -19.4003  -46.7000 C.3       12 UNK        -0.1800 
     72 C          -1.4810  -21.5481  -46.6994 C.2       12 UNK         0.5000 
     73 O          -2.5955  -21.5531  -47.2175 O.2       12 UNK        -0.5000 
     74 N          -1.1743  -22.2364  -45.5913 N.am      13 UNK        -0.5000 
     75 CA         -2.1037  -23.1258  -44.8950 C.3       13 UNK         0.1400 
     76 CB         -1.4655  -23.6222  -43.5899 C.3       13 UNK        -0.1800 
     77 C          -2.5608  -24.3056  -45.7756 C.2       13 UNK         0.5000 
     78 O          -3.7503  -24.6227  -45.7905 O.2       13 UNK        -0.5000 
     79 N          -1.6220  -24.8978  -46.5287 N.am      14 UNK        -0.5000 
     80 CA         -1.8855  -25.9486  -47.5139 C.3       14 UNK         0.1400 
     81 CB         -0.5557  -26.5767  -47.9583 C.3       14 UNK        -0.1800 
     82 C          -2.6864  -25.4443  -48.7311 C.2       14 UNK         0.5000 
     83 O          -3.5725  -26.1527  -49.2098 O.2       14 UNK        -0.5000 
     84 N          -2.3756  -24.2268  -49.1966 N.am      15 UNK        -0.5000 
     85 CA         -3.0537  -23.5454  -50.3030 C.3       15 UNK         0.1400 
     86 CB         -2.1967  -22.3454  -50.7356 C.3       15 UNK        -0.1800 
     87 C          -4.4799  -23.0667  -49.9657 C.2       15 UNK         0.5000 
     88 O          -5.2547  -22.8077  -50.8864 O.2       15 UNK        -0.5000 
     89 N          -4.7812  -22.9336  -48.6646 N.am      16 UNK        -0.5000 
     90 CA         -5.9462  -22.2591  -48.0831 C.3       16 UNK         0.1400 
     91 CB         -7.2641  -22.9749  -48.4449 C.3       16 UNK        -0.1800 
     92 C          -5.9343  -20.7535  -48.4214 C.2       16 UNK         0.5000 
     93 O          -6.9426  -20.1917  -48.8536 O.2       16 UNK        -0.5000 
     94 N          -4.7564  -20.1434  -48.2318 N.am      17 UNK        -0.5000 
     95 CA         -4.3843  -18.7754  -48.5789 C.3       17 UNK         0.1400 
     96 CB         -5.1051  -17.7647  -47.6604 C.3       17 UNK        -0.1800 
     97 C          -4.5534  -18.5139  -50.0901 C.2       17 UNK         0.5000 
     98 O          -4.0948  -19.3205  -50.8986 O.2       17 UNK        -0.5000 
     99 N          -5.2079  -17.4033  -50.4498 N.am      18 UNK        -0.5000 
    100 CA        -5.4087  -16.9342  -51.8230 C.3       18 UNK         0.1400 
    101 CB        -5.8780  -15.4709  -51.7669 C.3       18 UNK        -0.1800 
    102 C         -6.3652  -17.7924  -52.6825 C.2       18 UNK         0.5000 
    103 O         -6.5767  -17.4566  -53.8488 O.2       18 UNK        -0.5000 
    104 N         -6.9296  -18.8725  -52.1202 N.am      19 UNK        -0.5000 
    105 CA        -7.7857  -19.8360  -52.8188 C.3       19 UNK         0.1400 
    106 CB        -8.3766  -20.8187  -51.7990 C.3       19 UNK        -0.1800 
    107 C         -7.0669  -20.6006  -53.9505 C.2       19 UNK         0.5000 
    108 O         -7.7270  -21.0219  -54.9017 O.2       19 UNK        -0.5000 
    109 N         -5.7396  -20.7368  -53.8483 N.am      20 UNK        -0.5000 
    110 CA        -4.8576  -21.2049  -54.9106 C.3       20 UNK         0.1400 
    111 CB        -4.2024  -22.5294  -54.4903 C.3       20 UNK        -0.1800 
    112 C         -3.8029  -20.1167  -55.1501 C.2       20 UNK         0.5000 
    113 O         -3.2655  -19.5700  -54.1852 O.2       20 UNK        -0.5000 
    114 N         -3.5292  -19.8131  -56.4238 N.am      21 UNK        -0.5000 
    115 CA        -2.5781  -18.7736  -56.8202 C.3       21 UNK         0.1400 
    116 CB        -2.9943  -18.2022  -58.1850 C.3       21 UNK        -0.1800 
    117 C         -1.1288  -19.2869  -56.8716 C.2       21 UNK         0.5000 
    118 O         -0.2183  -18.5572  -56.4792 O.2       21 UNK        -0.5000 
    119 N         -0.9443  -20.5175  -57.3749 N.am      22 UNK        -0.5000 
    120 CA         0.3598  -21.1659  -57.6265 C.3       22 UNK         0.1400 
    121 C          1.2628  -20.4361  -58.6736 C.2       22 UNK         0.5000 
    122 N          0.7154  -19.6007  -59.5485 N.am      22 UNK        -0.7600 
    123 O          2.4709  -20.6517  -58.7264 O.2       22 UNK        -0.5000 
    124 C124        1.1168  -21.5298  -56.3169 C.3       23 UNK        -0.0398 
    125 S125        0.3054  -22.8908  -55.4119 S.3       23 UNK        -0.2404 
    126 C126       -0.4980  -22.0161  -54.0307 C.3       23 UNK        -0.0205 
    127 H127        2.8982  -14.8015  -46.9480 H         1 UNK         0.0600 
    128 H128        3.3182  -15.9715  -48.2031 H         1 UNK         0.0600 
    129 H129        2.4461  -16.5025  -46.7668 H         1 UNK         0.0600 
    130 H130        0.2369  -16.6044  -46.9291 H         1 UNK         0.3000 
    131 H131       -1.8070  -16.6359  -47.7642 H         1 UNK         0.0600 
    132 H132       -2.3169  -16.2983  -50.1826 H         1 UNK         0.0800 
    133 H133       -0.6878  -15.7587  -50.4584 H         1 UNK         0.0800 
    134 H134        1.4240  -17.5643  -50.6124 H         1 UNK         0.0800 
    135 H135        0.3379  -17.3906  -51.9755 H         1 UNK         0.0800 
    136 H136       -0.7983  -19.5933  -52.8567 H         1 UNK         0.1150 
    137 H137        1.9356  -22.8911  -53.0585 H         1 UNK         0.1150 
    138 H138        2.8317  -19.5113  -50.5808 H         1 UNK         0.1150 
    139 H139        4.3607  -22.1940  -52.3646 H         1 UNK         0.0800 
    140 H140        4.5316  -21.1799  -50.9600 H         1 UNK         0.0800 
    141 H141        3.5168  -21.5686  -48.7704 H         1 UNK         0.0800 
    142 H142        4.5996  -22.8320  -48.2666 H         1 UNK         0.0800 
    143 H143        2.3964  -24.3388  -48.1542 H         1 UNK         0.0600 
    144 H144        3.6608  -22.7615  -46.1459 H         1 UNK         0.3000 
    145 H145        1.8447  -24.0456  -43.3868 H         1 UNK         0.0600 
    146 H146        4.0869  -24.8016  -42.6625 H         1 UNK         0.0600 
    147 H147        3.4678  -25.8747  -43.9069 H         1 UNK         0.0600 
    148 H148        4.6967  -24.6828  -44.3136 H         1 UNK         0.0600 
    149 H149        4.1287  -22.4050  -43.4347 H         1 UNK         0.3000 
    150 H150        4.0653  -20.2567  -42.9918 H         1 UNK         0.0600 
    151 H151        3.8667  -19.5915  -45.3690 H         1 UNK         0.0600 
    152 H152        3.6738  -18.1861  -44.3317 H         1 UNK         0.0600 
    153 H153        2.2664  -18.9238  -45.0855 H         1 UNK         0.0600 
    154 H154        1.4365  -18.9042  -42.7277 H         1 UNK         0.3000 
    155 H155        1.1168  -19.6757  -39.3281 H         1 UNK         0.0600 
    156 H156        2.0150  -16.9317  -40.3515 H         1 UNK         0.0600 
    157 H157        2.7166  -17.8176  -39.0066 H         1 UNK         0.0600 
    158 H158        1.0678  -17.2234  -38.8939 H         1 UNK         0.0600 
    159 H159       -0.2783  -17.7947  -40.9427 H         1 UNK         0.3000 
    160 H160       -2.4528  -20.2019  -42.4780 H         1 UNK         0.0600 
    161 H161       -3.0600  -18.3557  -40.1068 H         1 UNK         0.0600 
    162 H162       -3.3801  -20.0863  -40.1672 H         1 UNK         0.0600 
    163 H163       -4.2439  -18.9995  -41.2442 H         1 UNK         0.0600 
    164 H164       -1.6635  -17.3306  -42.1648 H         1 UNK         0.3000 
    165 H165       -2.0630  -16.8236  -45.6109 H         1 UNK         0.0600 
    166 H166       -3.4869  -14.8574  -45.0254 H         1 UNK         0.0600 
    167 H167       -4.4223  -16.3438  -45.0032 H         1 UNK         0.0600 
    168 H168       -3.9095  -15.6154  -43.4904 H         1 UNK         0.0600 
    169 H169       -1.4895  -15.1411  -43.3113 H         1 UNK         0.3000 
    170 H170        1.5306  -16.2819  -42.5617 H         1 UNK         0.0600 
    171 H171        2.7788  -15.4902  -44.5043 H         1 UNK         0.0600 
    172 H172        1.8408  -14.0038  -44.5766 H         1 UNK         0.0600 
    173 H173        2.9219  -14.3089  -43.2179 H         1 UNK         0.0600 
    174 H174        0.6236  -13.5573  -42.3928 H         1 UNK         0.3000 
    175 H175       -1.8620  -14.0359  -39.9314 H         1 UNK         0.0600 
    176 H176        0.9915  -12.9706  -39.5613 H         1 UNK         0.0600 
    177 H177       -0.4060  -12.5596  -38.5662 H         1 UNK         0.0600 
    178 H178        0.2227  -14.1997  -38.5642 H         1 UNK         0.0600 
    179 H179       -0.5715  -11.7120  -41.0183 H         1 UNK         0.3000 
    180 H180       -3.0165  -10.6397  -42.7260 H         1 UNK         0.0600 
    181 H181        0.0342  -10.7399  -43.0667 H         1 UNK         0.0600 
    182 H182       -0.8578   -9.8633  -41.8231 H         1 UNK         0.0600 
    183 H183       -0.9868   -9.3748  -43.4992 H         1 UNK         0.0600 
    184 H184       -3.1562  -11.1593  -44.8691 H         1 UNK         0.3000 
    185 H185       -3.0402  -12.5733  -46.6733 H         1 UNK         0.0600 
    186 H186       -0.3770  -11.3305  -47.5969 H         1 UNK         0.0600 
    187 H187       -1.8083  -11.5457  -48.6028 H         1 UNK         0.0600 
    188 H188       -1.8469  -10.4258  -47.2506 H         1 UNK         0.0600 
    189 H189       -0.6126  -14.1250  -46.5517 H         1 UNK         0.3000 
    190 H190        1.6183  -21.1741  -46.7073 H         1 UNK         0.3000 
    191 H191       -0.6216  -20.5964  -48.4140 H         1 UNK         0.0600 
    192 H192       -1.0707  -18.8014  -46.8027 H         1 UNK         0.0600 
    193 H193        0.6526  -18.8400  -47.1509 H         1 UNK         0.0600 
    194 H194        0.0337  -19.5009  -45.6334 H         1 UNK         0.0600 
    195 H195       -0.2492  -22.1242  -45.1866 H         1 UNK         0.3000 
    196 H196       -2.9876  -22.5383  -44.6375 H         1 UNK         0.0600 
    197 H197       -2.1713  -24.2233  -43.0157 H         1 UNK         0.0600 
    198 H198       -1.1581  -22.7880  -42.9591 H         1 UNK         0.0600 
    199 H199       -0.5875  -24.2392  -43.7785 H         1 UNK         0.0600 
    200 H200       -0.6546  -24.6105  -46.4183 H         1 UNK         0.3000 
    201 H201       -2.4786  -26.7248  -47.0259 H         1 UNK         0.0600 
    202 H202       -0.0196  -27.0039  -47.1107 H         1 UNK         0.0600 
    203 H203        0.0988  -25.8438  -48.4311 H         1 UNK         0.0600 
    204 H204       -0.7233  -27.3800  -48.6767 H         1 UNK         0.0600 
    205 H205       -1.5771  -23.7429  -48.7970 H         1 UNK         0.3000 
    206 H206       -3.1251  -24.2395  -51.1427 H         1 UNK         0.0600 
    207 H207       -1.1948  -22.6578  -51.0281 H         1 UNK         0.0600 
    208 H208       -2.6393  -21.8219  -51.5829 H         1 UNK         0.0600 
    209 H209       -2.0972  -21.6146  -49.9338 H         1 UNK         0.0600 
    210 H210       -4.0383  -23.1416  -48.0093 H         1 UNK         0.3000 
    211 H211       -5.8253  -22.3281  -47.0010 H         1 UNK         0.0600 
    212 H212       -7.4819  -22.9257  -49.5109 H         1 UNK         0.0600 
    213 H213       -8.1068  -22.5228  -47.9209 H         1 UNK         0.0600 
    214 H214       -7.2298  -24.0261  -48.1594 H         1 UNK         0.0600 
    215 H215       -3.9848  -20.7162  -47.8898 H         1 UNK         0.3000 
    216 H216       -3.3161  -18.7000  -48.3745 H         1 UNK         0.0600 
    217 H217       -4.7188  -16.7541  -47.8002 H         1 UNK         0.0600 
    218 H218       -4.9503  -18.0239  -46.6133 H         1 UNK         0.0600 
    219 H219       -6.1813  -17.7437  -47.8356 H         1 UNK         0.0600 
    220 H220       -5.5855  -16.8144  -49.7219 H         1 UNK         0.3000 
    221 H221       -4.4384  -16.9580  -52.3238 H         1 UNK         0.0600 
    222 H222       -6.8470  -15.3795  -51.2748 H         1 UNK         0.0600 
    223 H223       -5.1650  -14.8481  -51.2255 H         1 UNK         0.0600 
    224 H224       -5.9768  -15.0488  -52.7678 H         1 UNK         0.0600 
    225 H225       -6.6996  -19.0903  -51.1598 H         1 UNK         0.3000 
    226 H226       -8.6088  -19.2793  -53.2714 H         1 UNK         0.0600 
    227 H227       -7.5934  -21.4031  -51.3167 H         1 UNK         0.0600 
    228 H228       -8.9349  -20.2977  -51.0210 H         1 UNK         0.0600 
    229 H229       -9.0607  -21.5193  -52.2793 H         1 UNK         0.0600 
    230 H230       -5.2678  -20.3277  -53.0500 H         1 UNK         0.3000 
    231 H231       -5.4136  -21.3664  -55.8364 H         1 UNK         0.0600 
    232 H232       -4.9517  -23.3071  -54.3420 H         1 UNK         0.0600 
    233 H233       -3.5073  -22.8835  -55.2526 H         1 UNK         0.0600 
    234 H234       -3.6466  -22.4248  -53.5596 H         1 UNK         0.0600 
    235 H235       -4.0166  -20.2942  -57.1659 H         1 UNK         0.3000 
    236 H236       -2.6150  -17.9564  -56.0959 H         1 UNK         0.0600 
    237 H237       -3.9904  -17.7615  -58.1386 H         1 UNK         0.0600 
    238 H238       -2.3083  -17.4168  -58.5051 H         1 UNK         0.0600 
    239 H239       -3.0030  -18.9681  -58.9614 H         1 UNK         0.0600 
    240 H240       -1.7546  -21.0428  -57.6674 H         1 UNK         0.3000 
    241 H241        0.1185  -22.1061  -58.1235 H         1 UNK         0.0600 
    242 H242        1.3018  -19.1430  -60.2290 H         1 UNK         0.3800 
    243 H243       -0.2756  -19.4223  -59.5409 H         1 UNK         0.3800 
    244 H244        1.2382  -20.6563  -55.6758 H         1 UNK         0.0800 
    245 H245        2.1273  -21.8796  -56.5319 H         1 UNK         0.0800 
    246 H246       -1.2001  -21.2962  -54.4490 H         1 UNK         0.0800 
    247 H247       -1.0909  -22.7365  -53.4679 H         1 UNK         0.0800 
@<TRIPOS>BOND
     1    1    2 1    
     2    1  127 1    
     3    1  128 1    
     4    1  129 1    
     5    2    3 2    
     6    2    4 am   BACKBONE|DICT|INTERRES
     7    4    5 1    
     8    4  130 1    
     9    5    6 1    
    10    5   65 1    
    11    5  131 1    
    12    6    7 1    
    13    6  132 1    
    14    6  133 1    
    15    7    8 1    
    16    8    9 1    
    17    8  134 1    
    18    8  135 1    
    19    9   10 ar   
    20    9   14 ar   
    21   10   11 ar   
    22   10  136 1    
    23   11   12 ar   
    24   11  126 1    
    25   12   13 ar   
    26   12  137 1    
    27   13   14 ar   
    28   13   15 1    
    29   14  138 1    
    30   15   16 1    
    31   15  139 1    
    32   15  140 1    
    33   16   17 1    
    34   17   18 1    
    35   17  141 1    
    36   17  142 1    
    37   18   19 1    
    38   18   67 1    
    39   18  143 1    
    40   19   20 am   BACKBONE|DICT|INTERRES
    41   19  144 1    
    42   20   21 2    
    43   20   22 1    
    44   22   23 1    
    45   22   24 1    
    46   22  145 1    
    47   23  146 1    
    48   23  147 1    
    49   23  148 1    
    50   24   25 am   BACKBONE|DICT|INTERRES
    51   24  149 1    
    52   25   26 2    
    53   25   27 1    
    54   27   28 1    
    55   27   29 1    
    56   27  150 1    
    57   28  151 1    
    58   28  152 1    
    59   28  153 1    
    60   29   30 am   BACKBONE|DICT|INTERRES
    61   29  154 1    
    62   30   31 2    
    63   30   32 1    
    64   32   33 1    
    65   32   34 1    
    66   32  155 1    
    67   33  156 1    
    68   33  157 1    
    69   33  158 1    
    70   34   35 am   BACKBONE|DICT|INTERRES
    71   34  159 1    
    72   35   36 2    
    73   35   37 1    
    74   37   38 1    
    75   37   39 1    
    76   37  160 1    
    77   38  161 1    
    78   38  162 1    
    79   38  163 1    
    80   39   40 am   BACKBONE|DICT|INTERRES
    81   39  164 1    
    82   40   41 2    
    83   40   42 1    
    84   42   43 1    
    85   42   44 1    
    86   42  165 1    
    87   43  166 1    
    88   43  167 1    
    89   43  168 1    
    90   44   45 am   BACKBONE|DICT|INTERRES
    91   44  169 1    
    92   45   46 2    
    93   45   47 1    
    94   47   48 1    
    95   47   49 1    
    96   47  170 1    
    97   48  171 1    
    98   48  172 1    
    99   48  173 1    
   100   49   50 am   BACKBONE|DICT|INTERRES
   101   49  174 1    
   102   50   51 2    
   103   50   52 1    
   104   52   53 1    
   105   52   54 1    
   106   52  175 1    
   107   53  176 1    
   108   53  177 1    
   109   53  178 1    
   110   54   55 am   BACKBONE|DICT|INTERRES
   111   54  179 1    
   112   55   56 2    
   113   55   57 1    
   114   57   58 1    
   115   57   59 1    
   116   57  180 1    
   117   58  181 1    
   118   58  182 1    
   119   58  183 1    
   120   59   60 am   BACKBONE|DICT|INTERRES
   121   59  184 1    
   122   60   61 2    
   123   60   62 1    
   124   62   63 1    
   125   62   64 1    
   126   62  185 1    
   127   63  186 1    
   128   63  187 1    
   129   63  188 1    
   130   64   65 am   BACKBONE|DICT|INTERRES
   131   64  189 1    
   132   65   66 2    
   133   67   68 2    
   134   67   69 am   BACKBONE|DICT|INTERRES
   135   69   70 1    
   136   69  190 1    
   137   70   71 1    
   138   70   72 1    
   139   70  191 1    
   140   71  192 1    
   141   71  193 1    
   142   71  194 1    
   143   72   73 2    
   144   72   74 am   BACKBONE|DICT|INTERRES
   145   74   75 1    
   146   74  195 1    
   147   75   76 1    
   148   75   77 1    
   149   75  196 1    
   150   76  197 1    
   151   76  198 1    
   152   76  199 1    
   153   77   78 2    
   154   77   79 am   BACKBONE|DICT|INTERRES
   155   79   80 1    
   156   79  200 1    
   157   80   81 1    
   158   80   82 1    
   159   80  201 1    
   160   81  202 1    
   161   81  203 1    
   162   81  204 1    
   163   82   83 2    
   164   82   84 am   BACKBONE|DICT|INTERRES
   165   84   85 1    
   166   84  205 1    
   167   85   86 1    
   168   85   87 1    
   169   85  206 1    
   170   86  207 1    
   171   86  208 1    
   172   86  209 1    
   173   87   88 2    
   174   87   89 am   BACKBONE|DICT|INTERRES
   175   89   90 1    
   176   89  210 1    
   177   90   91 1    
   178   90   92 1    
   179   90  211 1    
   180   91  212 1    
   181   91  213 1    
   182   91  214 1    
   183   92   93 2    
   184   92   94 am   BACKBONE|DICT|INTERRES
   185   94   95 1    
   186   94  215 1    
   187   95   96 1    
   188   95   97 1    
   189   95  216 1    
   190   96  217 1    
   191   96  218 1    
   192   96  219 1    
   193   97   98 2    
   194   97   99 am   BACKBONE|DICT|INTERRES
   195   99  100 1    
   196   99  220 1    
   197  100  101 1    
   198  100  102 1    
   199  100  221 1    
   200  101  222 1    
   201  101  223 1    
   202  101  224 1    
   203  102  103 2    
   204  102  104 am   BACKBONE|DICT|INTERRES
   205  104  105 1    
   206  104  225 1    
   207  105  106 1    
   208  105  107 1    
   209  105  226 1    
   210  106  227 1    
   211  106  228 1    
   212  106  229 1    
   213  107  108 2    
   214  107  109 am   BACKBONE|DICT|INTERRES
   215  109  110 1    
   216  109  230 1    
   217  110  111 1    
   218  110  112 1    
   219  110  231 1    
   220  111  232 1    
   221  111  233 1    
   222  111  234 1    
   223  112  113 2    
   224  112  114 am   BACKBONE|DICT|INTERRES
   225  114  115 1    
   226  114  235 1    
   227  115  116 1    
   228  115  117 1    
   229  115  236 1    
   230  116  237 1    
   231  116  238 1    
   232  116  239 1    
   233  117  118 2    
   234  117  119 am   BACKBONE|DICT|INTERRES
   235  119  120 1    
   236  119  240 1    
   237  120  121 1    
   238  120  124 1    
   239  120  241 1    
   240  121  122 am   BACKBONE|DICT|INTERRES
   241  121  123 2    
   242  122  242 1    
   243  122  243 1    
   244  124  125 1    
   245  124  244 1    
   246  124  245 1    
   247  125  126 1    
   248  126  246 1    
   249  126  247 1    
@<TRIPOS>SUBSTRUCTURE
     1 UNK         1 GROUP             0       ****    0 ROOT    
