@<TRIPOS>MOLECULE
3R540
247   249    1
SMALL
USER_CHARGES


@<TRIPOS>ATOM
      1 CA          2.0009  -10.9330  -50.9767 C.3       0 UNK        -0.1800 
      2 C           1.8017  -11.2226  -49.4957 C.2       0 UNK         0.5000 
      3 O           1.5854  -10.2942  -48.7169 O.2       0 UNK        -0.5000 
      4 N           1.8816  -12.5047  -49.1113 N.am      1 UNK        -0.5000 
      5 CA          1.6994  -13.0230  -47.7451 C.3       1 UNK         0.1400 
      6 C6          0.2640  -12.8228  -47.1832 C.3       23 UNK        -0.0398 
      7 S7         -1.0585  -13.4481  -48.2799 S.3       23 UNK        -0.2404 
      8 C8         -1.2700  -15.1765  -47.7404 C.3       23 UNK        -0.0205 
      9 C9         -0.4708  -16.1399  -48.6059 C.ar      23 UNK        -0.0193 
     10 C10        -0.9896  -16.5464  -49.8375 C.ar      23 UNK        -0.1150 
     11 C11        -0.2906  -17.4464  -50.6459 C.ar      23 UNK        -0.0193 
     12 C12         0.9582  -17.9136  -50.2264 C.ar      23 UNK        -0.1150 
     13 C13         1.5021  -17.4985  -49.0069 C.ar      23 UNK        -0.0193 
     14 C14         0.7722  -16.6272  -48.1900 C.ar      23 UNK        -0.1150 
     15 C15         2.9007  -17.9500  -48.6040 C.3       23 UNK        -0.0205 
     16 S16         2.9977  -19.7306  -48.2331 S.3       23 UNK        -0.2404 
     17 C17         2.0760  -19.8099  -46.6645 C.3       23 UNK        -0.0398 
     18 CA          1.1189  -21.0188  -46.5603 C.3       11 UNK         0.1400 
     19 N           0.6670  -21.1996  -45.1788 N.am      11 UNK        -0.5000 
     20 C          -0.0795  -22.2136  -44.7230 C.2       10 UNK         0.5000 
     21 O          -0.4362  -23.1667  -45.4122 O.2       10 UNK        -0.5000 
     22 CA         -0.5519  -22.1150  -43.2621 C.3       10 UNK         0.1400 
     23 CB          0.5325  -22.6099  -42.2931 C.3       10 UNK        -0.1800 
     24 N          -0.9475  -20.7509  -42.9095 N.am      10 UNK        -0.5000 
     25 C          -2.0333  -20.1325  -43.3957 C.2       9 UNK         0.5000 
     26 O          -2.8401  -20.6662  -44.1573 O.2       9 UNK        -0.5000 
     27 CA         -2.2189  -18.6550  -43.0026 C.3       9 UNK         0.1400 
     28 CB         -2.8420  -18.5398  -41.6039 C.3       9 UNK        -0.1800 
     29 N          -0.9630  -17.9024  -43.0479 N.am      9 UNK        -0.5000 
     30 C          -0.2722  -17.6750  -44.1748 C.2       8 UNK         0.5000 
     31 O          -0.6586  -18.0210  -45.2897 O.2       8 UNK        -0.5000 
     32 CA          1.1018  -16.9966  -44.0439 C.3       8 UNK         0.1400 
     33 CB          0.9715  -15.4722  -44.1237 C.3       8 UNK        -0.1800 
     34 N           1.8227  -17.3634  -42.8288 N.am      8 UNK        -0.5000 
     35 C           2.2515  -18.5954  -42.5271 C.2       7 UNK         0.5000 
     36 O           2.0372  -19.5786  -43.2351 O.2       7 UNK        -0.5000 
     37 CA          3.0311  -18.7606  -41.2142 C.3       7 UNK         0.1400 
     38 CB          4.5163  -18.4386  -41.4293 C.3       7 UNK        -0.1800 
     39 N           2.4991  -17.8843  -40.1717 N.am      7 UNK        -0.5000 
     40 C           1.6930  -18.2839  -39.1807 C.2       6 UNK         0.5000 
     41 O           1.3498  -19.4538  -39.0053 O.2       6 UNK        -0.5000 
     42 CA          1.1691  -17.1948  -38.2227 C.3       6 UNK         0.1400 
     43 CB          2.1168  -17.0349  -37.0242 C.3       6 UNK        -0.1800 
     44 N           0.9696  -15.8856  -38.8497 N.am      6 UNK        -0.5000 
     45 C           0.1069  -15.6356  -39.8435 C.2       5 UNK         0.5000 
     46 O          -0.5934  -16.4950  -40.3795 O.2       5 UNK        -0.5000 
     47 CA          0.0375  -14.1833  -40.3528 C.3       5 UNK         0.1400 
     48 CB         -0.8225  -13.3297  -39.4079 C.3       5 UNK        -0.1800 
     49 N           1.3169  -13.4963  -40.5895 N.am      5 UNK        -0.5000 
     50 C           2.4260  -13.9973  -41.1529 C.2       4 UNK         0.5000 
     51 O           2.6242  -15.1989  -41.3347 O.2       4 UNK        -0.5000 
     52 CA          3.4674  -12.9649  -41.6210 C.3       4 UNK         0.1400 
     53 CB          4.3848  -12.5138  -40.4676 C.3       4 UNK        -0.1800 
     54 N           4.2189  -13.4384  -42.7921 N.am      4 UNK        -0.5000 
     55 C           5.1987  -14.3562  -42.8549 C.2       3 UNK         0.5000 
     56 O           5.7223  -14.8848  -41.8740 O.2       3 UNK        -0.5000 
     57 CA          5.6879  -14.7665  -44.2626 C.3       3 UNK         0.1400 
     58 CB          5.1614  -16.1647  -44.6283 C.3       3 UNK        -0.1800 
     59 N           5.3072  -13.8364  -45.3287 N.am      3 UNK        -0.5000 
     60 C           5.7597  -12.5832  -45.4697 C.2       2 UNK         0.5000 
     61 O           6.6008  -12.0787  -44.7250 O.2       2 UNK        -0.5000 
     62 CA          5.1772  -11.7432  -46.6268 C.3       2 UNK         0.1400 
     63 CB          6.2578  -11.4544  -47.6812 C.3       2 UNK        -0.1800 
     64 N           4.0136  -12.3273  -47.3046 N.am      2 UNK        -0.5000 
     65 C           2.7977  -12.5240  -46.7725 C.2       1 UNK         0.5000 
     66 O           2.5450  -12.3423  -45.5796 O.2       1 UNK        -0.5000 
     67 C          -0.0648  -20.9180  -47.5490 C.2       11 UNK         0.5000 
     68 O          -0.0446  -21.5788  -48.5877 O.2       11 UNK        -0.5000 
     69 N          -1.0947  -20.1412  -47.1837 N.am      12 UNK        -0.5000 
     70 CA         -2.3375  -20.0190  -47.9418 C.3       12 UNK         0.1400 
     71 CB         -3.1747  -18.8604  -47.3815 C.3       12 UNK        -0.1800 
     72 C          -3.1474  -21.3288  -47.9636 C.2       12 UNK         0.5000 
     73 O          -3.6383  -21.7194  -49.0220 O.2       12 UNK        -0.5000 
     74 N          -3.2490  -22.0034  -46.8081 N.am      13 UNK        -0.5000 
     75 CA         -3.9336  -23.2914  -46.6578 C.3       13 UNK         0.1400 
     76 CB         -4.0269  -23.6552  -45.1689 C.3       13 UNK        -0.1800 
     77 C          -3.2730  -24.4330  -47.4553 C.2       13 UNK         0.5000 
     78 O          -3.9801  -25.2909  -47.9868 O.2       13 UNK        -0.5000 
     79 N          -1.9372  -24.4000  -47.5682 N.am      14 UNK        -0.5000 
     80 CA         -1.1126  -25.3583  -48.3111 C.3       14 UNK         0.1400 
     81 CB          0.3722  -25.0900  -48.0187 C.3       14 UNK        -0.1800 
     82 C          -1.3741  -25.4004  -49.8320 C.2       14 UNK         0.5000 
     83 O          -0.9265  -26.3437  -50.4856 O.2       14 UNK        -0.5000 
     84 N          -2.1185  -24.4219  -50.3707 N.am      15 UNK        -0.5000 
     85 CA         -2.6471  -24.4398  -51.7368 C.3       15 UNK         0.1400 
     86 CB         -3.2324  -23.0609  -52.0760 C.3       15 UNK        -0.1800 
     87 C          -3.7085  -25.5365  -51.9641 C.2       15 UNK         0.5000 
     88 O          -3.9571  -25.8932  -53.1150 O.2       15 UNK        -0.5000 
     89 N          -4.3263  -26.0403  -50.8806 N.am      16 UNK        -0.5000 
     90 CA         -5.2897  -27.1502  -50.8438 C.3       16 UNK         0.1400 
     91 CB         -4.5783  -28.4797  -51.1694 C.3       16 UNK        -0.1800 
     92 C          -6.5433  -26.9184  -51.7165 C.2       16 UNK         0.5000 
     93 O          -7.1244  -27.8735  -52.2341 O.2       16 UNK        -0.5000 
     94 N          -6.9153  -25.6397  -51.8738 N.am      17 UNK        -0.5000 
     95 CA         -7.9937  -25.1110  -52.7146 C.3       17 UNK         0.1400 
     96 CB         -9.3702  -25.6206  -52.2386 C.3       17 UNK        -0.1800 
     97 C          -7.7825  -25.3055  -54.2346 C.2       17 UNK         0.5000 
     98 O          -8.7336  -25.1300  -54.9981 O.2       17 UNK        -0.5000 
     99 N          -6.5580  -25.6431  -54.6640 N.am      18 UNK        -0.5000 
    100 CA        -6.1984  -25.7982  -56.0722 C.3       18 UNK         0.1400 
    101 CB        -4.9802  -26.7275  -56.1835 C.3       18 UNK        -0.1800 
    102 C         -5.8935  -24.4358  -56.7171 C.2       18 UNK         0.5000 
    103 O         -5.3660  -23.5421  -56.0481 O.2       18 UNK        -0.5000 
    104 N         -6.1966  -24.3230  -58.0181 N.am      19 UNK        -0.5000 
    105 CA        -5.9754  -23.1554  -58.8777 C.3       19 UNK         0.1400 
    106 CB        -4.4667  -22.9920  -59.1740 C.3       19 UNK        -0.1800 
    107 C         -6.6529  -21.8879  -58.3120 C.2       19 UNK         0.5000 
    108 O         -7.8785  -21.8671  -58.1866 O.2       19 UNK        -0.5000 
    109 N         -5.8552  -20.8684  -57.9691 N.am      20 UNK        -0.5000 
    110 CA        -6.3035  -19.6155  -57.3590 C.3       20 UNK         0.1400 
    111 CB        -5.2092  -18.5548  -57.5609 C.3       20 UNK        -0.1800 
    112 C         -6.6536  -19.7444  -55.8621 C.2       20 UNK         0.5000 
    113 O         -7.2216  -18.8047  -55.3016 O.2       20 UNK        -0.5000 
    114 N         -6.2790  -20.8687  -55.2268 N.am      21 UNK        -0.5000 
    115 CA        -6.5202  -21.2231  -53.8202 C.3       21 UNK         0.1400 
    116 CB        -8.0337  -21.4113  -53.5790 C.3       21 UNK        -0.1800 
    117 C         -5.8918  -20.2492  -52.7973 C.2       21 UNK         0.5000 
    118 O         -6.3037  -20.2424  -51.6365 O.2       21 UNK        -0.5000 
    119 N         -4.9351  -19.4256  -53.2505 N.am      22 UNK        -0.5000 
    120 CA        -4.3871  -18.2604  -52.5348 C.3       22 UNK         0.1400 
    121 C         -5.4450  -17.1572  -52.2082 C.2       22 UNK         0.5000 
    122 N         -6.5554  -17.0741  -52.9341 N.am      22 UNK        -0.7600 
    123 O         -5.2487  -16.3394  -51.3135 O.2       22 UNK        -0.5000 
    124 C124       -3.4971  -18.6588  -51.3225 C.3       23 UNK        -0.0398 
    125 S125       -1.9042  -19.3687  -51.8626 S.3       23 UNK        -0.2404 
    126 C126       -0.8592  -17.8799  -51.9903 C.3       23 UNK        -0.0205 
    127 H127        2.1818  -11.8439  -51.5480 H         1 UNK         0.0600 
    128 H128        2.8530  -10.2680  -51.1179 H         1 UNK         0.0600 
    129 H129        1.1154  -10.4463  -51.3855 H         1 UNK         0.0600 
    130 H130        2.0476  -13.2103  -49.8154 H         1 UNK         0.3000 
    131 H131        1.8666  -14.0962  -47.8213 H         1 UNK         0.0600 
    132 H132        0.0749  -11.7611  -47.0185 H         1 UNK         0.0800 
    133 H133        0.1568  -13.2870  -46.2042 H         1 UNK         0.0800 
    134 H134       -1.0188  -15.2947  -46.6880 H         1 UNK         0.0800 
    135 H135       -2.3288  -15.4287  -47.8160 H         1 UNK         0.0800 
    136 H136       -1.9390  -16.1491  -50.1659 H         1 UNK         0.1150 
    137 H137        1.5165  -18.5922  -50.8560 H         1 UNK         0.1150 
    138 H138        1.1785  -16.3127  -47.2400 H         1 UNK         0.1150 
    139 H139        3.5886  -17.7279  -49.4209 H         1 UNK         0.0800 
    140 H140        3.2615  -17.3836  -47.7438 H         1 UNK         0.0800 
    141 H141        2.8156  -19.8493  -45.8636 H         1 UNK         0.0800 
    142 H142        1.5226  -18.8845  -46.5185 H         1 UNK         0.0800 
    143 H143        1.6823  -21.9176  -46.8203 H         1 UNK         0.0600 
    144 H144        0.9666  -20.4943  -44.5112 H         1 UNK         0.3000 
    145 H145       -1.4244  -22.7614  -43.1482 H         1 UNK         0.0600 
    146 H146        0.1810  -22.5834  -41.2616 H         1 UNK         0.0600 
    147 H147        0.8095  -23.6411  -42.5157 H         1 UNK         0.0600 
    148 H148        1.4395  -22.0084  -42.3530 H         1 UNK         0.0600 
    149 H149       -0.3101  -20.2273  -42.3278 H         1 UNK         0.3000 
    150 H150       -2.9085  -18.2053  -43.7202 H         1 UNK         0.0600 
    151 H151       -3.7782  -19.0964  -41.5449 H         1 UNK         0.0600 
    152 H152       -3.0656  -17.5015  -41.3582 H         1 UNK         0.0600 
    153 H153       -2.1766  -18.9293  -40.8324 H         1 UNK         0.0600 
    154 H154       -0.6058  -17.5531  -42.1646 H         1 UNK         0.3000 
    155 H155        1.7129  -17.3177  -44.8877 H         1 UNK         0.0600 
    156 H156        0.4933  -15.1790  -45.0533 H         1 UNK         0.0600 
    157 H157        1.9459  -14.9850  -44.0971 H         1 UNK         0.0600 
    158 H158        0.3707  -15.0760  -43.3066 H         1 UNK         0.0600 
    159 H159        2.0697  -16.5959  -42.2058 H         1 UNK         0.3000 
    160 H160        2.9545  -19.8077  -40.9141 H         1 UNK         0.0600 
    161 H161        4.6638  -17.3898  -41.6865 H         1 UNK         0.0600 
    162 H162        4.9379  -19.0411  -42.2349 H         1 UNK         0.0600 
    163 H163        5.0961  -18.6443  -40.5296 H         1 UNK         0.0600 
    164 H164        2.6820  -16.8917  -40.2800 H         1 UNK         0.3000 
    165 H165        0.2000  -17.5309  -37.8481 H         1 UNK         0.0600 
    166 H166        1.7116  -16.3384  -36.2900 H         1 UNK         0.0600 
    167 H167        2.2691  -17.9882  -36.5161 H         1 UNK         0.0600 
    168 H168        3.0962  -16.6672  -37.3330 H         1 UNK         0.0600 
    169 H169        1.5286  -15.1221  -38.4982 H         1 UNK         0.3000 
    170 H170       -0.4763  -14.2159  -41.3146 H         1 UNK         0.0600 
    171 H171       -1.7881  -13.8020  -39.2205 H         1 UNK         0.0600 
    172 H172       -0.3355  -13.1837  -38.4430 H         1 UNK         0.0600 
    173 H173       -1.0230  -12.3468  -39.8346 H         1 UNK         0.0600 
    174 H174        1.2851  -12.4966  -40.4509 H         1 UNK         0.3000 
    175 H175        2.9215  -12.0875  -41.9715 H         1 UNK         0.0600 
    176 H176        4.8698  -13.3566  -39.9746 H         1 UNK         0.0600 
    177 H177        5.1620  -11.8366  -40.8219 H         1 UNK         0.0600 
    178 H178        3.8144  -11.9831  -39.7047 H         1 UNK         0.0600 
    179 H179        3.8674  -13.0980  -43.6778 H         1 UNK         0.3000 
    180 H180        6.7785  -14.8091  -44.2286 H         1 UNK         0.0600 
    181 H181        4.0718  -16.1933  -44.6478 H         1 UNK         0.0600 
    182 H182        5.4961  -16.9089  -43.9055 H         1 UNK         0.0600 
    183 H183        5.5241  -16.4826  -45.6059 H         1 UNK         0.0600 
    184 H184        4.6234  -14.1650  -45.9930 H         1 UNK         0.3000 
    185 H185        4.8610  -10.7912  -46.1956 H         1 UNK         0.0600 
    186 H186        7.1283  -10.9744  -47.2320 H         1 UNK         0.0600 
    187 H187        6.6010  -12.3697  -48.1651 H         1 UNK         0.0600 
    188 H188        5.8850  -10.7834  -48.4555 H         1 UNK         0.0600 
    189 H189        4.1255  -12.5120  -48.2911 H         1 UNK         0.3000 
    190 H190       -1.0138  -19.5699  -46.3471 H         1 UNK         0.3000 
    191 H191       -2.0694  -19.7740  -48.9699 H         1 UNK         0.0600 
    192 H192       -2.6240  -17.9216  -47.4298 H         1 UNK         0.0600 
    193 H193       -4.0934  -18.7296  -47.9546 H         1 UNK         0.0600 
    194 H194       -3.4537  -19.0296  -46.3412 H         1 UNK         0.0600 
    195 H195       -2.8560  -21.5958  -45.9658 H         1 UNK         0.3000 
    196 H196       -4.9493  -23.1711  -47.0400 H         1 UNK         0.0600 
    197 H197       -4.5685  -24.5915  -45.0290 H         1 UNK         0.0600 
    198 H198       -4.5567  -22.8860  -44.6069 H         1 UNK         0.0600 
    199 H199       -3.0403  -23.7772  -44.7221 H         1 UNK         0.0600 
    200 H200       -1.4325  -23.6915  -47.0439 H         1 UNK         0.3000 
    201 H201       -1.3530  -26.3517  -47.9274 H         1 UNK         0.0600 
    202 H202        0.5854  -25.1664  -46.9526 H         1 UNK         0.0600 
    203 H203        0.6757  -24.0984  -48.3525 H         1 UNK         0.0600 
    204 H204        1.0098  -25.8148  -48.5263 H         1 UNK         0.0600 
    205 H205       -2.4331  -23.6679  -49.7733 H         1 UNK         0.3000 
    206 H206       -1.8177  -24.6368  -52.4189 H         1 UNK         0.0600 
    207 H207       -2.4898  -22.2760  -51.9385 H         1 UNK         0.0600 
    208 H208       -3.5606  -23.0194  -53.1156 H         1 UNK         0.0600 
    209 H209       -4.0929  -22.8209  -51.4505 H         1 UNK         0.0600 
    210 H210       -4.0769  -25.6640  -49.9706 H         1 UNK         0.3000 
    211 H211       -5.6451  -27.2091  -49.8142 H         1 UNK         0.0600 
    212 H212       -4.2469  -28.5159  -52.2078 H         1 UNK         0.0600 
    213 H213       -5.2405  -29.3307  -51.0064 H         1 UNK         0.0600 
    214 H214       -3.7044  -28.6240  -50.5339 H         1 UNK         0.0600 
    215 H215       -6.3539  -24.9445  -51.4028 H         1 UNK         0.3000 
    216 H216       -7.9784  -24.0357  -52.5513 H         1 UNK         0.0600 
    217 H217      -10.1794  -25.0897  -52.7412 H         1 UNK         0.0600 
    218 H218       -9.5004  -25.4652  -51.1676 H         1 UNK         0.0600 
    219 H219       -9.5034  -26.6831  -52.4432 H         1 UNK         0.0600 
    220 H220       -5.7976  -25.7310  -53.9980 H         1 UNK         0.3000 
    221 H221       -7.0317  -26.2658  -56.6012 H         1 UNK         0.0600 
    222 H222       -4.0899  -26.2804  -55.7402 H         1 UNK         0.0600 
    223 H223       -5.1613  -27.6799  -55.6846 H         1 UNK         0.0600 
    224 H224       -4.7497  -26.9441  -57.2272 H         1 UNK         0.0600 
    225 H225       -6.6497  -25.1051  -58.4696 H         1 UNK         0.3000 
    226 H226       -6.4743  -23.3670  -59.8245 H         1 UNK         0.0600 
    227 H227       -4.0649  -23.8923  -59.6390 H         1 UNK         0.0600 
    228 H228       -4.2867  -22.1698  -59.8680 H         1 UNK         0.0600 
    229 H229       -3.8843  -22.8042  -58.2713 H         1 UNK         0.0600 
    230 H230       -4.8591  -20.9782  -58.0934 H         1 UNK         0.3000 
    231 H231       -7.2049  -19.2788  -57.8753 H         1 UNK         0.0600 
    232 H232       -4.2778  -18.8375  -57.0688 H         1 UNK         0.0600 
    233 H233       -5.5164  -17.5908  -57.1529 H         1 UNK         0.0600 
    234 H234       -4.9975  -18.4033  -58.6195 H         1 UNK         0.0600 
    235 H235       -5.8182  -21.5951  -55.7672 H         1 UNK         0.3000 
    236 H236       -6.0343  -22.1861  -53.6578 H         1 UNK         0.0600 
    237 H237       -8.4528  -22.1476  -54.2650 H         1 UNK         0.0600 
    238 H238       -8.2365  -21.7549  -52.5647 H         1 UNK         0.0600 
    239 H239       -8.5843  -20.4800  -53.7131 H         1 UNK         0.0600 
    240 H240       -4.6592  -19.5163  -54.2165 H         1 UNK         0.3000 
    241 H241       -3.7385  -17.7640  -53.2570 H         1 UNK         0.0600 
    242 H242       -7.2266  -16.3523  -52.7254 H         1 UNK         0.3800 
    243 H243       -6.7380  -17.7203  -53.6958 H         1 UNK         0.3800 
    244 H244       -3.2947  -17.8110  -50.6727 H         1 UNK         0.0800 
    245 H245       -4.0060  -19.3868  -50.6905 H         1 UNK         0.0800 
    246 H246       -0.0409  -18.0918  -52.6800 H         1 UNK         0.0800 
    247 H247       -1.4264  -17.0648  -52.4419 H         1 UNK         0.0800 
@<TRIPOS>BOND
     1    1    2 1    
     2    1  127 1    
     3    1  128 1    
     4    1  129 1    
     5    2    3 2    
     6    2    4 am   BACKBONE|DICT|INTERRES
     7    4    5 1    
     8    4  130 1    
     9    5    6 1    
    10    5   65 1    
    11    5  131 1    
    12    6    7 1    
    13    6  132 1    
    14    6  133 1    
    15    7    8 1    
    16    8    9 1    
    17    8  134 1    
    18    8  135 1    
    19    9   10 ar   
    20    9   14 ar   
    21   10   11 ar   
    22   10  136 1    
    23   11   12 ar   
    24   11  126 1    
    25   12   13 ar   
    26   12  137 1    
    27   13   14 ar   
    28   13   15 1    
    29   14  138 1    
    30   15   16 1    
    31   15  139 1    
    32   15  140 1    
    33   16   17 1    
    34   17   18 1    
    35   17  141 1    
    36   17  142 1    
    37   18   19 1    
    38   18   67 1    
    39   18  143 1    
    40   19   20 am   BACKBONE|DICT|INTERRES
    41   19  144 1    
    42   20   21 2    
    43   20   22 1    
    44   22   23 1    
    45   22   24 1    
    46   22  145 1    
    47   23  146 1    
    48   23  147 1    
    49   23  148 1    
    50   24   25 am   BACKBONE|DICT|INTERRES
    51   24  149 1    
    52   25   26 2    
    53   25   27 1    
    54   27   28 1    
    55   27   29 1    
    56   27  150 1    
    57   28  151 1    
    58   28  152 1    
    59   28  153 1    
    60   29   30 am   BACKBONE|DICT|INTERRES
    61   29  154 1    
    62   30   31 2    
    63   30   32 1    
    64   32   33 1    
    65   32   34 1    
    66   32  155 1    
    67   33  156 1    
    68   33  157 1    
    69   33  158 1    
    70   34   35 am   BACKBONE|DICT|INTERRES
    71   34  159 1    
    72   35   36 2    
    73   35   37 1    
    74   37   38 1    
    75   37   39 1    
    76   37  160 1    
    77   38  161 1    
    78   38  162 1    
    79   38  163 1    
    80   39   40 am   BACKBONE|DICT|INTERRES
    81   39  164 1    
    82   40   41 2    
    83   40   42 1    
    84   42   43 1    
    85   42   44 1    
    86   42  165 1    
    87   43  166 1    
    88   43  167 1    
    89   43  168 1    
    90   44   45 am   BACKBONE|DICT|INTERRES
    91   44  169 1    
    92   45   46 2    
    93   45   47 1    
    94   47   48 1    
    95   47   49 1    
    96   47  170 1    
    97   48  171 1    
    98   48  172 1    
    99   48  173 1    
   100   49   50 am   BACKBONE|DICT|INTERRES
   101   49  174 1    
   102   50   51 2    
   103   50   52 1    
   104   52   53 1    
   105   52   54 1    
   106   52  175 1    
   107   53  176 1    
   108   53  177 1    
   109   53  178 1    
   110   54   55 am   BACKBONE|DICT|INTERRES
   111   54  179 1    
   112   55   56 2    
   113   55   57 1    
   114   57   58 1    
   115   57   59 1    
   116   57  180 1    
   117   58  181 1    
   118   58  182 1    
   119   58  183 1    
   120   59   60 am   BACKBONE|DICT|INTERRES
   121   59  184 1    
   122   60   61 2    
   123   60   62 1    
   124   62   63 1    
   125   62   64 1    
   126   62  185 1    
   127   63  186 1    
   128   63  187 1    
   129   63  188 1    
   130   64   65 am   BACKBONE|DICT|INTERRES
   131   64  189 1    
   132   65   66 2    
   133   67   68 2    
   134   67   69 am   BACKBONE|DICT|INTERRES
   135   69   70 1    
   136   69  190 1    
   137   70   71 1    
   138   70   72 1    
   139   70  191 1    
   140   71  192 1    
   141   71  193 1    
   142   71  194 1    
   143   72   73 2    
   144   72   74 am   BACKBONE|DICT|INTERRES
   145   74   75 1    
   146   74  195 1    
   147   75   76 1    
   148   75   77 1    
   149   75  196 1    
   150   76  197 1    
   151   76  198 1    
   152   76  199 1    
   153   77   78 2    
   154   77   79 am   BACKBONE|DICT|INTERRES
   155   79   80 1    
   156   79  200 1    
   157   80   81 1    
   158   80   82 1    
   159   80  201 1    
   160   81  202 1    
   161   81  203 1    
   162   81  204 1    
   163   82   83 2    
   164   82   84 am   BACKBONE|DICT|INTERRES
   165   84   85 1    
   166   84  205 1    
   167   85   86 1    
   168   85   87 1    
   169   85  206 1    
   170   86  207 1    
   171   86  208 1    
   172   86  209 1    
   173   87   88 2    
   174   87   89 am   BACKBONE|DICT|INTERRES
   175   89   90 1    
   176   89  210 1    
   177   90   91 1    
   178   90   92 1    
   179   90  211 1    
   180   91  212 1    
   181   91  213 1    
   182   91  214 1    
   183   92   93 2    
   184   92   94 am   BACKBONE|DICT|INTERRES
   185   94   95 1    
   186   94  215 1    
   187   95   96 1    
   188   95   97 1    
   189   95  216 1    
   190   96  217 1    
   191   96  218 1    
   192   96  219 1    
   193   97   98 2    
   194   97   99 am   BACKBONE|DICT|INTERRES
   195   99  100 1    
   196   99  220 1    
   197  100  101 1    
   198  100  102 1    
   199  100  221 1    
   200  101  222 1    
   201  101  223 1    
   202  101  224 1    
   203  102  103 2    
   204  102  104 am   BACKBONE|DICT|INTERRES
   205  104  105 1    
   206  104  225 1    
   207  105  106 1    
   208  105  107 1    
   209  105  226 1    
   210  106  227 1    
   211  106  228 1    
   212  106  229 1    
   213  107  108 2    
   214  107  109 am   BACKBONE|DICT|INTERRES
   215  109  110 1    
   216  109  230 1    
   217  110  111 1    
   218  110  112 1    
   219  110  231 1    
   220  111  232 1    
   221  111  233 1    
   222  111  234 1    
   223  112  113 2    
   224  112  114 am   BACKBONE|DICT|INTERRES
   225  114  115 1    
   226  114  235 1    
   227  115  116 1    
   228  115  117 1    
   229  115  236 1    
   230  116  237 1    
   231  116  238 1    
   232  116  239 1    
   233  117  118 2    
   234  117  119 am   BACKBONE|DICT|INTERRES
   235  119  120 1    
   236  119  240 1    
   237  120  121 1    
   238  120  124 1    
   239  120  241 1    
   240  121  122 am   BACKBONE|DICT|INTERRES
   241  121  123 2    
   242  122  242 1    
   243  122  243 1    
   244  124  125 1    
   245  124  244 1    
   246  124  245 1    
   247  125  126 1    
   248  126  246 1    
   249  126  247 1    
@<TRIPOS>SUBSTRUCTURE
     1 UNK         1 GROUP             0       ****    0 ROOT    
