@<TRIPOS>MOLECULE
3R540
247   249    1
SMALL
USER_CHARGES


@<TRIPOS>ATOM
      1 CA          4.4277  -16.1805  -45.0786 C.3       0 UNK        -0.1800 
      2 C           3.1899  -15.3354  -45.3386 C.2       0 UNK         0.5000 
      3 O           2.4225  -15.0608  -44.4180 O.2       0 UNK        -0.5000 
      4 N           3.0078  -14.8862  -46.5860 N.am      1 UNK        -0.5000 
      5 CA          1.9181  -14.0041  -47.0327 C.3       1 UNK         0.1400 
      6 C6          1.6675  -14.0584  -48.5665 C.3       23 UNK        -0.0398 
      7 S7          3.1625  -14.3253  -49.5856 S.3       23 UNK        -0.2404 
      8 C8          2.4596  -14.3774  -51.2728 C.3       23 UNK        -0.0205 
      9 C9          1.5139  -15.5391  -51.6008 C.ar      23 UNK        -0.0193 
     10 C10         0.8008  -15.4771  -52.8030 C.ar      23 UNK        -0.1150 
     11 C11        -0.0854  -16.4931  -53.1694 C.ar      23 UNK        -0.0193 
     12 C12        -0.2692  -17.5813  -52.3140 C.ar      23 UNK        -0.1150 
     13 C13         0.4257  -17.6628  -51.1041 C.ar      23 UNK        -0.0193 
     14 C14         1.3311  -16.6516  -50.7652 C.ar      23 UNK        -0.1150 
     15 C15         0.1723  -18.8159  -50.1413 C.3       23 UNK        -0.0205 
     16 S16         1.4924  -20.0655  -50.2156 S.3       23 UNK        -0.2404 
     17 C17         0.5992  -21.6107  -50.6241 C.3       23 UNK        -0.0398 
     18 CA          0.3000  -22.5474  -49.4192 C.3       11 UNK         0.1400 
     19 N           1.3981  -22.6012  -48.4523 N.am      11 UNK        -0.5000 
     20 C           1.5288  -23.5126  -47.4792 C.2       10 UNK         0.5000 
     21 O           0.7533  -24.4535  -47.3145 O.2       10 UNK        -0.5000 
     22 CA          2.6971  -23.3003  -46.4977 C.3       10 UNK         0.1400 
     23 CB          3.9750  -23.9662  -47.0284 C.3       10 UNK        -0.1800 
     24 N           2.9629  -21.8839  -46.2259 N.am      10 UNK        -0.5000 
     25 C           2.0992  -21.0534  -45.6270 C.2       9 UNK         0.5000 
     26 O           0.9799  -21.3967  -45.2405 O.2       9 UNK        -0.5000 
     27 CA          2.5292  -19.5821  -45.5190 C.3       9 UNK         0.1400 
     28 CB          1.9318  -18.7733  -46.6801 C.3       9 UNK        -0.1800 
     29 N           2.1090  -18.9889  -44.2514 N.am      9 UNK        -0.5000 
     30 C           2.7297  -19.2028  -43.0817 C.2       8 UNK         0.5000 
     31 O           3.7066  -19.9442  -42.9630 O.2       8 UNK        -0.5000 
     32 CA          2.2202  -18.4445  -41.8385 C.3       8 UNK         0.1400 
     33 CB          3.1733  -17.2931  -41.4815 C.3       8 UNK        -0.1800 
     34 N           0.8724  -17.9031  -41.9996 N.am      8 UNK        -0.5000 
     35 C          -0.2493  -18.6235  -41.8814 C.2       7 UNK         0.5000 
     36 O          -0.2630  -19.8106  -41.5536 O.2       7 UNK        -0.5000 
     37 CA         -1.5852  -17.9103  -42.1744 C.3       7 UNK         0.1400 
     38 CB         -2.3112  -17.5749  -40.8629 C.3       7 UNK        -0.1800 
     39 N          -1.5046  -16.6925  -42.9898 N.am      7 UNK        -0.5000 
     40 C          -1.0180  -16.6201  -44.2386 C.2       6 UNK         0.5000 
     41 O          -0.3656  -17.5230  -44.7582 O.2       6 UNK        -0.5000 
     42 CA         -1.2920  -15.3319  -45.0429 C.3       6 UNK         0.1400 
     43 CB         -1.4453  -15.6098  -46.5553 C.3       6 UNK        -0.1800 
     44 N          -2.4195  -14.5406  -44.5403 N.am      6 UNK        -0.5000 
     45 C          -3.7083  -14.9095  -44.4448 C.2       5 UNK         0.5000 
     46 O          -4.1456  -15.9771  -44.8759 O.2       5 UNK        -0.5000 
     47 CA         -4.6666  -13.9299  -43.7249 C.3       5 UNK         0.1400 
     48 CB         -5.7681  -14.6674  -42.9345 C.3       5 UNK        -0.1800 
     49 N          -3.9885  -12.9501  -42.8630 N.am      5 UNK        -0.5000 
     50 C          -3.1916  -13.2104  -41.8167 C.2       4 UNK         0.5000 
     51 O          -2.9341  -14.3440  -41.4049 O.2       4 UNK        -0.5000 
     52 CA         -2.5041  -11.9943  -41.1694 C.3       4 UNK         0.1400 
     53 CB         -3.0039  -11.7856  -39.7318 C.3       4 UNK        -0.1800 
     54 N          -1.0475  -12.1458  -41.1583 N.am      4 UNK        -0.5000 
     55 C          -0.2806  -12.3274  -42.2422 C.2       3 UNK         0.5000 
     56 O          -0.7170  -12.3415  -43.3971 O.2       3 UNK        -0.5000 
     57 CA          1.2123  -12.5868  -41.9725 C.3       3 UNK         0.1400 
     58 CB          1.4194  -14.0383  -41.5102 C.3       3 UNK        -0.1800 
     59 N           2.0326  -12.3416  -43.1598 N.am      3 UNK        -0.5000 
     60 C           2.3651  -11.1227  -43.6145 C.2       2 UNK         0.5000 
     61 O           2.0594  -10.0787  -43.0359 O.2       2 UNK        -0.5000 
     62 CA          3.1886  -11.0388  -44.9193 C.3       2 UNK         0.1400 
     63 CB          4.6733  -10.8022  -44.6022 C.3       2 UNK        -0.1800 
     64 N           3.0710  -12.2386  -45.7468 N.am      2 UNK        -0.5000 
     65 C           1.9922  -12.5646  -46.4712 C.2       1 UNK         0.5000 
     66 O           1.0504  -11.7945  -46.6613 O.2       1 UNK        -0.5000 
     67 C          -1.0616  -22.2461  -48.7551 C.2       11 UNK         0.5000 
     68 O          -2.0772  -22.7958  -49.1839 O.2       11 UNK        -0.5000 
     69 N          -1.0628  -21.4142  -47.7036 N.am      12 UNK        -0.5000 
     70 CA         -2.2472  -21.1333  -46.8916 C.3       12 UNK         0.1400 
     71 CB         -2.0454  -19.8323  -46.1059 C.3       12 UNK        -0.1800 
     72 C          -2.5751  -22.3018  -45.9488 C.2       12 UNK         0.5000 
     73 O          -3.7421  -22.6776  -45.8365 O.2       12 UNK        -0.5000 
     74 N          -1.5384  -22.8784  -45.3217 N.am      13 UNK        -0.5000 
     75 CA         -1.6348  -24.0268  -44.4161 C.3       13 UNK         0.1400 
     76 CB         -0.2566  -24.3124  -43.8029 C.3       13 UNK        -0.1800 
     77 C          -2.2066  -25.2932  -45.0833 C.2       13 UNK         0.5000 
     78 O          -2.9115  -26.0590  -44.4243 O.2       13 UNK        -0.5000 
     79 N          -1.9488  -25.4658  -46.3870 N.am      14 UNK        -0.5000 
     80 CA         -2.5057  -26.5074  -47.2547 C.3       14 UNK         0.1400 
     81 CB         -1.6119  -26.6283  -48.5008 C.3       14 UNK        -0.1800 
     82 C          -3.9905  -26.2575  -47.6136 C.2       14 UNK         0.5000 
     83 O          -4.3512  -26.2322  -48.7932 O.2       14 UNK        -0.5000 
     84 N          -4.8223  -26.0462  -46.5817 N.am      15 UNK        -0.5000 
     85 CA         -6.2759  -25.8242  -46.6041 C.3       15 UNK         0.1400 
     86 CB         -6.9948  -27.1339  -46.9879 C.3       15 UNK        -0.1800 
     87 C          -6.7322  -24.6357  -47.4813 C.2       15 UNK         0.5000 
     88 O          -7.8791  -24.6125  -47.9302 O.2       15 UNK        -0.5000 
     89 N          -5.8123  -23.6962  -47.7455 N.am      16 UNK        -0.5000 
     90 CA         -5.8974  -22.5818  -48.6945 C.3       16 UNK         0.1400 
     91 CB         -6.9368  -21.5432  -48.2302 C.3       16 UNK        -0.1800 
     92 C          -6.1068  -22.9982  -50.1698 C.2       16 UNK         0.5000 
     93 O          -6.3292  -22.1284  -51.0127 O.2       16 UNK        -0.5000 
     94 N          -5.9978  -24.2967  -50.4859 N.am      17 UNK        -0.5000 
     95 CA         -6.1736  -24.8356  -51.8349 C.3       17 UNK         0.1400 
     96 CB         -6.3534  -26.3591  -51.7585 C.3       17 UNK        -0.1800 
     97 C          -4.9904  -24.4618  -52.7388 C.2       17 UNK         0.5000 
     98 O          -5.1886  -24.0092  -53.8673 O.2       17 UNK        -0.5000 
     99 N          -3.7762  -24.5937  -52.1897 N.am      18 UNK        -0.5000 
    100 CA        -2.5416  -24.1502  -52.8300 C.3       18 UNK         0.1400 
    101 CB        -1.3418  -24.7906  -52.1232 C.3       18 UNK        -0.1800 
    102 C         -2.4156  -22.6166  -52.8679 C.2       18 UNK         0.5000 
    103 O         -1.7380  -22.1011  -53.7547 O.2       18 UNK        -0.5000 
    104 N         -3.0743  -21.9099  -51.9361 N.am      19 UNK        -0.5000 
    105 CA        -3.1545  -20.4487  -51.9194 C.3       19 UNK         0.1400 
    106 CB        -3.6119  -19.9336  -50.5472 C.3       19 UNK        -0.1800 
    107 C         -4.0617  -19.9046  -53.0311 C.2       19 UNK         0.5000 
    108 O         -3.6917  -18.9288  -53.6821 O.2       19 UNK        -0.5000 
    109 N         -5.2042  -20.5693  -53.2561 N.am      20 UNK        -0.5000 
    110 CA        -6.1390  -20.2736  -54.3435 C.3       20 UNK         0.1400 
    111 CB        -7.4148  -21.1096  -54.1621 C.3       20 UNK        -0.1800 
    112 C         -5.5197  -20.5086  -55.7344 C.2       20 UNK         0.5000 
    113 O         -5.7545  -19.7165  -56.6476 O.2       20 UNK        -0.5000 
    114 N         -4.7094  -21.5693  -55.8564 N.am      21 UNK        -0.5000 
    115 CA        -3.9048  -21.8640  -57.0443 C.3       21 UNK         0.1400 
    116 CB        -3.4524  -23.3308  -56.9796 C.3       21 UNK        -0.1800 
    117 C         -2.6803  -20.9353  -57.1934 C.2       21 UNK         0.5000 
    118 O         -2.1910  -20.7539  -58.3088 O.2       21 UNK        -0.5000 
    119 N         -2.2065  -20.3829  -56.0696 N.am      22 UNK        -0.5000 
    120 CA        -0.9592  -19.6225  -55.9132 C.3       22 UNK         0.1400 
    121 C          0.3057  -20.4864  -56.1994 C.2       22 UNK         0.5000 
    122 N          0.3826  -21.6775  -55.6194 N.am      22 UNK        -0.7600 
    123 O          1.2054  -20.1021  -56.9423 O.2       22 UNK        -0.5000 
    124 C124       -0.9982  -18.2462  -56.6314 C.3       23 UNK        -0.0398 
    125 S125        0.1338  -17.0285  -55.8726 S.3       23 UNK        -0.2404 
    126 C126       -0.8580  -16.4041  -54.4781 C.3       23 UNK        -0.0205 
    127 H127        4.9818  -16.3797  -45.9960 H         1 UNK         0.0600 
    128 H128        4.1508  -17.1352  -44.6376 H         1 UNK         0.0600 
    129 H129        5.0907  -15.6663  -44.3831 H         1 UNK         0.0600 
    130 H130        3.6717  -15.1299  -47.3087 H         1 UNK         0.3000 
    131 H131        1.0159  -14.4019  -46.5760 H         1 UNK         0.0600 
    132 H132        0.9757  -14.8759  -48.7645 H         1 UNK         0.0800 
    133 H133        1.1511  -13.1669  -48.9273 H         1 UNK         0.0800 
    134 H134        3.2899  -14.4088  -51.9795 H         1 UNK         0.0800 
    135 H135        1.9418  -13.4340  -51.4528 H         1 UNK         0.0800 
    136 H136        0.9371  -14.6311  -53.4626 H         1 UNK         0.1150 
    137 H137       -0.9636  -18.3557  -52.5942 H         1 UNK         0.1150 
    138 H138        1.8772  -16.7389  -49.8376 H         1 UNK         0.1150 
    139 H139        0.1135  -18.4279  -49.1236 H         1 UNK         0.0800 
    140 H140       -0.7969  -19.2695  -50.3376 H         1 UNK         0.0800 
    141 H141        1.2383  -22.1505  -51.3240 H         1 UNK         0.0800 
    142 H142       -0.3011  -21.3840  -51.1942 H         1 UNK         0.0800 
    143 H143        0.2122  -23.5570  -49.8219 H         1 UNK         0.0600 
    144 H144        2.0794  -21.8588  -48.5198 H         1 UNK         0.3000 
    145 H145        2.4314  -23.7784  -45.5534 H         1 UNK         0.0600 
    146 H146        4.7883  -23.8907  -46.3064 H         1 UNK         0.0600 
    147 H147        3.8105  -25.0275  -47.2204 H         1 UNK         0.0600 
    148 H148        4.3100  -23.5118  -47.9617 H         1 UNK         0.0600 
    149 H149        3.8605  -21.5298  -46.5241 H         1 UNK         0.3000 
    150 H150        3.6175  -19.5196  -45.5845 H         1 UNK         0.0600 
    151 H151        2.3641  -19.0873  -47.6290 H         1 UNK         0.0600 
    152 H152        2.1321  -17.7090  -46.5752 H         1 UNK         0.0600 
    153 H153        0.8509  -18.8986  -46.7480 H         1 UNK         0.0600 
    154 H154        1.2662  -18.4211  -44.2792 H         1 UNK         0.3000 
    155 H155        2.2199  -19.1498  -41.0048 H         1 UNK         0.0600 
    156 H156        3.2128  -16.5438  -42.2718 H         1 UNK         0.0600 
    157 H157        4.1892  -17.6583  -41.3256 H         1 UNK         0.0600 
    158 H158        2.8636  -16.7955  -40.5624 H         1 UNK         0.0600 
    159 H159        0.7970  -16.9445  -42.3054 H         1 UNK         0.3000 
    160 H160       -2.2015  -18.6207  -42.7290 H         1 UNK         0.0600 
    161 H161       -1.7673  -16.8259  -40.2858 H         1 UNK         0.0600 
    162 H162       -2.4220  -18.4597  -40.2346 H         1 UNK         0.0600 
    163 H163       -3.3120  -17.1869  -41.0546 H         1 UNK         0.0600 
    164 H164       -1.9991  -15.8870  -42.6230 H         1 UNK         0.3000 
    165 H165       -0.4110  -14.7085  -44.8949 H         1 UNK         0.0600 
    166 H166       -2.3030  -16.2487  -46.7657 H         1 UNK         0.0600 
    167 H167       -1.5709  -14.6834  -47.1155 H         1 UNK         0.0600 
    168 H168       -0.5673  -16.1164  -46.9579 H         1 UNK         0.0600 
    169 H169       -2.1533  -13.6452  -44.1431 H         1 UNK         0.3000 
    170 H170       -5.1545  -13.3555  -44.5135 H         1 UNK         0.0600 
    171 H171       -6.3817  -15.2814  -43.5948 H         1 UNK         0.0600 
    172 H172       -5.3483  -15.3264  -42.1738 H         1 UNK         0.0600 
    173 H173       -6.4357  -13.9637  -42.4375 H         1 UNK         0.0600 
    174 H174       -4.1046  -11.9853  -43.1416 H         1 UNK         0.3000 
    175 H175       -2.7399  -11.0987  -41.7479 H         1 UNK         0.0600 
    176 H176       -2.7654  -12.6385  -39.0949 H         1 UNK         0.0600 
    177 H177       -2.5599  -10.8965  -39.2837 H         1 UNK         0.0600 
    178 H178       -4.0864  -11.6535  -39.7110 H         1 UNK         0.0600 
    179 H179       -0.6156  -12.1853  -40.2468 H         1 UNK         0.3000 
    180 H180        1.5451  -11.9177  -41.1761 H         1 UNK         0.0600 
    181 H181        1.0177  -14.7505  -42.2311 H         1 UNK         0.0600 
    182 H182        0.9192  -14.2244  -40.5592 H         1 UNK         0.0600 
    183 H183        2.4771  -14.2606  -41.3689 H         1 UNK         0.0600 
    184 H184        2.2730  -13.1605  -43.7074 H         1 UNK         0.3000 
    185 H185        2.8202  -10.1831  -45.4890 H         1 UNK         0.0600 
    186 H186        5.2574  -10.6807  -45.5147 H         1 UNK         0.0600 
    187 H187        4.8067   -9.8963  -44.0095 H         1 UNK         0.0600 
    188 H188        5.1012  -11.6307  -44.0362 H         1 UNK         0.0600 
    189 H189        3.8001  -12.9295  -45.6494 H         1 UNK         0.3000 
    190 H190       -0.1848  -21.0466  -47.3679 H         1 UNK         0.3000 
    191 H191       -3.1032  -20.9893  -47.5521 H         1 UNK         0.0600 
    192 H192       -2.9449  -19.5671  -45.5492 H         1 UNK         0.0600 
    193 H193       -1.8171  -18.9982  -46.7697 H         1 UNK         0.0600 
    194 H194       -1.2325  -19.9206  -45.3854 H         1 UNK         0.0600 
    195 H195       -0.6166  -22.4641  -45.4291 H         1 UNK         0.3000 
    196 H196       -2.3140  -23.7464  -43.6087 H         1 UNK         0.0600 
    197 H197        0.4582  -24.6357  -44.5588 H         1 UNK         0.0600 
    198 H198        0.1497  -23.4285  -43.3103 H         1 UNK         0.0600 
    199 H199       -0.3201  -25.1030  -43.0543 H         1 UNK         0.0600 
    200 H200       -1.3138  -24.8120  -46.8299 H         1 UNK         0.3000 
    201 H201       -2.4639  -27.4594  -46.7222 H         1 UNK         0.0600 
    202 H202       -1.5853  -25.6925  -49.0577 H         1 UNK         0.0600 
    203 H203       -1.9708  -27.4076  -49.1743 H         1 UNK         0.0600 
    204 H204       -0.5875  -26.8819  -48.2277 H         1 UNK         0.0600 
    205 H205       -4.3979  -26.0569  -45.6582 H         1 UNK         0.3000 
    206 H206       -6.5620  -25.5724  -45.5821 H         1 UNK         0.0600 
    207 H207       -6.6770  -27.9594  -46.3511 H         1 UNK         0.0600 
    208 H208       -8.0755  -27.0394  -46.8755 H         1 UNK         0.0600 
    209 H209       -6.7958  -27.4132  -48.0233 H         1 UNK         0.0600 
    210 H210       -4.9221  -23.7780  -47.2678 H         1 UNK         0.3000 
    211 H211       -4.9189  -22.1028  -48.6641 H         1 UNK         0.0600 
    212 H212       -6.9005  -20.6467  -48.8502 H         1 UNK         0.0600 
    213 H213       -6.7490  -21.2323  -47.2024 H         1 UNK         0.0600 
    214 H214       -7.9528  -21.9350  -48.2834 H         1 UNK         0.0600 
    215 H215       -5.7404  -24.9561  -49.7600 H         1 UNK         0.3000 
    216 H216       -7.0793  -24.4045  -52.2672 H         1 UNK         0.0600 
    217 H217       -5.4832  -26.8489  -51.3198 H         1 UNK         0.0600 
    218 H218       -6.5053  -26.7843  -52.7513 H         1 UNK         0.0600 
    219 H219       -7.2225  -26.6217  -51.1549 H         1 UNK         0.0600 
    220 H220       -3.7043  -24.9624  -51.2513 H         1 UNK         0.3000 
    221 H221       -2.5445  -24.4997  -53.8644 H         1 UNK         0.0600 
    222 H222       -1.3481  -25.8740  -52.2439 H         1 UNK         0.0600 
    223 H223       -1.3554  -24.5772  -51.0577 H         1 UNK         0.0600 
    224 H224       -0.3981  -24.4221  -52.5277 H         1 UNK         0.0600 
    225 H225       -3.5687  -22.4089  -51.2118 H         1 UNK         0.3000 
    226 H226       -2.1505  -20.0711  -52.1010 H         1 UNK         0.0600 
    227 H227       -4.6221  -20.2571  -50.3024 H         1 UNK         0.0600 
    228 H228       -2.9472  -20.2687  -49.7558 H         1 UNK         0.0600 
    229 H229       -3.6089  -18.8431  -50.5249 H         1 UNK         0.0600 
    230 H230       -5.4673  -21.3193  -52.6245 H         1 UNK         0.3000 
    231 H231       -6.4099  -19.2181  -54.2740 H         1 UNK         0.0600 
    232 H232       -7.2055  -22.1791  -54.1979 H         1 UNK         0.0600 
    233 H233       -8.1410  -20.8898  -54.9456 H         1 UNK         0.0600 
    234 H234       -7.8925  -20.8959  -53.2057 H         1 UNK         0.0600 
    235 H235       -4.6280  -22.2088  -55.0752 H         1 UNK         0.3000 
    236 H236       -4.5310  -21.7370  -57.9299 H         1 UNK         0.0600 
    237 H237       -4.3056  -24.0054  -56.9048 H         1 UNK         0.0600 
    238 H238       -2.8951  -23.6075  -57.8754 H         1 UNK         0.0600 
    239 H239       -2.8047  -23.5128  -56.1216 H         1 UNK         0.0600 
    240 H240       -2.6613  -20.6304  -55.2023 H         1 UNK         0.3000 
    241 H241       -0.9123  -19.4166  -54.8435 H         1 UNK         0.0600 
    242 H242        1.1810  -22.2686  -55.7850 H         1 UNK         0.3800 
    243 H243       -0.3537  -21.9738  -54.9828 H         1 UNK         0.3800 
    244 H244       -2.0078  -17.8337  -56.6043 H         1 UNK         0.0800 
    245 H245       -0.7523  -18.3542  -57.6889 H         1 UNK         0.0800 
    246 H246       -1.1372  -15.3682  -54.6760 H         1 UNK         0.0800 
    247 H247       -1.7945  -16.9578  -54.3937 H         1 UNK         0.0800 
@<TRIPOS>BOND
     1    1    2 1    
     2    1  127 1    
     3    1  128 1    
     4    1  129 1    
     5    2    3 2    
     6    2    4 am   BACKBONE|DICT|INTERRES
     7    4    5 1    
     8    4  130 1    
     9    5    6 1    
    10    5   65 1    
    11    5  131 1    
    12    6    7 1    
    13    6  132 1    
    14    6  133 1    
    15    7    8 1    
    16    8    9 1    
    17    8  134 1    
    18    8  135 1    
    19    9   10 ar   
    20    9   14 ar   
    21   10   11 ar   
    22   10  136 1    
    23   11   12 ar   
    24   11  126 1    
    25   12   13 ar   
    26   12  137 1    
    27   13   14 ar   
    28   13   15 1    
    29   14  138 1    
    30   15   16 1    
    31   15  139 1    
    32   15  140 1    
    33   16   17 1    
    34   17   18 1    
    35   17  141 1    
    36   17  142 1    
    37   18   19 1    
    38   18   67 1    
    39   18  143 1    
    40   19   20 am   BACKBONE|DICT|INTERRES
    41   19  144 1    
    42   20   21 2    
    43   20   22 1    
    44   22   23 1    
    45   22   24 1    
    46   22  145 1    
    47   23  146 1    
    48   23  147 1    
    49   23  148 1    
    50   24   25 am   BACKBONE|DICT|INTERRES
    51   24  149 1    
    52   25   26 2    
    53   25   27 1    
    54   27   28 1    
    55   27   29 1    
    56   27  150 1    
    57   28  151 1    
    58   28  152 1    
    59   28  153 1    
    60   29   30 am   BACKBONE|DICT|INTERRES
    61   29  154 1    
    62   30   31 2    
    63   30   32 1    
    64   32   33 1    
    65   32   34 1    
    66   32  155 1    
    67   33  156 1    
    68   33  157 1    
    69   33  158 1    
    70   34   35 am   BACKBONE|DICT|INTERRES
    71   34  159 1    
    72   35   36 2    
    73   35   37 1    
    74   37   38 1    
    75   37   39 1    
    76   37  160 1    
    77   38  161 1    
    78   38  162 1    
    79   38  163 1    
    80   39   40 am   BACKBONE|DICT|INTERRES
    81   39  164 1    
    82   40   41 2    
    83   40   42 1    
    84   42   43 1    
    85   42   44 1    
    86   42  165 1    
    87   43  166 1    
    88   43  167 1    
    89   43  168 1    
    90   44   45 am   BACKBONE|DICT|INTERRES
    91   44  169 1    
    92   45   46 2    
    93   45   47 1    
    94   47   48 1    
    95   47   49 1    
    96   47  170 1    
    97   48  171 1    
    98   48  172 1    
    99   48  173 1    
   100   49   50 am   BACKBONE|DICT|INTERRES
   101   49  174 1    
   102   50   51 2    
   103   50   52 1    
   104   52   53 1    
   105   52   54 1    
   106   52  175 1    
   107   53  176 1    
   108   53  177 1    
   109   53  178 1    
   110   54   55 am   BACKBONE|DICT|INTERRES
   111   54  179 1    
   112   55   56 2    
   113   55   57 1    
   114   57   58 1    
   115   57   59 1    
   116   57  180 1    
   117   58  181 1    
   118   58  182 1    
   119   58  183 1    
   120   59   60 am   BACKBONE|DICT|INTERRES
   121   59  184 1    
   122   60   61 2    
   123   60   62 1    
   124   62   63 1    
   125   62   64 1    
   126   62  185 1    
   127   63  186 1    
   128   63  187 1    
   129   63  188 1    
   130   64   65 am   BACKBONE|DICT|INTERRES
   131   64  189 1    
   132   65   66 2    
   133   67   68 2    
   134   67   69 am   BACKBONE|DICT|INTERRES
   135   69   70 1    
   136   69  190 1    
   137   70   71 1    
   138   70   72 1    
   139   70  191 1    
   140   71  192 1    
   141   71  193 1    
   142   71  194 1    
   143   72   73 2    
   144   72   74 am   BACKBONE|DICT|INTERRES
   145   74   75 1    
   146   74  195 1    
   147   75   76 1    
   148   75   77 1    
   149   75  196 1    
   150   76  197 1    
   151   76  198 1    
   152   76  199 1    
   153   77   78 2    
   154   77   79 am   BACKBONE|DICT|INTERRES
   155   79   80 1    
   156   79  200 1    
   157   80   81 1    
   158   80   82 1    
   159   80  201 1    
   160   81  202 1    
   161   81  203 1    
   162   81  204 1    
   163   82   83 2    
   164   82   84 am   BACKBONE|DICT|INTERRES
   165   84   85 1    
   166   84  205 1    
   167   85   86 1    
   168   85   87 1    
   169   85  206 1    
   170   86  207 1    
   171   86  208 1    
   172   86  209 1    
   173   87   88 2    
   174   87   89 am   BACKBONE|DICT|INTERRES
   175   89   90 1    
   176   89  210 1    
   177   90   91 1    
   178   90   92 1    
   179   90  211 1    
   180   91  212 1    
   181   91  213 1    
   182   91  214 1    
   183   92   93 2    
   184   92   94 am   BACKBONE|DICT|INTERRES
   185   94   95 1    
   186   94  215 1    
   187   95   96 1    
   188   95   97 1    
   189   95  216 1    
   190   96  217 1    
   191   96  218 1    
   192   96  219 1    
   193   97   98 2    
   194   97   99 am   BACKBONE|DICT|INTERRES
   195   99  100 1    
   196   99  220 1    
   197  100  101 1    
   198  100  102 1    
   199  100  221 1    
   200  101  222 1    
   201  101  223 1    
   202  101  224 1    
   203  102  103 2    
   204  102  104 am   BACKBONE|DICT|INTERRES
   205  104  105 1    
   206  104  225 1    
   207  105  106 1    
   208  105  107 1    
   209  105  226 1    
   210  106  227 1    
   211  106  228 1    
   212  106  229 1    
   213  107  108 2    
   214  107  109 am   BACKBONE|DICT|INTERRES
   215  109  110 1    
   216  109  230 1    
   217  110  111 1    
   218  110  112 1    
   219  110  231 1    
   220  111  232 1    
   221  111  233 1    
   222  111  234 1    
   223  112  113 2    
   224  112  114 am   BACKBONE|DICT|INTERRES
   225  114  115 1    
   226  114  235 1    
   227  115  116 1    
   228  115  117 1    
   229  115  236 1    
   230  116  237 1    
   231  116  238 1    
   232  116  239 1    
   233  117  118 2    
   234  117  119 am   BACKBONE|DICT|INTERRES
   235  119  120 1    
   236  119  240 1    
   237  120  121 1    
   238  120  124 1    
   239  120  241 1    
   240  121  122 am   BACKBONE|DICT|INTERRES
   241  121  123 2    
   242  122  242 1    
   243  122  243 1    
   244  124  125 1    
   245  124  244 1    
   246  124  245 1    
   247  125  126 1    
   248  126  246 1    
   249  126  247 1    
@<TRIPOS>SUBSTRUCTURE
     1 UNK         1 GROUP             0       ****    0 ROOT    
