@<TRIPOS>MOLECULE
3R540
247   249    1
SMALL
USER_CHARGES


@<TRIPOS>ATOM
      1 CA          2.4988  -11.0395  -45.8410 C.3       0 UNK        -0.1800 
      2 C           3.4448  -11.8691  -46.6967 C.2       0 UNK         0.5000 
      3 O           4.4367  -11.3440  -47.2014 O.2       0 UNK        -0.5000 
      4 N           3.1462  -13.1652  -46.8536 N.am      1 UNK        -0.5000 
      5 CA          3.9149  -14.1229  -47.6685 C.3       1 UNK         0.1400 
      6 C6          3.0616  -15.3593  -48.0532 C.3       23 UNK        -0.0398 
      7 S7          1.5565  -14.8551  -48.9614 S.3       23 UNK        -0.2404 
      8 C8          1.7403  -15.6609  -50.5834 C.3       23 UNK        -0.0205 
      9 C9          0.9591  -16.9644  -50.6442 C.ar      23 UNK        -0.0193 
     10 C10        -0.4374  -16.9339  -50.7094 C.ar      23 UNK        -0.1150 
     11 C11        -1.1775  -18.1194  -50.7521 C.ar      23 UNK        -0.0193 
     12 C12        -0.5034  -19.3434  -50.7465 C.ar      23 UNK        -0.1150 
     13 C13         0.8932  -19.3898  -50.7035 C.ar      23 UNK        -0.0193 
     14 C14         1.6204  -18.1954  -50.6521 C.ar      23 UNK        -0.1150 
     15 C15         1.6045  -20.7374  -50.7187 C.3       23 UNK        -0.0205 
     16 S16         2.7425  -20.9835  -49.3139 S.3       23 UNK        -0.2404 
     17 C17         1.7263  -20.5175  -47.8709 C.3       23 UNK        -0.0398 
     18 CA          1.0194  -21.7068  -47.1840 C.3       11 UNK         0.1400 
     19 N           0.6488  -21.3813  -45.8072 N.am      11 UNK        -0.5000 
     20 C           0.1982  -22.2610  -44.9038 C.2       10 UNK         0.5000 
     21 O           0.0780  -23.4668  -45.1230 O.2       10 UNK        -0.5000 
     22 CA         -0.2281  -21.6868  -43.5407 C.3       10 UNK         0.1400 
     23 CB          0.9984  -21.4032  -42.6609 C.3       10 UNK        -0.1800 
     24 N          -1.0359  -20.4715  -43.6680 N.am      10 UNK        -0.5000 
     25 C          -2.2454  -20.4290  -44.2462 C.2       9 UNK         0.5000 
     26 O          -2.8164  -21.4179  -44.7060 O.2       9 UNK        -0.5000 
     27 CA         -2.9172  -19.0486  -44.3646 C.3       9 UNK         0.1400 
     28 CB         -3.5343  -18.6231  -43.0239 C.3       9 UNK        -0.1800 
     29 N          -2.0057  -18.0056  -44.8331 N.am      9 UNK        -0.5000 
     30 C          -1.3823  -18.0080  -46.0204 C.2       8 UNK         0.5000 
     31 O          -1.5115  -18.8921  -46.8636 O.2       8 UNK        -0.5000 
     32 CA         -0.3812  -16.8687  -46.2696 C.3       8 UNK         0.1400 
     33 CB         -1.1049  -15.5468  -46.5709 C.3       8 UNK        -0.1800 
     34 N           0.5202  -16.6935  -45.1307 N.am      8 UNK        -0.5000 
     35 C           1.3824  -17.6262  -44.7012 C.2       7 UNK         0.5000 
     36 O           1.5426  -18.7172  -45.2426 O.2       7 UNK        -0.5000 
     37 CA          2.1775  -17.3013  -43.4308 C.3       7 UNK         0.1400 
     38 CB          3.4376  -16.5097  -43.7881 C.3       7 UNK        -0.1800 
     39 N           1.3788  -16.5669  -42.4499 N.am      7 UNK        -0.5000 
     40 C           0.3748  -17.1251  -41.7580 C.2       6 UNK         0.5000 
     41 O           0.0290  -18.3009  -41.8801 O.2       6 UNK        -0.5000 
     42 CA         -0.3969  -16.2045  -40.7994 C.3       6 UNK         0.1400 
     43 CB          0.3935  -15.9899  -39.4997 C.3       6 UNK        -0.1800 
     44 N          -0.7257  -14.9044  -41.3827 N.am      6 UNK        -0.5000 
     45 C          -1.4768  -14.7001  -42.4705 C.2       5 UNK         0.5000 
     46 O          -1.9288  -15.6118  -43.1634 O.2       5 UNK        -0.5000 
     47 CA         -1.7742  -13.2390  -42.8636 C.3       5 UNK         0.1400 
     48 CB         -2.9560  -12.6819  -42.0483 C.3       5 UNK        -0.1800 
     49 N          -0.6209  -12.3276  -42.8209 N.am      5 UNK        -0.5000 
     50 C           0.1086  -11.9243  -41.7709 C.2       4 UNK         0.5000 
     51 O          -0.0693  -12.3011  -40.6105 O.2       4 UNK        -0.5000 
     52 CA          1.2537  -10.9425  -42.0799 C.3       4 UNK         0.1400 
     53 CB          1.0828   -9.6323  -41.2953 C.3       4 UNK        -0.1800 
     54 N           2.5673  -11.5144  -41.7812 N.am      4 UNK        -0.5000 
     55 C           3.0848  -12.5985  -42.3699 C.2       3 UNK         0.5000 
     56 O           2.4983  -13.2637  -43.2310 O.2       3 UNK        -0.5000 
     57 CA          4.4981  -13.0108  -41.9322 C.3       3 UNK         0.1400 
     58 CB          4.4414  -13.9138  -40.6896 C.3       3 UNK        -0.1800 
     59 N           5.0923  -13.7490  -43.0384 N.am      3 UNK        -0.5000 
     60 C           6.3214  -13.5981  -43.5452 C.2       2 UNK         0.5000 
     61 O           7.1956  -12.8924  -43.0422 O.2       2 UNK        -0.5000 
     62 CA          6.5855  -14.3216  -44.8764 C.3       2 UNK         0.1400 
     63 CB          7.0346  -15.7757  -44.6376 C.3       2 UNK        -0.1800 
     64 N           5.3763  -14.2458  -45.6993 N.am      2 UNK        -0.5000 
     65 C           5.2506  -14.5309  -47.0006 C.2       1 UNK         0.5000 
     66 O           6.1353  -15.0540  -47.6785 O.2       1 UNK        -0.5000 
     67 C          -0.1946  -22.2080  -47.9915 C.2       11 UNK         0.5000 
     68 O          -0.0814  -23.2221  -48.6778 O.2       11 UNK        -0.5000 
     69 N          -1.3455  -21.5324  -47.8586 N.am      12 UNK        -0.5000 
     70 CA         -2.6128  -21.9208  -48.4773 C.3       12 UNK         0.1400 
     71 CB         -3.6767  -20.8511  -48.2069 C.3       12 UNK        -0.1800 
     72 C          -3.1126  -23.2941  -48.0064 C.2       12 UNK         0.5000 
     73 O          -3.5701  -24.0785  -48.8359 O.2       12 UNK        -0.5000 
     74 N          -2.9879  -23.5741  -46.7017 N.am      13 UNK        -0.5000 
     75 CA         -3.3130  -24.8673  -46.1013 C.3       13 UNK         0.1400 
     76 CB         -3.2609  -24.7580  -44.5701 C.3       13 UNK        -0.1800 
     77 C          -2.3975  -25.9967  -46.6071 C.2       13 UNK         0.5000 
     78 O          -2.8950  -27.0741  -46.9348 O.2       13 UNK        -0.5000 
     79 N          -1.0889  -25.7198  -46.7019 N.am      14 UNK        -0.5000 
     80 CA         -0.0809  -26.6385  -47.2365 C.3       14 UNK         0.1400 
     81 CB          1.3221  -26.0780  -46.9575 C.3       14 UNK        -0.1800 
     82 C          -0.2680  -26.9257  -48.7392 C.2       14 UNK         0.5000 
     83 O          -0.1339  -28.0747  -49.1614 O.2       14 UNK        -0.5000 
     84 N          -0.5985  -25.8828  -49.5119 N.am      15 UNK        -0.5000 
     85 CA         -0.8834  -25.9518  -50.9467 C.3       15 UNK         0.1400 
     86 CB         -0.7519  -24.5397  -51.5402 C.3       15 UNK        -0.1800 
     87 C          -2.2709  -26.5402  -51.2753 C.2       15 UNK         0.5000 
     88 O          -2.5191  -26.8680  -52.4354 O.2       15 UNK        -0.5000 
     89 N          -3.1493  -26.6358  -50.2664 N.am      16 UNK        -0.5000 
     90 CA         -4.5547  -27.0482  -50.3342 C.3       16 UNK         0.1400 
     91 CB         -4.6764  -28.5330  -50.7359 C.3       16 UNK        -0.1800 
     92 C          -5.4025  -26.1012  -51.2114 C.2       16 UNK         0.5000 
     93 O          -6.2207  -26.5613  -52.0101 O.2       16 UNK        -0.5000 
     94 N          -5.1749  -24.7894  -51.0367 N.am      17 UNK        -0.5000 
     95 CA         -5.8034  -23.6648  -51.7401 C.3       17 UNK         0.1400 
     96 CB         -7.2771  -23.5132  -51.3119 C.3       17 UNK        -0.1800 
     97 C          -5.6228  -23.7421  -53.2709 C.2       17 UNK         0.5000 
     98 O          -6.5919  -23.6071  -54.0225 O.2       17 UNK        -0.5000 
     99 N          -4.3747  -23.9836  -53.7000 N.am      18 UNK        -0.5000 
    100 CA        -3.9601  -24.1044  -55.0997 C.3       18 UNK         0.1400 
    101 CB        -2.4420  -24.3262  -55.1634 C.3       18 UNK        -0.1800 
    102 C         -4.3603  -22.8794  -55.9424 C.2       18 UNK         0.5000 
    103 O         -4.1464  -21.7448  -55.5097 O.2       18 UNK        -0.5000 
    104 N         -4.9738  -23.1406  -57.1057 N.am      19 UNK        -0.5000 
    105 CA        -5.5275  -22.1634  -58.0550 C.3       19 UNK         0.1400 
    106 CB        -4.3938  -21.3419  -58.7043 C.3       19 UNK        -0.1800 
    107 C         -6.6388  -21.2634  -57.4630 C.2       19 UNK         0.5000 
    108 O         -6.9154  -20.1984  -58.0172 O.2       19 UNK        -0.5000 
    109 N         -7.2452  -21.7000  -56.3465 N.am      20 UNK        -0.5000 
    110 CA        -8.2218  -20.9826  -55.5204 C.3       20 UNK         0.1400 
    111 CB        -9.5401  -20.7564  -56.2906 C.3       20 UNK        -0.1800 
    112 C         -7.6582  -19.6886  -54.8902 C.2       20 UNK         0.5000 
    113 O         -8.4221  -18.7630  -54.6095 O.2       20 UNK        -0.5000 
    114 N         -6.3345  -19.6378  -54.6805 N.am      21 UNK        -0.5000 
    115 CA        -5.6414  -18.5264  -54.0326 C.3       21 UNK         0.1400 
    116 CB        -4.1431  -18.6243  -54.3577 C.3       21 UNK        -0.1800 
    117 C         -5.8792  -18.5289  -52.5099 C.2       21 UNK         0.5000 
    118 O         -6.0503  -19.5998  -51.9202 O.2       21 UNK        -0.5000 
    119 N         -5.8499  -17.3301  -51.9098 N.am      22 UNK        -0.5000 
    120 CA        -6.1554  -17.0472  -50.4929 C.3       22 UNK         0.1400 
    121 C         -7.6530  -17.2886  -50.1172 C.2       22 UNK         0.5000 
    122 N         -8.0387  -17.0580  -48.8685 N.am      22 UNK        -0.7600 
    123 O         -8.4916  -17.6365  -50.9455 O.2       22 UNK        -0.5000 
    124 C124       -5.1688  -17.7390  -49.5050 C.3       23 UNK        -0.0398 
    125 S125       -3.4751  -17.0606  -49.5629 S.3       23 UNK        -0.2404 
    126 C126       -2.6977  -18.0892  -50.8499 C.3       23 UNK        -0.0205 
    127 H127        1.6653  -11.6353  -45.4686 H         1 UNK         0.0600 
    128 H128        3.0332  -10.6272  -44.9852 H         1 UNK         0.0600 
    129 H129        2.0928  -10.2122  -46.4229 H         1 UNK         0.0600 
    130 H130        2.3038  -13.5300  -46.4329 H         1 UNK         0.3000 
    131 H131        4.1876  -13.6169  -48.5975 H         1 UNK         0.0600 
    132 H132        3.6405  -16.0567  -48.6609 H         1 UNK         0.0800 
    133 H133        2.7579  -15.9117  -47.1625 H         1 UNK         0.0800 
    134 H134        1.3573  -14.9862  -51.3503 H         1 UNK         0.0800 
    135 H135        2.7937  -15.8167  -50.8198 H         1 UNK         0.0800 
    136 H136       -0.9501  -15.9822  -50.7170 H         1 UNK         0.1150 
    137 H137       -1.0676  -20.2642  -50.7874 H         1 UNK         0.1150 
    138 H138        2.7001  -18.2278  -50.6128 H         1 UNK         0.1150 
    139 H139        0.8833  -21.5558  -50.7301 H         1 UNK         0.0800 
    140 H140        2.1717  -20.8231  -51.6462 H         1 UNK         0.0800 
    141 H141        1.0230  -19.7177  -48.1054 H         1 UNK         0.0800 
    142 H142        2.4365  -20.0762  -47.1723 H         1 UNK         0.0800 
    143 H143        1.7325  -22.5320  -47.1250 H         1 UNK         0.0600 
    144 H144        0.7475  -20.4055  -45.5379 H         1 UNK         0.3000 
    145 H145       -0.8376  -22.4417  -43.0396 H         1 UNK         0.0600 
    146 H146        0.7008  -21.0748  -41.6649 H         1 UNK         0.0600 
    147 H147        1.6082  -22.2993  -42.5397 H         1 UNK         0.0600 
    148 H148        1.6331  -20.6287  -43.0921 H         1 UNK         0.0600 
    149 H149       -0.6468  -19.6207  -43.2745 H         1 UNK         0.3000 
    150 H150       -3.7221  -19.1349  -45.0973 H         1 UNK         0.0600 
    151 H151       -4.2311  -19.3775  -42.6567 H         1 UNK         0.0600 
    152 H152       -4.0877  -17.6893  -43.1247 H         1 UNK         0.0600 
    153 H153       -2.7720  -18.4767  -42.2578 H         1 UNK         0.0600 
    154 H154       -1.8488  -17.2240  -44.2021 H         1 UNK         0.3000 
    155 H155        0.2236  -17.1334  -47.1401 H         1 UNK         0.0600 
    156 H156       -0.4001  -14.7244  -46.6889 H         1 UNK         0.0600 
    157 H157       -1.8065  -15.2727  -45.7837 H         1 UNK         0.0600 
    158 H158       -1.6709  -15.6238  -47.4996 H         1 UNK         0.0600 
    159 H159        0.4169  -15.8471  -44.5921 H         1 UNK         0.3000 
    160 H160        2.4905  -18.2458  -42.9804 H         1 UNK         0.0600 
    161 H161        3.1903  -15.5581  -44.2560 H         1 UNK         0.0600 
    162 H162        4.0530  -17.0681  -44.4946 H         1 UNK         0.0600 
    163 H163        4.0440  -16.3234  -42.9022 H         1 UNK         0.0600 
    164 H164        1.5793  -15.5848  -42.3234 H         1 UNK         0.3000 
    165 H165       -1.3368  -16.7015  -40.5508 H         1 UNK         0.0600 
    166 H166        1.3248  -15.4505  -39.6780 H         1 UNK         0.0600 
    167 H167       -0.1886  -15.4200  -38.7753 H         1 UNK         0.0600 
    168 H168        0.6480  -16.9430  -39.0342 H         1 UNK         0.0600 
    169 H169       -0.4015  -14.0771  -40.8869 H         1 UNK         0.3000 
    170 H170       -2.0867  -13.2626  -43.9089 H         1 UNK         0.0600 
    171 H171       -3.8384  -13.3129  -42.1626 H         1 UNK         0.0600 
    172 H172       -2.7299  -12.6304  -40.9829 H         1 UNK         0.0600 
    173 H173       -3.2276  -11.6806  -42.3822 H         1 UNK         0.0600 
    174 H174       -0.3388  -11.9835  -43.7277 H         1 UNK         0.3000 
    175 H175        1.2303  -10.6974  -43.1431 H         1 UNK         0.0600 
    176 H176        1.8479   -8.9054  -41.5687 H         1 UNK         0.0600 
    177 H177        0.1138   -9.1766  -41.5033 H         1 UNK         0.0600 
    178 H178        1.1441   -9.7956  -40.2185 H         1 UNK         0.0600 
    179 H179        3.1003  -11.0481  -41.0617 H         1 UNK         0.3000 
    180 H180        5.0803  -12.1126  -41.7152 H         1 UNK         0.0600 
    181 H181        3.8356  -14.8041  -40.8632 H         1 UNK         0.0600 
    182 H182        4.0100  -13.3838  -39.8396 H         1 UNK         0.0600 
    183 H183        5.4392  -14.2409  -40.3968 H         1 UNK         0.0600 
    184 H184        4.4321  -14.3390  -43.5244 H         1 UNK         0.3000 
    185 H185        7.3828  -13.7865  -45.3962 H         1 UNK         0.0600 
    186 H186        7.2537  -16.2901  -45.5727 H         1 UNK         0.0600 
    187 H187        7.9447  -15.8026  -44.0373 H         1 UNK         0.0600 
    188 H188        6.2804  -16.3535  -44.1059 H         1 UNK         0.0600 
    189 H189        4.6086  -13.7394  -45.2812 H         1 UNK         0.3000 
    190 H190       -1.3580  -20.6714  -47.3149 H         1 UNK         0.3000 
    191 H191       -2.4502  -21.9755  -49.5553 H         1 UNK         0.0600 
    192 H192       -3.3349  -19.8743  -48.5414 H         1 UNK         0.0600 
    193 H193       -4.6033  -21.0779  -48.7355 H         1 UNK         0.0600 
    194 H194       -3.9114  -20.7712  -47.1454 H         1 UNK         0.0600 
    195 H195       -2.6557  -22.8484  -46.0734 H         1 UNK         0.3000 
    196 H196       -4.3369  -25.1181  -46.3866 H         1 UNK         0.0600 
    197 H197       -3.5182  -25.7086  -44.1015 H         1 UNK         0.0600 
    198 H198       -3.9684  -24.0132  -44.2052 H         1 UNK         0.0600 
    199 H199       -2.2689  -24.4753  -44.2177 H         1 UNK         0.0600 
    200 H200       -0.7554  -24.8184  -46.3740 H         1 UNK         0.3000 
    201 H201       -0.1779  -27.5866  -46.7036 H         1 UNK         0.0600 
    202 H202        1.4853  -25.9396  -45.8886 H         1 UNK         0.0600 
    203 H203        1.4768  -25.1154  -47.4455 H         1 UNK         0.0600 
    204 H204        2.0938  -26.7581  -47.3200 H         1 UNK         0.0600 
    205 H205       -0.6102  -24.9536  -49.0961 H         1 UNK         0.3000 
    206 H206       -0.1349  -26.5919  -51.4180 H         1 UNK         0.0600 
    207 H207       -0.8898  -24.5533  -52.6210 H         1 UNK         0.0600 
    208 H208       -1.4912  -23.8569  -51.1196 H         1 UNK         0.0600 
    209 H209        0.2365  -24.1219  -51.3478 H         1 UNK         0.0600 
    210 H210       -2.8477  -26.2929  -49.3638 H         1 UNK         0.3000 
    211 H211       -4.9450  -26.9510  -49.3200 H         1 UNK         0.0600 
    212 H212       -4.3567  -28.7047  -51.7640 H         1 UNK         0.0600 
    213 H213       -5.7086  -28.8752  -50.6540 H         1 UNK         0.0600 
    214 H214       -4.0725  -29.1665  -50.0861 H         1 UNK         0.0600 
    215 H215       -4.5011  -24.5320  -50.3165 H         1 UNK         0.3000 
    216 H216       -5.2763  -22.7657  -51.4165 H         1 UNK         0.0600 
    217 H217       -7.3648  -23.4239  -50.2292 H         1 UNK         0.0600 
    218 H218       -7.8814  -24.3635  -51.6295 H         1 UNK         0.0600 
    219 H219       -7.7179  -22.6154  -51.7475 H         1 UNK         0.0600 
    220 H220       -3.6496  -24.1031  -53.0097 H         1 UNK         0.3000 
    221 H221       -4.4534  -24.9895  -55.5061 H         1 UNK         0.0600 
    222 H222       -1.8958  -23.4969  -54.7119 H         1 UNK         0.0600 
    223 H223       -2.1549  -25.2426  -54.6481 H         1 UNK         0.0600 
    224 H224       -2.1033  -24.4181  -56.1962 H         1 UNK         0.0600 
    225 H225       -5.1198  -24.1085  -57.3584 H         1 UNK         0.3000 
    226 H226       -6.0052  -22.7454  -58.8443 H         1 UNK         0.0600 
    227 H227       -3.6233  -21.9916  -59.1192 H         1 UNK         0.0600 
    228 H228       -4.7721  -20.7281  -59.5226 H         1 UNK         0.0600 
    229 H229       -3.9178  -20.6718  -57.9877 H         1 UNK         0.0600 
    230 H230       -6.9242  -22.5740  -55.9460 H         1 UNK         0.3000 
    231 H231       -8.4461  -21.6437  -54.6823 H         1 UNK         0.0600 
    232 H232       -9.9101  -21.6870  -56.7207 H         1 UNK         0.0600 
    233 H233       -9.4201  -20.0359  -57.0999 H         1 UNK         0.0600 
    234 H234      -10.3186  -20.3753  -55.6288 H         1 UNK         0.0600 
    235 H235       -5.7650  -20.4396  -54.9255 H         1 UNK         0.3000 
    236 H236       -6.0249  -17.5935  -54.4513 H         1 UNK         0.0600 
    237 H237       -3.6148  -17.7258  -54.0395 H         1 UNK         0.0600 
    238 H238       -3.6779  -19.4788  -53.8639 H         1 UNK         0.0600 
    239 H239       -3.9771  -18.7294  -55.4303 H         1 UNK         0.0600 
    240 H240       -5.7077  -16.5116  -52.4835 H         1 UNK         0.3000 
    241 H241       -6.0237  -15.9696  -50.3888 H         1 UNK         0.0600 
    242 H242       -7.4005  -16.7260  -48.1627 H         1 UNK         0.3800 
    243 H243       -9.0084  -17.1958  -48.6285 H         1 UNK         0.3800 
    244 H244       -5.4932  -17.6075  -48.4727 H         1 UNK         0.0800 
    245 H245       -5.1507  -18.8164  -49.6599 H         1 UNK         0.0800 
    246 H246       -3.1026  -19.1010  -50.8073 H         1 UNK         0.0800 
    247 H247       -2.9697  -17.6864  -51.8235 H         1 UNK         0.0800 
@<TRIPOS>BOND
     1    1    2 1    
     2    1  127 1    
     3    1  128 1    
     4    1  129 1    
     5    2    3 2    
     6    2    4 am   BACKBONE|DICT|INTERRES
     7    4    5 1    
     8    4  130 1    
     9    5    6 1    
    10    5   65 1    
    11    5  131 1    
    12    6    7 1    
    13    6  132 1    
    14    6  133 1    
    15    7    8 1    
    16    8    9 1    
    17    8  134 1    
    18    8  135 1    
    19    9   10 ar   
    20    9   14 ar   
    21   10   11 ar   
    22   10  136 1    
    23   11   12 ar   
    24   11  126 1    
    25   12   13 ar   
    26   12  137 1    
    27   13   14 ar   
    28   13   15 1    
    29   14  138 1    
    30   15   16 1    
    31   15  139 1    
    32   15  140 1    
    33   16   17 1    
    34   17   18 1    
    35   17  141 1    
    36   17  142 1    
    37   18   19 1    
    38   18   67 1    
    39   18  143 1    
    40   19   20 am   BACKBONE|DICT|INTERRES
    41   19  144 1    
    42   20   21 2    
    43   20   22 1    
    44   22   23 1    
    45   22   24 1    
    46   22  145 1    
    47   23  146 1    
    48   23  147 1    
    49   23  148 1    
    50   24   25 am   BACKBONE|DICT|INTERRES
    51   24  149 1    
    52   25   26 2    
    53   25   27 1    
    54   27   28 1    
    55   27   29 1    
    56   27  150 1    
    57   28  151 1    
    58   28  152 1    
    59   28  153 1    
    60   29   30 am   BACKBONE|DICT|INTERRES
    61   29  154 1    
    62   30   31 2    
    63   30   32 1    
    64   32   33 1    
    65   32   34 1    
    66   32  155 1    
    67   33  156 1    
    68   33  157 1    
    69   33  158 1    
    70   34   35 am   BACKBONE|DICT|INTERRES
    71   34  159 1    
    72   35   36 2    
    73   35   37 1    
    74   37   38 1    
    75   37   39 1    
    76   37  160 1    
    77   38  161 1    
    78   38  162 1    
    79   38  163 1    
    80   39   40 am   BACKBONE|DICT|INTERRES
    81   39  164 1    
    82   40   41 2    
    83   40   42 1    
    84   42   43 1    
    85   42   44 1    
    86   42  165 1    
    87   43  166 1    
    88   43  167 1    
    89   43  168 1    
    90   44   45 am   BACKBONE|DICT|INTERRES
    91   44  169 1    
    92   45   46 2    
    93   45   47 1    
    94   47   48 1    
    95   47   49 1    
    96   47  170 1    
    97   48  171 1    
    98   48  172 1    
    99   48  173 1    
   100   49   50 am   BACKBONE|DICT|INTERRES
   101   49  174 1    
   102   50   51 2    
   103   50   52 1    
   104   52   53 1    
   105   52   54 1    
   106   52  175 1    
   107   53  176 1    
   108   53  177 1    
   109   53  178 1    
   110   54   55 am   BACKBONE|DICT|INTERRES
   111   54  179 1    
   112   55   56 2    
   113   55   57 1    
   114   57   58 1    
   115   57   59 1    
   116   57  180 1    
   117   58  181 1    
   118   58  182 1    
   119   58  183 1    
   120   59   60 am   BACKBONE|DICT|INTERRES
   121   59  184 1    
   122   60   61 2    
   123   60   62 1    
   124   62   63 1    
   125   62   64 1    
   126   62  185 1    
   127   63  186 1    
   128   63  187 1    
   129   63  188 1    
   130   64   65 am   BACKBONE|DICT|INTERRES
   131   64  189 1    
   132   65   66 2    
   133   67   68 2    
   134   67   69 am   BACKBONE|DICT|INTERRES
   135   69   70 1    
   136   69  190 1    
   137   70   71 1    
   138   70   72 1    
   139   70  191 1    
   140   71  192 1    
   141   71  193 1    
   142   71  194 1    
   143   72   73 2    
   144   72   74 am   BACKBONE|DICT|INTERRES
   145   74   75 1    
   146   74  195 1    
   147   75   76 1    
   148   75   77 1    
   149   75  196 1    
   150   76  197 1    
   151   76  198 1    
   152   76  199 1    
   153   77   78 2    
   154   77   79 am   BACKBONE|DICT|INTERRES
   155   79   80 1    
   156   79  200 1    
   157   80   81 1    
   158   80   82 1    
   159   80  201 1    
   160   81  202 1    
   161   81  203 1    
   162   81  204 1    
   163   82   83 2    
   164   82   84 am   BACKBONE|DICT|INTERRES
   165   84   85 1    
   166   84  205 1    
   167   85   86 1    
   168   85   87 1    
   169   85  206 1    
   170   86  207 1    
   171   86  208 1    
   172   86  209 1    
   173   87   88 2    
   174   87   89 am   BACKBONE|DICT|INTERRES
   175   89   90 1    
   176   89  210 1    
   177   90   91 1    
   178   90   92 1    
   179   90  211 1    
   180   91  212 1    
   181   91  213 1    
   182   91  214 1    
   183   92   93 2    
   184   92   94 am   BACKBONE|DICT|INTERRES
   185   94   95 1    
   186   94  215 1    
   187   95   96 1    
   188   95   97 1    
   189   95  216 1    
   190   96  217 1    
   191   96  218 1    
   192   96  219 1    
   193   97   98 2    
   194   97   99 am   BACKBONE|DICT|INTERRES
   195   99  100 1    
   196   99  220 1    
   197  100  101 1    
   198  100  102 1    
   199  100  221 1    
   200  101  222 1    
   201  101  223 1    
   202  101  224 1    
   203  102  103 2    
   204  102  104 am   BACKBONE|DICT|INTERRES
   205  104  105 1    
   206  104  225 1    
   207  105  106 1    
   208  105  107 1    
   209  105  226 1    
   210  106  227 1    
   211  106  228 1    
   212  106  229 1    
   213  107  108 2    
   214  107  109 am   BACKBONE|DICT|INTERRES
   215  109  110 1    
   216  109  230 1    
   217  110  111 1    
   218  110  112 1    
   219  110  231 1    
   220  111  232 1    
   221  111  233 1    
   222  111  234 1    
   223  112  113 2    
   224  112  114 am   BACKBONE|DICT|INTERRES
   225  114  115 1    
   226  114  235 1    
   227  115  116 1    
   228  115  117 1    
   229  115  236 1    
   230  116  237 1    
   231  116  238 1    
   232  116  239 1    
   233  117  118 2    
   234  117  119 am   BACKBONE|DICT|INTERRES
   235  119  120 1    
   236  119  240 1    
   237  120  121 1    
   238  120  124 1    
   239  120  241 1    
   240  121  122 am   BACKBONE|DICT|INTERRES
   241  121  123 2    
   242  122  242 1    
   243  122  243 1    
   244  124  125 1    
   245  124  244 1    
   246  124  245 1    
   247  125  126 1    
   248  126  246 1    
   249  126  247 1    
@<TRIPOS>SUBSTRUCTURE
     1 UNK         1 GROUP             0       ****    0 ROOT    
