@<TRIPOS>MOLECULE
3R540
247   249    1
SMALL
USER_CHARGES


@<TRIPOS>ATOM
      1 CA          3.3468  -18.2519  -43.6796 C.3       0 UNK        -0.1800 
      2 C           3.5081  -16.7845  -44.0461 C.2       0 UNK         0.5000 
      3 O           3.6941  -15.9509  -43.1615 O.2       0 UNK        -0.5000 
      4 N           3.4706  -16.4708  -45.3487 N.am      1 UNK        -0.5000 
      5 CA          3.5492  -15.1153  -45.9181 C.3       1 UNK         0.1400 
      6 C6          3.4093  -15.1664  -47.4578 C.3       23 UNK        -0.0398 
      7 S7          2.8378  -13.6000  -48.1989 S.3       23 UNK        -0.2404 
      8 C8          3.0309  -13.9647  -49.9735 C.3       23 UNK        -0.0205 
      9 C9          2.1372  -15.1127  -50.4210 C.ar      23 UNK        -0.0193 
     10 C10         0.8094  -14.8754  -50.7849 C.ar      23 UNK        -0.1150 
     11 C11        -0.0199  -15.9319  -51.1746 C.ar      23 UNK        -0.0193 
     12 C12         0.4898  -17.2343  -51.2053 C.ar      23 UNK        -0.1150 
     13 C13         1.8180  -17.4829  -50.8424 C.ar      23 UNK        -0.0193 
     14 C14         2.6370  -16.4168  -50.4626 C.ar      23 UNK        -0.1150 
     15 C15         2.3828  -18.8953  -50.8594 C.3       23 UNK        -0.0205 
     16 S16         2.0232  -19.7846  -49.3101 S.3       23 UNK        -0.2404 
     17 C17         0.3968  -20.4997  -49.7108 C.3       23 UNK        -0.0398 
     18 CA         -0.0097  -21.6446  -48.7544 C.3       11 UNK         0.1400 
     19 N          -0.2401  -21.1810  -47.3819 N.am      11 UNK        -0.5000 
     20 C          -0.4387  -21.9917  -46.3298 C.2       10 UNK         0.5000 
     21 O          -0.3864  -23.2192  -46.3984 O.2       10 UNK        -0.5000 
     22 CA         -0.8112  -21.3348  -44.9843 C.3       10 UNK         0.1400 
     23 CB          0.4560  -21.0213  -44.1763 C.3       10 UNK        -0.1800 
     24 N          -1.6051  -20.1145  -45.1340 N.am      10 UNK        -0.5000 
     25 C          -2.7854  -20.0375  -45.7696 C.2       9 UNK         0.5000 
     26 O          -3.3969  -21.0257  -46.1745 O.2       9 UNK        -0.5000 
     27 CA         -3.3595  -18.6338  -46.0613 C.3       9 UNK         0.1400 
     28 CB         -4.5281  -18.3255  -45.1141 C.3       9 UNK        -0.1800 
     29 N          -2.3804  -17.5482  -45.9719 N.am      9 UNK        -0.5000 
     30 C          -1.2364  -17.4525  -46.6666 C.2       8 UNK         0.5000 
     31 O          -0.9052  -18.2478  -47.5454 O.2       8 UNK        -0.5000 
     32 CA         -0.2617  -16.3347  -46.2452 C.3       8 UNK         0.1400 
     33 CB         -0.3742  -15.1449  -47.2027 C.3       8 UNK        -0.1800 
     34 N          -0.4444  -15.8618  -44.8669 N.am      8 UNK        -0.5000 
     35 C          -0.3448  -16.6188  -43.7618 C.2       7 UNK         0.5000 
     36 O          -0.0959  -17.8240  -43.7965 O.2       7 UNK        -0.5000 
     37 CA         -0.6061  -15.9478  -42.3989 C.3       7 UNK         0.1400 
     38 CB          0.5958  -16.1027  -41.4528 C.3       7 UNK        -0.1800 
     39 N          -0.9327  -14.5271  -42.5246 N.am      7 UNK        -0.5000 
     40 C          -2.1739  -14.0286  -42.6171 C.2       6 UNK         0.5000 
     41 O          -3.1889  -14.7252  -42.6004 O.2       6 UNK        -0.5000 
     42 CA         -2.3122  -12.4983  -42.7621 C.3       6 UNK         0.1400 
     43 CB         -2.6103  -11.8574  -41.3980 C.3       6 UNK        -0.1800 
     44 N          -1.1245  -11.8607  -43.3330 N.am      6 UNK        -0.5000 
     45 C          -0.7185  -11.9974  -44.6030 C.2       5 UNK         0.5000 
     46 O          -1.3556  -12.6155  -45.4537 O.2       5 UNK        -0.5000 
     47 CA          0.6510  -11.3869  -44.9679 C.3       5 UNK         0.1400 
     48 CB          0.4730   -9.9968  -45.5954 C.3       5 UNK        -0.1800 
     49 N           1.5712  -11.2894  -43.8278 N.am      5 UNK        -0.5000 
     50 C           2.0410  -12.3431  -43.1482 C.2       4 UNK         0.5000 
     51 O           1.7315  -13.5070  -43.4032 O.2       4 UNK        -0.5000 
     52 CA          2.9242  -12.0495  -41.9329 C.3       4 UNK         0.1400 
     53 CB          2.0557  -11.9609  -40.6628 C.3       4 UNK        -0.1800 
     54 N           3.9155  -13.1118  -41.7998 N.am      4 UNK        -0.5000 
     55 C           5.0222  -13.0420  -41.0498 C.2       3 UNK         0.5000 
     56 O           5.3185  -12.0714  -40.3515 O.2       3 UNK        -0.5000 
     57 CA          5.9777  -14.2435  -41.1151 C.3       3 UNK         0.1400 
     58 CB          5.4293  -15.4341  -40.3115 C.3       3 UNK        -0.1800 
     59 N           6.2145  -14.6403  -42.5021 N.am      3 UNK        -0.5000 
     60 C           7.1292  -14.0692  -43.2999 C.2       2 UNK         0.5000 
     61 O           7.9187  -13.2039  -42.9186 O.2       2 UNK        -0.5000 
     62 CA          7.1873  -14.5344  -44.7693 C.3       2 UNK         0.1400 
     63 CB          8.2769  -15.6022  -44.9512 C.3       2 UNK        -0.1800 
     64 N           5.9185  -15.0652  -45.2665 N.am      2 UNK        -0.5000 
     65 C           4.8166  -14.3356  -45.4934 C.2       1 UNK         0.5000 
     66 O           4.7692  -13.1132  -45.3511 O.2       1 UNK        -0.5000 
     67 C          -1.2472  -22.3750  -49.3096 C.2       11 UNK         0.5000 
     68 O          -1.1134  -23.4628  -49.8704 O.2       11 UNK        -0.5000 
     69 N          -2.4303  -21.7779  -49.1089 N.am      12 UNK        -0.5000 
     70 CA         -3.7167  -22.3407  -49.5131 C.3       12 UNK         0.1400 
     71 CB         -4.8181  -21.2842  -49.3454 C.3       12 UNK        -0.1800 
     72 C          -4.0538  -23.6166  -48.7257 C.2       12 UNK         0.5000 
     73 O          -4.5240  -24.5845  -49.3198 O.2       12 UNK        -0.5000 
     74 N          -3.7679  -23.6120  -47.4158 N.am      13 UNK        -0.5000 
     75 CA         -3.9308  -24.7579  -46.5212 C.3       13 UNK         0.1400 
     76 CB         -3.6668  -24.3256  -45.0718 C.3       13 UNK        -0.1800 
     77 C          -3.0362  -25.9485  -46.9115 C.2       13 UNK         0.5000 
     78 O          -3.5244  -27.0778  -46.9584 O.2       13 UNK        -0.5000 
     79 N          -1.7635  -25.6765  -47.2380 N.am      14 UNK        -0.5000 
     80 CA         -0.8013  -26.6671  -47.7325 C.3       14 UNK         0.1400 
     81 CB          0.5937  -26.0300  -47.8161 C.3       14 UNK        -0.1800 
     82 C          -1.2037  -27.2729  -49.0915 C.2       14 UNK         0.5000 
     83 O          -0.9688  -28.4587  -49.3253 O.2       14 UNK        -0.5000 
     84 N          -1.8405  -26.4581  -49.9412 N.am      15 UNK        -0.5000 
     85 CA         -2.4216  -26.8521  -51.2247 C.3       15 UNK         0.1400 
     86 CB         -2.4344  -25.6207  -52.1419 C.3       15 UNK        -0.1800 
     87 C          -3.8348  -27.4653  -51.1000 C.2       15 UNK         0.5000 
     88 O          -4.4557  -27.7453  -52.1264 O.2       15 UNK        -0.5000 
     89 N          -4.3386  -27.6403  -49.8670 N.am      16 UNK        -0.5000 
     90 CA         -5.6502  -28.1947  -49.5050 C.3       16 UNK         0.1400 
     91 CB         -5.7010  -29.7019  -49.8297 C.3       16 UNK        -0.1800 
     92 C          -6.8414  -27.4146  -50.1055 C.2       16 UNK         0.5000 
     93 O          -7.8821  -28.0055  -50.3981 O.2       16 UNK        -0.5000 
     94 N          -6.6493  -26.1018  -50.3009 N.am      17 UNK        -0.5000 
     95 CA         -7.5480  -25.1293  -50.9305 C.3       17 UNK         0.1400 
     96 CB         -8.8380  -24.9585  -50.1028 C.3       17 UNK        -0.1800 
     97 C          -7.8376  -25.3922  -52.4260 C.2       17 UNK         0.5000 
     98 O          -8.7167  -24.7392  -52.9907 O.2       17 UNK        -0.5000 
     99 N          -7.0947  -26.3127  -53.0583 N.am      18 UNK        -0.5000 
    100 CA        -7.2215  -26.6446  -54.4796 C.3       18 UNK         0.1400 
    101 CB        -6.7255  -28.0818  -54.7016 C.3       18 UNK        -0.1800 
    102 C         -6.4543  -25.6629  -55.3860 C.2       18 UNK         0.5000 
    103 O         -6.7245  -25.6076  -56.5865 O.2       18 UNK        -0.5000 
    104 N         -5.5152  -24.9126  -54.8018 N.am      19 UNK        -0.5000 
    105 CA        -4.6631  -23.9206  -55.4428 C.3       19 UNK         0.1400 
    106 CB        -3.5359  -24.6285  -56.2224 C.3       19 UNK        -0.1800 
    107 C         -4.1040  -22.9895  -54.3543 C.2       19 UNK         0.5000 
    108 O         -4.4067  -23.1771  -53.1729 O.2       19 UNK        -0.5000 
    109 N         -3.2904  -22.0110  -54.7760 N.am      20 UNK        -0.5000 
    110 CA        -2.4949  -21.0980  -53.9419 C.3       20 UNK         0.1400 
    111 CB        -1.4096  -21.8823  -53.1771 C.3       20 UNK        -0.1800 
    112 C         -3.3161  -20.1742  -53.0150 C.2       20 UNK         0.5000 
    113 O         -2.7831  -19.6734  -52.0235 O.2       20 UNK        -0.5000 
    114 N         -4.5898  -19.9472  -53.3621 N.am      21 UNK        -0.5000 
    115 CA        -5.4893  -19.0253  -52.6750 C.3       21 UNK         0.1400 
    116 CB        -6.9322  -19.3034  -53.1226 C.3       21 UNK        -0.1800 
    117 C         -5.0952  -17.5653  -52.9564 C.2       21 UNK         0.5000 
    118 O         -4.8280  -17.2178  -54.1096 O.2       21 UNK        -0.5000 
    119 N         -5.0778  -16.7425  -51.9034 N.am      22 UNK        -0.5000 
    120 CA        -4.6987  -15.3208  -51.9661 C.3       22 UNK         0.1400 
    121 C         -5.8594  -14.3624  -52.3661 C.2       22 UNK         0.5000 
    122 N         -7.0918  -14.8311  -52.5206 N.am      22 UNK        -0.7600 
    123 O         -5.6354  -13.1694  -52.5517 O.2       22 UNK        -0.5000 
    124 C124       -4.0121  -14.8484  -50.6567 C.3       23 UNK        -0.0398 
    125 S125       -2.5835  -15.8650  -50.1415 S.3       23 UNK        -0.2404 
    126 C126       -1.4640  -15.6579  -51.5613 C.3       23 UNK        -0.0205 
    127 H127        3.1706  -18.8723  -44.5583 H         1 UNK         0.0600 
    128 H128        4.2444  -18.6139  -43.1788 H         1 UNK         0.0600 
    129 H129        2.5034  -18.3774  -43.0009 H         1 UNK         0.0600 
    130 H130        3.3485  -17.2167  -46.0180 H         1 UNK         0.3000 
    131 H131        2.6888  -14.5745  -45.5224 H         1 UNK         0.0600 
    132 H132        4.3436  -15.4778  -47.9288 H         1 UNK         0.0800 
    133 H133        2.6696  -15.9213  -47.7262 H         1 UNK         0.0800 
    134 H134        2.7906  -13.0677  -50.5461 H         1 UNK         0.0800 
    135 H135        4.0770  -14.1895  -50.1869 H         1 UNK         0.0800 
    136 H136        0.4169  -13.8688  -50.7484 H         1 UNK         0.1150 
    137 H137       -0.1520  -18.0526  -51.5010 H         1 UNK         0.1150 
    138 H138        3.6636  -16.6054  -50.1817 H         1 UNK         0.1150 
    139 H139        1.9982  -19.4451  -51.7194 H         1 UNK         0.0800 
    140 H140        3.4652  -18.8587  -50.9915 H         1 UNK         0.0800 
    141 H141        0.4485  -20.8751  -50.7331 H         1 UNK         0.0800 
    142 H142       -0.3521  -19.7059  -49.7116 H         1 UNK         0.0800 
    143 H143        0.8060  -22.3706  -48.7263 H         1 UNK         0.0600 
    144 H144       -0.3276  -20.1768  -47.2613 H         1 UNK         0.3000 
    145 H145       -1.4096  -22.0492  -44.4171 H         1 UNK         0.0600 
    146 H146        0.2090  -20.6251  -43.1912 H         1 UNK         0.0600 
    147 H147        1.0570  -21.9189  -44.0252 H         1 UNK         0.0600 
    148 H148        1.0819  -20.2869  -44.6845 H         1 UNK         0.0600 
    149 H149       -1.1694  -19.2584  -44.8068 H         1 UNK         0.3000 
    150 H150       -3.7388  -18.6487  -47.0849 H         1 UNK         0.0600 
    151 H151       -5.2947  -19.0994  -45.1731 H         1 UNK         0.0600 
    152 H152       -5.0046  -17.3787  -45.3693 H         1 UNK         0.0600 
    153 H153       -4.1985  -18.2674  -44.0759 H         1 UNK         0.0600 
    154 H154       -2.5526  -16.8505  -45.2633 H         1 UNK         0.3000 
    155 H155        0.7477  -16.7417  -46.3185 H         1 UNK         0.0600 
    156 H156        0.3024  -14.3405  -46.9182 H         1 UNK         0.0600 
    157 H157       -1.3865  -14.7396  -47.2262 H         1 UNK         0.0600 
    158 H158       -0.1174  -15.4453  -48.2178 H         1 UNK         0.0600 
    159 H159       -0.6616  -14.8812  -44.7556 H         1 UNK         0.3000 
    160 H160       -1.4466  -16.4782  -41.9469 H         1 UNK         0.0600 
    161 H161        1.4740  -15.5764  -41.8230 H         1 UNK         0.0600 
    162 H162        0.8701  -17.1510  -41.3295 H         1 UNK         0.0600 
    163 H163        0.3679  -15.7092  -40.4623 H         1 UNK         0.0600 
    164 H164       -0.1375  -13.9056  -42.6194 H         1 UNK         0.3000 
    165 H165       -3.1580  -12.3043  -43.4252 H         1 UNK         0.0600 
    166 H166       -1.7892  -12.0063  -40.6953 H         1 UNK         0.0600 
    167 H167       -2.7808  -10.7850  -41.4943 H         1 UNK         0.0600 
    168 H168       -3.5071  -12.2887  -40.9512 H         1 UNK         0.0600 
    169 H169       -0.5468  -11.3273  -42.7008 H         1 UNK         0.3000 
    170 H170        1.1110  -12.0415  -45.7117 H         1 UNK         0.0600 
    171 H171       -0.1873  -10.0421  -46.4627 H         1 UNK         0.0600 
    172 H172        0.0395   -9.2881  -44.8888 H         1 UNK         0.0600 
    173 H173        1.4265   -9.5931  -45.9363 H         1 UNK         0.0600 
    174 H174        1.8519  -10.3588  -43.5535 H         1 UNK         0.3000 
    175 H175        3.4405  -11.1011  -42.0946 H         1 UNK         0.0600 
    176 H176        1.2870  -11.1939  -40.7646 H         1 UNK         0.0600 
    177 H177        2.6504  -11.7026  -39.7869 H         1 UNK         0.0600 
    178 H178        1.5518  -12.9064  -40.4566 H         1 UNK         0.0600 
    179 H179        3.7306  -13.9427  -42.3560 H         1 UNK         0.3000 
    180 H180        6.9251  -13.9486  -40.6586 H         1 UNK         0.0600 
    181 H181        4.4533  -15.7594  -40.6714 H         1 UNK         0.0600 
    182 H182        5.3148  -15.1696  -39.2597 H         1 UNK         0.0600 
    183 H183        6.1057  -16.2875  -40.3605 H         1 UNK         0.0600 
    184 H184        5.5444  -15.2898  -42.9002 H         1 UNK         0.3000 
    185 H185        7.4541  -13.6677  -45.3777 H         1 UNK         0.0600 
    186 H186        8.3818  -15.8853  -45.9987 H         1 UNK         0.0600 
    187 H187        9.2470  -15.2311  -44.6179 H         1 UNK         0.0600 
    188 H188        8.0562  -16.5039  -44.3786 H         1 UNK         0.0600 
    189 H189        5.8643  -16.0653  -45.3923 H         1 UNK         0.3000 
    190 H190       -2.4556  -20.9042  -48.6049 H         1 UNK         0.3000 
    191 H191       -3.6511  -22.5997  -50.5718 H         1 UNK         0.0600 
    192 H192       -4.5393  -20.3497  -49.8297 H         1 UNK         0.0600 
    193 H193       -5.7513  -21.6240  -49.7960 H         1 UNK         0.0600 
    194 H194       -5.0199  -21.0657  -48.2966 H         1 UNK         0.0600 
    195 H195       -3.4386  -22.7462  -46.9968 H         1 UNK         0.3000 
    196 H196       -4.9702  -25.0848  -46.5933 H         1 UNK         0.0600 
    197 H197       -3.8613  -25.1459  -44.3799 H         1 UNK         0.0600 
    198 H198       -4.3109  -23.4947  -44.7827 H         1 UNK         0.0600 
    199 H199       -2.6328  -24.0147  -44.9271 H         1 UNK         0.0600 
    200 H200       -1.4188  -24.7266  -47.1320 H         1 UNK         0.3000 
    201 H201       -0.7600  -27.4825  -47.0075 H         1 UNK         0.0600 
    202 H202        0.9269  -25.6825  -46.8381 H         1 UNK         0.0600 
    203 H203        0.6063  -25.1771  -48.4957 H         1 UNK         0.0600 
    204 H204        1.3320  -26.7482  -48.1747 H         1 UNK         0.0600 
    205 H205       -1.9488  -25.4838  -49.6835 H         1 UNK         0.3000 
    206 H206       -1.7855  -27.6094  -51.6868 H         1 UNK         0.0600 
    207 H207       -1.4274  -25.2345  -52.3005 H         1 UNK         0.0600 
    208 H208       -2.8510  -25.8544  -53.1220 H         1 UNK         0.0600 
    209 H209       -3.0318  -24.8186  -51.7097 H         1 UNK         0.0600 
    210 H210       -3.7743  -27.3404  -49.0813 H         1 UNK         0.3000 
    211 H211       -5.7363  -28.0867  -48.4231 H         1 UNK         0.0600 
    212 H212       -5.6803  -29.8846  -50.9045 H         1 UNK         0.0600 
    213 H213       -6.6107  -30.1578  -49.4374 H         1 UNK         0.0600 
    214 H214       -4.8578  -30.2291  -49.3833 H         1 UNK         0.0600 
    215 H215       -5.7578  -25.7090  -49.9987 H         1 UNK         0.3000 
    216 H216       -7.0130  -24.1788  -50.8997 H         1 UNK         0.0600 
    217 H217       -8.6102  -24.7518  -49.0571 H         1 UNK         0.0600 
    218 H218       -9.4656  -25.8490  -50.1410 H         1 UNK         0.0600 
    219 H219       -9.4344  -24.1241  -50.4735 H         1 UNK         0.0600 
    220 H220       -6.3748  -26.8059  -52.5421 H         1 UNK         0.3000 
    221 H221       -8.2753  -26.6043  -54.7630 H         1 UNK         0.0600 
    222 H222       -5.6605  -28.1782  -54.4886 H         1 UNK         0.0600 
    223 H223       -7.2604  -28.7875  -54.0656 H         1 UNK         0.0600 
    224 H224       -6.8810  -28.3923  -55.7355 H         1 UNK         0.0600 
    225 H225       -5.3942  -24.9665  -53.7980 H         1 UNK         0.3000 
    226 H226       -5.2656  -23.3192  -56.1263 H         1 UNK         0.0600 
    227 H227       -3.9372  -25.3062  -56.9759 H         1 UNK         0.0600 
    228 H228       -2.9016  -23.9134  -56.7467 H         1 UNK         0.0600 
    229 H229       -2.8958  -25.2113  -55.5591 H         1 UNK         0.0600 
    230 H230       -3.1347  -21.9216  -55.7705 H         1 UNK         0.3000 
    231 H231       -1.9824  -20.4315  -54.6369 H         1 UNK         0.0600 
    232 H232       -0.7002  -21.2035  -52.7057 H         1 UNK         0.0600 
    233 H233       -0.8409  -22.5283  -53.8457 H         1 UNK         0.0600 
    234 H234       -1.8404  -22.5070  -52.3946 H         1 UNK         0.0600 
    235 H235       -4.9371  -20.3746  -54.2069 H         1 UNK         0.3000 
    236 H236       -5.4242  -19.2110  -51.6024 H         1 UNK         0.0600 
    237 H237       -7.6348  -18.6498  -52.6043 H         1 UNK         0.0600 
    238 H238       -7.0609  -19.1412  -54.1936 H         1 UNK         0.0600 
    239 H239       -7.2217  -20.3312  -52.9015 H         1 UNK         0.0600 
    240 H240       -5.3020  -17.1001  -50.9866 H         1 UNK         0.3000 
    241 H241       -3.9647  -15.2074  -52.7654 H         1 UNK         0.0600 
    242 H242       -7.2916  -15.8077  -52.3778 H         1 UNK         0.3800 
    243 H243       -7.8330  -14.2010  -52.7853 H         1 UNK         0.3800 
    244 H244       -3.6674  -13.8175  -50.7555 H         1 UNK         0.0800 
    245 H245       -4.7310  -14.8470  -49.8359 H         1 UNK         0.0800 
    246 H246       -1.5526  -14.6452  -51.9575 H         1 UNK         0.0800 
    247 H247       -1.7710  -16.3332  -52.3617 H         1 UNK         0.0800 
@<TRIPOS>BOND
     1    1    2 1    
     2    1  127 1    
     3    1  128 1    
     4    1  129 1    
     5    2    3 2    
     6    2    4 am   BACKBONE|DICT|INTERRES
     7    4    5 1    
     8    4  130 1    
     9    5    6 1    
    10    5   65 1    
    11    5  131 1    
    12    6    7 1    
    13    6  132 1    
    14    6  133 1    
    15    7    8 1    
    16    8    9 1    
    17    8  134 1    
    18    8  135 1    
    19    9   10 ar   
    20    9   14 ar   
    21   10   11 ar   
    22   10  136 1    
    23   11   12 ar   
    24   11  126 1    
    25   12   13 ar   
    26   12  137 1    
    27   13   14 ar   
    28   13   15 1    
    29   14  138 1    
    30   15   16 1    
    31   15  139 1    
    32   15  140 1    
    33   16   17 1    
    34   17   18 1    
    35   17  141 1    
    36   17  142 1    
    37   18   19 1    
    38   18   67 1    
    39   18  143 1    
    40   19   20 am   BACKBONE|DICT|INTERRES
    41   19  144 1    
    42   20   21 2    
    43   20   22 1    
    44   22   23 1    
    45   22   24 1    
    46   22  145 1    
    47   23  146 1    
    48   23  147 1    
    49   23  148 1    
    50   24   25 am   BACKBONE|DICT|INTERRES
    51   24  149 1    
    52   25   26 2    
    53   25   27 1    
    54   27   28 1    
    55   27   29 1    
    56   27  150 1    
    57   28  151 1    
    58   28  152 1    
    59   28  153 1    
    60   29   30 am   BACKBONE|DICT|INTERRES
    61   29  154 1    
    62   30   31 2    
    63   30   32 1    
    64   32   33 1    
    65   32   34 1    
    66   32  155 1    
    67   33  156 1    
    68   33  157 1    
    69   33  158 1    
    70   34   35 am   BACKBONE|DICT|INTERRES
    71   34  159 1    
    72   35   36 2    
    73   35   37 1    
    74   37   38 1    
    75   37   39 1    
    76   37  160 1    
    77   38  161 1    
    78   38  162 1    
    79   38  163 1    
    80   39   40 am   BACKBONE|DICT|INTERRES
    81   39  164 1    
    82   40   41 2    
    83   40   42 1    
    84   42   43 1    
    85   42   44 1    
    86   42  165 1    
    87   43  166 1    
    88   43  167 1    
    89   43  168 1    
    90   44   45 am   BACKBONE|DICT|INTERRES
    91   44  169 1    
    92   45   46 2    
    93   45   47 1    
    94   47   48 1    
    95   47   49 1    
    96   47  170 1    
    97   48  171 1    
    98   48  172 1    
    99   48  173 1    
   100   49   50 am   BACKBONE|DICT|INTERRES
   101   49  174 1    
   102   50   51 2    
   103   50   52 1    
   104   52   53 1    
   105   52   54 1    
   106   52  175 1    
   107   53  176 1    
   108   53  177 1    
   109   53  178 1    
   110   54   55 am   BACKBONE|DICT|INTERRES
   111   54  179 1    
   112   55   56 2    
   113   55   57 1    
   114   57   58 1    
   115   57   59 1    
   116   57  180 1    
   117   58  181 1    
   118   58  182 1    
   119   58  183 1    
   120   59   60 am   BACKBONE|DICT|INTERRES
   121   59  184 1    
   122   60   61 2    
   123   60   62 1    
   124   62   63 1    
   125   62   64 1    
   126   62  185 1    
   127   63  186 1    
   128   63  187 1    
   129   63  188 1    
   130   64   65 am   BACKBONE|DICT|INTERRES
   131   64  189 1    
   132   65   66 2    
   133   67   68 2    
   134   67   69 am   BACKBONE|DICT|INTERRES
   135   69   70 1    
   136   69  190 1    
   137   70   71 1    
   138   70   72 1    
   139   70  191 1    
   140   71  192 1    
   141   71  193 1    
   142   71  194 1    
   143   72   73 2    
   144   72   74 am   BACKBONE|DICT|INTERRES
   145   74   75 1    
   146   74  195 1    
   147   75   76 1    
   148   75   77 1    
   149   75  196 1    
   150   76  197 1    
   151   76  198 1    
   152   76  199 1    
   153   77   78 2    
   154   77   79 am   BACKBONE|DICT|INTERRES
   155   79   80 1    
   156   79  200 1    
   157   80   81 1    
   158   80   82 1    
   159   80  201 1    
   160   81  202 1    
   161   81  203 1    
   162   81  204 1    
   163   82   83 2    
   164   82   84 am   BACKBONE|DICT|INTERRES
   165   84   85 1    
   166   84  205 1    
   167   85   86 1    
   168   85   87 1    
   169   85  206 1    
   170   86  207 1    
   171   86  208 1    
   172   86  209 1    
   173   87   88 2    
   174   87   89 am   BACKBONE|DICT|INTERRES
   175   89   90 1    
   176   89  210 1    
   177   90   91 1    
   178   90   92 1    
   179   90  211 1    
   180   91  212 1    
   181   91  213 1    
   182   91  214 1    
   183   92   93 2    
   184   92   94 am   BACKBONE|DICT|INTERRES
   185   94   95 1    
   186   94  215 1    
   187   95   96 1    
   188   95   97 1    
   189   95  216 1    
   190   96  217 1    
   191   96  218 1    
   192   96  219 1    
   193   97   98 2    
   194   97   99 am   BACKBONE|DICT|INTERRES
   195   99  100 1    
   196   99  220 1    
   197  100  101 1    
   198  100  102 1    
   199  100  221 1    
   200  101  222 1    
   201  101  223 1    
   202  101  224 1    
   203  102  103 2    
   204  102  104 am   BACKBONE|DICT|INTERRES
   205  104  105 1    
   206  104  225 1    
   207  105  106 1    
   208  105  107 1    
   209  105  226 1    
   210  106  227 1    
   211  106  228 1    
   212  106  229 1    
   213  107  108 2    
   214  107  109 am   BACKBONE|DICT|INTERRES
   215  109  110 1    
   216  109  230 1    
   217  110  111 1    
   218  110  112 1    
   219  110  231 1    
   220  111  232 1    
   221  111  233 1    
   222  111  234 1    
   223  112  113 2    
   224  112  114 am   BACKBONE|DICT|INTERRES
   225  114  115 1    
   226  114  235 1    
   227  115  116 1    
   228  115  117 1    
   229  115  236 1    
   230  116  237 1    
   231  116  238 1    
   232  116  239 1    
   233  117  118 2    
   234  117  119 am   BACKBONE|DICT|INTERRES
   235  119  120 1    
   236  119  240 1    
   237  120  121 1    
   238  120  124 1    
   239  120  241 1    
   240  121  122 am   BACKBONE|DICT|INTERRES
   241  121  123 2    
   242  122  242 1    
   243  122  243 1    
   244  124  125 1    
   245  124  244 1    
   246  124  245 1    
   247  125  126 1    
   248  126  246 1    
   249  126  247 1    
@<TRIPOS>SUBSTRUCTURE
     1 UNK         1 GROUP             0       ****    0 ROOT    
