@<TRIPOS>MOLECULE
3R540
247   249    1
SMALL
USER_CHARGES


@<TRIPOS>ATOM
      1 CA          0.4177  -11.9390  -44.5561 C.3       0 UNK        -0.1800 
      2 C           0.3351  -12.7352  -45.8504 C.2       0 UNK         0.5000 
      3 O           0.3007  -13.9630  -45.7952 O.2       0 UNK        -0.5000 
      4 N           0.3312  -12.0311  -46.9938 N.am      1 UNK        -0.5000 
      5 CA          0.2094  -12.4584  -48.4040 C.3       1 UNK         0.1400 
      6 C6         -1.2315  -12.8410  -48.8376 C.3       23 UNK        -0.0398 
      7 S7         -1.8980  -14.4023  -48.1632 S.3       23 UNK        -0.2404 
      8 C8         -2.5413  -15.2376  -49.6442 C.3       23 UNK        -0.0205 
      9 C9         -1.4755  -16.0714  -50.3371 C.ar      23 UNK        -0.0193 
     10 C10        -0.6320  -15.4918  -51.2902 C.ar      23 UNK        -0.1150 
     11 C11         0.3273  -16.2642  -51.9495 C.ar      23 UNK        -0.0193 
     12 C12         0.4222  -17.6290  -51.6678 C.ar      23 UNK        -0.1150 
     13 C13        -0.4192  -18.2230  -50.7240 C.ar      23 UNK        -0.0193 
     14 C14        -1.3579  -17.4363  -50.0498 C.ar      23 UNK        -0.1150 
     15 C15        -0.3225  -19.7190  -50.4667 C.3       23 UNK        -0.0205 
     16 S16         1.0889  -20.1368  -49.3973 S.3       23 UNK        -0.2404 
     17 C17         0.3751  -19.9010  -47.7365 C.3       23 UNK        -0.0398 
     18 CA          0.0510  -21.2495  -47.0502 C.3       11 UNK         0.1400 
     19 N          -0.0259  -21.1223  -45.5948 N.am      11 UNK        -0.5000 
     20 C          -0.0154  -22.1576  -44.7434 C.2       10 UNK         0.5000 
     21 O           0.0978  -23.3326  -45.0914 O.2       10 UNK        -0.5000 
     22 CA         -0.2045  -21.8226  -43.2542 C.3       10 UNK         0.1400 
     23 CB          1.1444  -21.4901  -42.6057 C.3       10 UNK        -0.1800 
     24 N          -1.1465  -20.7192  -43.0468 N.am      10 UNK        -0.5000 
     25 C          -2.4608  -20.8322  -43.2892 C.2       9 UNK         0.5000 
     26 O          -2.9871  -21.8568  -43.7228 O.2       9 UNK        -0.5000 
     27 CA         -3.3363  -19.5961  -43.0369 C.3       9 UNK         0.1400 
     28 CB         -3.6227  -19.4331  -41.5368 C.3       9 UNK        -0.1800 
     29 N          -2.7867  -18.3469  -43.5575 N.am      9 UNK        -0.5000 
     30 C          -2.4294  -18.0858  -44.8202 C.2       8 UNK         0.5000 
     31 O          -2.3805  -18.9344  -45.7111 O.2       8 UNK        -0.5000 
     32 CA         -2.0703  -16.6239  -45.1467 C.3       8 UNK         0.1400 
     33 CB         -3.3390  -15.7524  -45.2203 C.3       8 UNK        -0.1800 
     34 N          -1.0695  -16.0366  -44.2496 N.am      8 UNK        -0.5000 
     35 C          -1.1507  -15.7699  -42.9387 C.2       7 UNK         0.5000 
     36 O          -2.1683  -15.9363  -42.2623 O.2       7 UNK        -0.5000 
     37 CA          0.1564  -15.2880  -42.2751 C.3       7 UNK         0.1400 
     38 CB          0.0632  -15.2411  -40.7368 C.3       7 UNK        -0.1800 
     39 N           1.3267  -16.0733  -42.6864 N.am      7 UNK        -0.5000 
     40 C           1.4812  -17.4068  -42.6155 C.2       6 UNK         0.5000 
     41 O           0.6161  -18.1908  -42.2194 O.2       6 UNK        -0.5000 
     42 CA          2.8370  -17.9613  -43.0793 C.3       6 UNK         0.1400 
     43 CB          2.8479  -18.1196  -44.6059 C.3       6 UNK        -0.1800 
     44 N           3.9389  -17.0926  -42.6685 N.am      6 UNK        -0.5000 
     45 C           4.6664  -17.2714  -41.5558 C.2       5 UNK         0.5000 
     46 O           4.5271  -18.2271  -40.7914 O.2       5 UNK        -0.5000 
     47 CA          5.7269  -16.2003  -41.2302 C.3       5 UNK         0.1400 
     48 CB          7.0740  -16.5633  -41.8736 C.3       5 UNK        -0.1800 
     49 N           5.3338  -14.8628  -41.6704 N.am      5 UNK        -0.5000 
     50 C           4.3201  -14.1544  -41.1542 C.2       4 UNK         0.5000 
     51 O           3.6867  -14.4986  -40.1567 O.2       4 UNK        -0.5000 
     52 CA          3.9288  -12.8548  -41.8870 C.3       4 UNK         0.1400 
     53 CB          4.4185  -11.6263  -41.1054 C.3       4 UNK        -0.1800 
     54 N           4.4201  -12.7658  -43.2677 N.am      4 UNK        -0.5000 
     55 C           4.0663  -13.5782  -44.2721 C.2       3 UNK         0.5000 
     56 O           3.3016  -14.5359  -44.1288 O.2       3 UNK        -0.5000 
     57 CA          4.6960  -13.2550  -45.6399 C.3       3 UNK         0.1400 
     58 CB          6.1837  -13.6590  -45.6879 C.3       3 UNK        -0.1800 
     59 N           3.9305  -13.8138  -46.7584 N.am      3 UNK        -0.5000 
     60 C           3.8434  -15.0830  -47.1886 C.2       2 UNK         0.5000 
     61 O           4.5427  -16.0074  -46.7728 O.2       2 UNK        -0.5000 
     62 CA          2.7718  -15.3506  -48.2675 C.3       2 UNK         0.1400 
     63 CB          2.2144  -16.7812  -48.2012 C.3       2 UNK        -0.1800 
     64 N           1.6605  -14.4191  -48.0980 N.am      2 UNK        -0.5000 
     65 C           1.2899  -13.4385  -48.9210 C.2       1 UNK         0.5000 
     66 O           1.8007  -13.2469  -50.0251 O.2       1 UNK        -0.5000 
     67 C          -1.2317  -21.8931  -47.6095 C.2       11 UNK         0.5000 
     68 O          -1.1460  -22.8306  -48.4025 O.2       11 UNK        -0.5000 
     69 N          -2.3940  -21.4142  -47.1420 N.am      12 UNK        -0.5000 
     70 CA         -3.7104  -21.9552  -47.4734 C.3       12 UNK         0.1400 
     71 CB         -4.8053  -21.0853  -46.8400 C.3       12 UNK        -0.1800 
     72 C          -3.8664  -23.4293  -47.0652 C.2       12 UNK         0.5000 
     73 O          -4.3607  -24.2214  -47.8657 O.2       12 UNK        -0.5000 
     74 N          -3.4009  -23.7799  -45.8581 N.am      13 UNK        -0.5000 
     75 CA         -3.3755  -25.1498  -45.3462 C.3       13 UNK         0.1400 
     76 CB         -2.9547  -25.1445  -43.8689 C.3       13 UNK        -0.1800 
     77 C          -2.4667  -26.0796  -46.1706 C.2       13 UNK         0.5000 
     78 O          -2.8901  -27.1836  -46.5137 O.2       13 UNK        -0.5000 
     79 N          -1.2537  -25.6111  -46.4996 N.am      14 UNK        -0.5000 
     80 CA         -0.2708  -26.3434  -47.3030 C.3       14 UNK         0.1400 
     81 CB          1.0695  -25.5929  -47.2847 C.3       14 UNK        -0.1800 
     82 C          -0.7340  -26.5900  -48.7509 C.2       14 UNK         0.5000 
     83 O          -0.5306  -27.6841  -49.2781 O.2       14 UNK        -0.5000 
     84 N          -1.3657  -25.5772  -49.3568 N.am      15 UNK        -0.5000 
     85 CA         -1.9214  -25.6271  -50.7103 C.3       15 UNK         0.1400 
     86 CB         -2.0148  -24.1915  -51.2425 C.3       15 UNK        -0.1800 
     87 C          -3.2932  -26.3301  -50.7949 C.2       15 UNK         0.5000 
     88 O          -3.7695  -26.5738  -51.9038 O.2       15 UNK        -0.5000 
     89 N          -3.9026  -26.6332  -49.6391 N.am      16 UNK        -0.5000 
     90 CA         -5.2206  -27.2504  -49.4542 C.3       16 UNK         0.1400 
     91 CB         -5.2453  -28.6881  -50.0140 C.3       16 UNK        -0.1800 
     92 C          -6.3790  -26.3716  -49.9754 C.2       16 UNK         0.5000 
     93 O          -7.3446  -26.8886  -50.5405 O.2       16 UNK        -0.5000 
     94 N          -6.2566  -25.0546  -49.7555 N.am      17 UNK        -0.5000 
     95 CA         -7.1957  -23.9546  -50.0152 C.3       17 UNK         0.1400 
     96 CB         -8.4670  -24.1124  -49.1620 C.3       17 UNK        -0.1800 
     97 C          -7.5593  -23.6916  -51.4916 C.2       17 UNK         0.5000 
     98 O          -7.6319  -22.5265  -51.8863 O.2       17 UNK        -0.5000 
     99 N          -7.7946  -24.7532  -52.2707 N.am      18 UNK        -0.5000 
    100 CA        -8.2213  -24.7452  -53.6701 C.3       18 UNK         0.1400 
    101 CB        -8.4381  -26.1974  -54.1274 C.3       18 UNK        -0.1800 
    102 C         -7.2287  -24.0043  -54.5865 C.2       18 UNK         0.5000 
    103 O         -6.1956  -24.5680  -54.9522 O.2       18 UNK        -0.5000 
    104 N         -7.5587  -22.7432  -54.9050 N.am      19 UNK        -0.5000 
    105 CA        -6.7625  -21.7831  -55.6803 C.3       19 UNK         0.1400 
    106 CB        -6.6658  -22.2228  -57.1564 C.3       19 UNK        -0.1800 
    107 C         -5.3850  -21.4863  -55.0452 C.2       19 UNK         0.5000 
    108 O         -4.4040  -21.2875  -55.7640 O.2       19 UNK        -0.5000 
    109 N         -5.3345  -21.4868  -53.7047 N.am      20 UNK        -0.5000 
    110 CA        -4.1116  -21.3243  -52.9196 C.3       20 UNK         0.1400 
    111 CB        -4.4125  -21.6338  -51.4456 C.3       20 UNK        -0.1800 
    112 C         -3.4768  -19.9297  -53.0394 C.2       20 UNK         0.5000 
    113 O         -2.2593  -19.8283  -53.1854 O.2       20 UNK        -0.5000 
    114 N         -4.3112  -18.8885  -52.9338 N.am      21 UNK        -0.5000 
    115 CA        -3.8772  -17.4957  -52.8794 C.3       21 UNK         0.1400 
    116 CB        -5.0254  -16.6327  -52.3345 C.3       21 UNK        -0.1800 
    117 C         -3.3910  -16.9637  -54.2374 C.2       21 UNK         0.5000 
    118 O         -3.9431  -17.3276  -55.2784 O.2       21 UNK        -0.5000 
    119 N         -2.3999  -16.0670  -54.1842 N.am      22 UNK        -0.5000 
    120 CA        -1.8460  -15.3468  -55.3429 C.3       22 UNK         0.1400 
    121 C         -2.7851  -14.2568  -55.9433 C.2       22 UNK         0.5000 
    122 N         -3.8680  -13.8638  -55.2829 N.am      22 UNK        -0.7600 
    123 O         -2.5269  -13.7600  -57.0362 O.2       22 UNK        -0.5000 
    124 C124       -0.4540  -14.7420  -55.0247 C.3       23 UNK        -0.0398 
    125 S125        0.8128  -16.0083  -54.6717 S.3       23 UNK        -0.2404 
    126 C126        1.2798  -15.6321  -52.9517 C.3       23 UNK        -0.0205 
    127 H127        0.4976  -10.8676  -44.7405 H         1 UNK         0.0600 
    128 H128        1.2878  -12.2503  -43.9790 H         1 UNK         0.0600 
    129 H129       -0.4730  -12.1157  -43.9533 H         1 UNK         0.0600 
    130 H130        0.3973  -11.0273  -46.8979 H         1 UNK         0.3000 
    131 H131        0.4242  -11.5339  -48.9430 H         1 UNK         0.0600 
    132 H132       -1.9149  -12.0453  -48.5390 H         1 UNK         0.0800 
    133 H133       -1.2863  -12.8632  -49.9259 H         1 UNK         0.0800 
    134 H134       -3.3696  -15.8802  -49.3421 H         1 UNK         0.0800 
    135 H135       -2.9681  -14.5090  -50.3349 H         1 UNK         0.0800 
    136 H136       -0.7120  -14.4379  -51.5134 H         1 UNK         0.1150 
    137 H137        1.1541  -18.2326  -52.1858 H         1 UNK         0.1150 
    138 H138       -2.0135  -17.8897  -49.3197 H         1 UNK         0.1150 
    139 H139       -1.2509  -20.1021  -50.0411 H         1 UNK         0.0800 
    140 H140       -0.1968  -20.2357  -51.4192 H         1 UNK         0.0800 
    141 H141       -0.4933  -19.2412  -47.7745 H         1 UNK         0.0800 
    142 H142        1.1266  -19.3681  -47.1542 H         1 UNK         0.0800 
    143 H143        0.8745  -21.9371  -47.2575 H         1 UNK         0.0600 
    144 H144       -0.2035  -20.2001  -45.2252 H         1 UNK         0.3000 
    145 H145       -0.6070  -22.7086  -42.7583 H         1 UNK         0.0600 
    146 H146        1.0264  -21.1915  -41.5639 H         1 UNK         0.0600 
    147 H147        1.8085  -22.3550  -42.6265 H         1 UNK         0.0600 
    148 H148        1.6459  -20.6835  -43.1363 H         1 UNK         0.0600 
    149 H149       -0.7714  -19.8415  -42.7038 H         1 UNK         0.3000 
    150 H150       -4.2872  -19.7629  -43.5463 H         1 UNK         0.0600 
    151 H151       -4.0458  -20.3464  -41.1163 H         1 UNK         0.0600 
    152 H152       -4.3388  -18.6310  -41.3575 H         1 UNK         0.0600 
    153 H153       -2.7150  -19.2015  -40.9778 H         1 UNK         0.0600 
    154 H154       -2.7342  -17.5679  -42.9052 H         1 UNK         0.3000 
    155 H155       -1.6104  -16.6249  -46.1360 H         1 UNK         0.0600 
    156 H156       -3.0909  -14.7127  -45.4329 H         1 UNK         0.0600 
    157 H157       -3.9086  -15.7729  -44.2909 H         1 UNK         0.0600 
    158 H158       -3.9997  -16.0996  -46.0154 H         1 UNK         0.0600 
    159 H159       -0.2034  -15.7795  -44.7081 H         1 UNK         0.3000 
    160 H160        0.3259  -14.2710  -42.6298 H         1 UNK         0.0600 
    161 H161       -0.1267  -16.2283  -40.3141 H         1 UNK         0.0600 
    162 H162       -0.7439  -14.5834  -40.4123 H         1 UNK         0.0600 
    163 H163        0.9850  -14.8613  -40.2977 H         1 UNK         0.0600 
    164 H164        2.0767  -15.5352  -43.1134 H         1 UNK         0.3000 
    165 H165        2.9695  -18.9489  -42.6362 H         1 UNK         0.0600 
    166 H166        2.7015  -17.1616  -45.1042 H         1 UNK         0.0600 
    167 H167        3.7927  -18.5363  -44.9550 H         1 UNK         0.0600 
    168 H168        2.0529  -18.7888  -44.9354 H         1 UNK         0.0600 
    169 H169        4.0840  -16.2587  -43.2251 H         1 UNK         0.3000 
    170 H170        5.8583  -16.1786  -40.1462 H         1 UNK         0.0600 
    171 H171        7.4083  -17.5494  -41.5485 H         1 UNK         0.0600 
    172 H172        7.0088  -16.5811  -42.9624 H         1 UNK         0.0600 
    173 H173        7.8498  -15.8500  -41.5945 H         1 UNK         0.0600 
    174 H174        5.8110  -14.4913  -42.4778 H         1 UNK         0.3000 
    175 H175        2.8377  -12.8250  -41.9208 H         1 UNK         0.0600 
    176 H176        5.5075  -11.5883  -41.0578 H         1 UNK         0.0600 
    177 H177        4.0685  -10.7012  -41.5637 H         1 UNK         0.0600 
    178 H178        4.0454  -11.6396  -40.0804 H         1 UNK         0.0600 
    179 H179        5.0605  -12.0082  -43.4584 H         1 UNK         0.3000 
    180 H180        4.6420  -12.1729  -45.7683 H         1 UNK         0.0600 
    181 H181        6.3332  -14.7080  -45.4309 H         1 UNK         0.0600 
    182 H182        6.7710  -13.0702  -44.9826 H         1 UNK         0.0600 
    183 H183        6.6072  -13.4915  -46.6782 H         1 UNK         0.0600 
    184 H184        3.2815  -13.1679  -47.1832 H         1 UNK         0.3000 
    185 H185        3.2480  -15.2090  -49.2393 H         1 UNK         0.0600 
    186 H186        1.4862  -16.9479  -48.9934 H         1 UNK         0.0600 
    187 H187        3.0017  -17.5257  -48.3236 H         1 UNK         0.0600 
    188 H188        1.7157  -16.9715  -47.2513 H         1 UNK         0.0600 
    189 H189        1.1774  -14.4604  -47.1995 H         1 UNK         0.3000 
    190 H190       -2.3783  -20.6189  -46.5074 H         1 UNK         0.3000 
    191 H191       -3.8235  -21.9033  -48.5564 H         1 UNK         0.0600 
    192 H192       -4.7402  -20.0548  -47.1900 H         1 UNK         0.0600 
    193 H193       -5.7976  -21.4562  -47.0995 H         1 UNK         0.0600 
    194 H194       -4.7317  -21.0730  -45.7524 H         1 UNK         0.0600 
    195 H195       -3.0588  -23.0552  -45.2332 H         1 UNK         0.3000 
    196 H196       -4.3922  -25.5437  -45.4057 H         1 UNK         0.0600 
    197 H197       -2.9363  -26.1568  -43.4634 H         1 UNK         0.0600 
    198 H198       -3.6517  -24.5647  -43.2637 H         1 UNK         0.0600 
    199 H199       -1.9605  -24.7175  -43.7342 H         1 UNK         0.0600 
    200 H200       -0.9656  -24.7014  -46.1532 H         1 UNK         0.3000 
    201 H201       -0.1186  -27.3181  -46.8350 H         1 UNK         0.0600 
    202 H202        1.4562  -25.5030  -46.2695 H         1 UNK         0.0600 
    203 H203        0.9733  -24.5873  -47.6958 H         1 UNK         0.0600 
    204 H204        1.8218  -26.1192  -47.8735 H         1 UNK         0.0600 
    205 H205       -1.4397  -24.6864  -48.8713 H         1 UNK         0.3000 
    206 H206       -1.2355  -26.1817  -51.3540 H         1 UNK         0.0600 
    207 H207       -1.0301  -23.7282  -51.3062 H         1 UNK         0.0600 
    208 H208       -2.4569  -24.1613  -52.2390 H         1 UNK         0.0600 
    209 H209       -2.6267  -23.5792  -50.5828 H         1 UNK         0.0600 
    210 H210       -3.4340  -26.3589  -48.7855 H         1 UNK         0.3000 
    211 H211       -5.3642  -27.3206  -48.3750 H         1 UNK         0.0600 
    212 H212       -5.1762  -28.7032  -51.1019 H         1 UNK         0.0600 
    213 H213       -6.1699  -29.1972  -49.7398 H         1 UNK         0.0600 
    214 H214       -4.4204  -29.2793  -49.6163 H         1 UNK         0.0600 
    215 H215       -5.4251  -24.7703  -49.2400 H         1 UNK         0.3000 
    216 H216       -6.6839  -23.0571  -49.6640 H         1 UNK         0.0600 
    217 H217       -8.2223  -24.1868  -48.1023 H         1 UNK         0.0600 
    218 H218       -9.0346  -25.0013  -49.4388 H         1 UNK         0.0600 
    219 H219       -9.1274  -23.2528  -49.2832 H         1 UNK         0.0600 
    220 H220       -7.6904  -25.6663  -51.8337 H         1 UNK         0.3000 
    221 H221       -9.1852  -24.2348  -53.7192 H         1 UNK         0.0600 
    222 H222       -7.5271  -26.7899  -54.0319 H         1 UNK         0.0600 
    223 H223       -9.2151  -26.6841  -53.5376 H         1 UNK         0.0600 
    224 H224       -8.7494  -26.2365  -55.1720 H         1 UNK         0.0600 
    225 H225       -8.4074  -22.3683  -54.5036 H         1 UNK         0.3000 
    226 H226       -7.3118  -20.8410  -55.6551 H         1 UNK         0.0600 
    227 H227       -7.6535  -22.4103  -57.5775 H         1 UNK         0.0600 
    228 H228       -6.1970  -21.4491  -57.7656 H         1 UNK         0.0600 
    229 H229       -6.0742  -23.1316  -57.2708 H         1 UNK         0.0600 
    230 H230       -6.1832  -21.6918  -53.1886 H         1 UNK         0.3000 
    231 H231       -3.3807  -22.0515  -53.2791 H         1 UNK         0.0600 
    232 H232       -3.5347  -21.4473  -50.8263 H         1 UNK         0.0600 
    233 H233       -4.6946  -22.6778  -51.3139 H         1 UNK         0.0600 
    234 H234       -5.2224  -21.0153  -51.0570 H         1 UNK         0.0600 
    235 H235       -5.3023  -19.0634  -52.8647 H         1 UNK         0.3000 
    236 H236       -3.0473  -17.4393  -52.1769 H         1 UNK         0.0600 
    237 H237       -5.3362  -16.9695  -51.3453 H         1 UNK         0.0600 
    238 H238       -4.7205  -15.5900  -52.2380 H         1 UNK         0.0600 
    239 H239       -5.8967  -16.6621  -52.9901 H         1 UNK         0.0600 
    240 H240       -1.9794  -15.8519  -53.2919 H         1 UNK         0.3000 
    241 H241       -1.7081  -16.0803  -56.1398 H         1 UNK         0.0600 
    242 H242       -4.4663  -13.1610  -55.6884 H         1 UNK         0.3800 
    243 H243       -4.0990  -14.2619  -54.3881 H         1 UNK         0.3800 
    244 H244       -0.5267  -14.0385  -54.1941 H         1 UNK         0.0800 
    245 H245       -0.0850  -14.1637  -55.8738 H         1 UNK         0.0800 
    246 H246        2.2845  -16.0178  -52.7731 H         1 UNK         0.0800 
    247 H247        1.3457  -14.5530  -52.8032 H         1 UNK         0.0800 
@<TRIPOS>BOND
     1    1    2 1    
     2    1  127 1    
     3    1  128 1    
     4    1  129 1    
     5    2    3 2    
     6    2    4 am   BACKBONE|DICT|INTERRES
     7    4    5 1    
     8    4  130 1    
     9    5    6 1    
    10    5   65 1    
    11    5  131 1    
    12    6    7 1    
    13    6  132 1    
    14    6  133 1    
    15    7    8 1    
    16    8    9 1    
    17    8  134 1    
    18    8  135 1    
    19    9   10 ar   
    20    9   14 ar   
    21   10   11 ar   
    22   10  136 1    
    23   11   12 ar   
    24   11  126 1    
    25   12   13 ar   
    26   12  137 1    
    27   13   14 ar   
    28   13   15 1    
    29   14  138 1    
    30   15   16 1    
    31   15  139 1    
    32   15  140 1    
    33   16   17 1    
    34   17   18 1    
    35   17  141 1    
    36   17  142 1    
    37   18   19 1    
    38   18   67 1    
    39   18  143 1    
    40   19   20 am   BACKBONE|DICT|INTERRES
    41   19  144 1    
    42   20   21 2    
    43   20   22 1    
    44   22   23 1    
    45   22   24 1    
    46   22  145 1    
    47   23  146 1    
    48   23  147 1    
    49   23  148 1    
    50   24   25 am   BACKBONE|DICT|INTERRES
    51   24  149 1    
    52   25   26 2    
    53   25   27 1    
    54   27   28 1    
    55   27   29 1    
    56   27  150 1    
    57   28  151 1    
    58   28  152 1    
    59   28  153 1    
    60   29   30 am   BACKBONE|DICT|INTERRES
    61   29  154 1    
    62   30   31 2    
    63   30   32 1    
    64   32   33 1    
    65   32   34 1    
    66   32  155 1    
    67   33  156 1    
    68   33  157 1    
    69   33  158 1    
    70   34   35 am   BACKBONE|DICT|INTERRES
    71   34  159 1    
    72   35   36 2    
    73   35   37 1    
    74   37   38 1    
    75   37   39 1    
    76   37  160 1    
    77   38  161 1    
    78   38  162 1    
    79   38  163 1    
    80   39   40 am   BACKBONE|DICT|INTERRES
    81   39  164 1    
    82   40   41 2    
    83   40   42 1    
    84   42   43 1    
    85   42   44 1    
    86   42  165 1    
    87   43  166 1    
    88   43  167 1    
    89   43  168 1    
    90   44   45 am   BACKBONE|DICT|INTERRES
    91   44  169 1    
    92   45   46 2    
    93   45   47 1    
    94   47   48 1    
    95   47   49 1    
    96   47  170 1    
    97   48  171 1    
    98   48  172 1    
    99   48  173 1    
   100   49   50 am   BACKBONE|DICT|INTERRES
   101   49  174 1    
   102   50   51 2    
   103   50   52 1    
   104   52   53 1    
   105   52   54 1    
   106   52  175 1    
   107   53  176 1    
   108   53  177 1    
   109   53  178 1    
   110   54   55 am   BACKBONE|DICT|INTERRES
   111   54  179 1    
   112   55   56 2    
   113   55   57 1    
   114   57   58 1    
   115   57   59 1    
   116   57  180 1    
   117   58  181 1    
   118   58  182 1    
   119   58  183 1    
   120   59   60 am   BACKBONE|DICT|INTERRES
   121   59  184 1    
   122   60   61 2    
   123   60   62 1    
   124   62   63 1    
   125   62   64 1    
   126   62  185 1    
   127   63  186 1    
   128   63  187 1    
   129   63  188 1    
   130   64   65 am   BACKBONE|DICT|INTERRES
   131   64  189 1    
   132   65   66 2    
   133   67   68 2    
   134   67   69 am   BACKBONE|DICT|INTERRES
   135   69   70 1    
   136   69  190 1    
   137   70   71 1    
   138   70   72 1    
   139   70  191 1    
   140   71  192 1    
   141   71  193 1    
   142   71  194 1    
   143   72   73 2    
   144   72   74 am   BACKBONE|DICT|INTERRES
   145   74   75 1    
   146   74  195 1    
   147   75   76 1    
   148   75   77 1    
   149   75  196 1    
   150   76  197 1    
   151   76  198 1    
   152   76  199 1    
   153   77   78 2    
   154   77   79 am   BACKBONE|DICT|INTERRES
   155   79   80 1    
   156   79  200 1    
   157   80   81 1    
   158   80   82 1    
   159   80  201 1    
   160   81  202 1    
   161   81  203 1    
   162   81  204 1    
   163   82   83 2    
   164   82   84 am   BACKBONE|DICT|INTERRES
   165   84   85 1    
   166   84  205 1    
   167   85   86 1    
   168   85   87 1    
   169   85  206 1    
   170   86  207 1    
   171   86  208 1    
   172   86  209 1    
   173   87   88 2    
   174   87   89 am   BACKBONE|DICT|INTERRES
   175   89   90 1    
   176   89  210 1    
   177   90   91 1    
   178   90   92 1    
   179   90  211 1    
   180   91  212 1    
   181   91  213 1    
   182   91  214 1    
   183   92   93 2    
   184   92   94 am   BACKBONE|DICT|INTERRES
   185   94   95 1    
   186   94  215 1    
   187   95   96 1    
   188   95   97 1    
   189   95  216 1    
   190   96  217 1    
   191   96  218 1    
   192   96  219 1    
   193   97   98 2    
   194   97   99 am   BACKBONE|DICT|INTERRES
   195   99  100 1    
   196   99  220 1    
   197  100  101 1    
   198  100  102 1    
   199  100  221 1    
   200  101  222 1    
   201  101  223 1    
   202  101  224 1    
   203  102  103 2    
   204  102  104 am   BACKBONE|DICT|INTERRES
   205  104  105 1    
   206  104  225 1    
   207  105  106 1    
   208  105  107 1    
   209  105  226 1    
   210  106  227 1    
   211  106  228 1    
   212  106  229 1    
   213  107  108 2    
   214  107  109 am   BACKBONE|DICT|INTERRES
   215  109  110 1    
   216  109  230 1    
   217  110  111 1    
   218  110  112 1    
   219  110  231 1    
   220  111  232 1    
   221  111  233 1    
   222  111  234 1    
   223  112  113 2    
   224  112  114 am   BACKBONE|DICT|INTERRES
   225  114  115 1    
   226  114  235 1    
   227  115  116 1    
   228  115  117 1    
   229  115  236 1    
   230  116  237 1    
   231  116  238 1    
   232  116  239 1    
   233  117  118 2    
   234  117  119 am   BACKBONE|DICT|INTERRES
   235  119  120 1    
   236  119  240 1    
   237  120  121 1    
   238  120  124 1    
   239  120  241 1    
   240  121  122 am   BACKBONE|DICT|INTERRES
   241  121  123 2    
   242  122  242 1    
   243  122  243 1    
   244  124  125 1    
   245  124  244 1    
   246  124  245 1    
   247  125  126 1    
   248  126  246 1    
   249  126  247 1    
@<TRIPOS>SUBSTRUCTURE
     1 UNK         1 GROUP             0       ****    0 ROOT    
