@<TRIPOS>MOLECULE
3R540
247   249    1
SMALL
USER_CHARGES


@<TRIPOS>ATOM
      1 CA          7.1226  -15.0695  -46.7215 C.3       0 UNK        -0.1800 
      2 C           5.8536  -14.3838  -47.2067 C.2       0 UNK         0.5000 
      3 O           5.9199  -13.5805  -48.1353 O.2       0 UNK        -0.5000 
      4 N           4.7193  -14.6961  -46.5647 N.am      1 UNK        -0.5000 
      5 CA          3.3292  -14.2628  -46.7954 C.3       1 UNK         0.1400 
      6 C6          2.6429  -14.9124  -48.0284 C.3       23 UNK        -0.0398 
      7 S7          3.1532  -14.3343  -49.6859 S.3       23 UNK        -0.2404 
      8 C8          4.0633  -15.7708  -50.3449 C.3       23 UNK        -0.0205 
      9 C9          3.2146  -17.0350  -50.4111 C.ar      23 UNK        -0.0193 
     10 C10         2.0981  -17.1019  -51.2523 C.ar      23 UNK        -0.1150 
     11 C11         1.3167  -18.2610  -51.3014 C.ar      23 UNK        -0.0193 
     12 C12         1.6606  -19.3578  -50.5077 C.ar      23 UNK        -0.1150 
     13 C13         2.7778  -19.3063  -49.6724 C.ar      23 UNK        -0.0193 
     14 C14         3.5528  -18.1444  -49.6293 C.ar      23 UNK        -0.1150 
     15 C15         3.1410  -20.5058  -48.8159 C.3       23 UNK        -0.0205 
     16 S16         2.5542  -20.2803  -47.1132 S.3       23 UNK        -0.2404 
     17 C17         2.7777  -21.9592  -46.4421 C.3       23 UNK        -0.0398 
     18 CA          1.4705  -22.7450  -46.1756 C.3       11 UNK         0.1400 
     19 N           0.6692  -22.2046  -45.0735 N.am      11 UNK        -0.5000 
     20 C          -0.2323  -22.9369  -44.4023 C.2       10 UNK         0.5000 
     21 O          -0.4750  -24.1166  -44.6620 O.2       10 UNK        -0.5000 
     22 CA         -1.0159  -22.2418  -43.2751 C.3       10 UNK         0.1400 
     23 CB         -0.1415  -22.0487  -42.0270 C.3       10 UNK        -0.1800 
     24 N          -1.5875  -20.9615  -43.6866 N.am      10 UNK        -0.5000 
     25 C          -2.5268  -20.8239  -44.6333 C.2       9 UNK         0.5000 
     26 O          -3.0173  -21.7659  -45.2552 O.2       9 UNK        -0.5000 
     27 CA         -2.9686  -19.3885  -44.9675 C.3       9 UNK         0.1400 
     28 CB         -3.9839  -18.8758  -43.9353 C.3       9 UNK        -0.1800 
     29 N          -1.8455  -18.4571  -45.0506 N.am      9 UNK        -0.5000 
     30 C          -0.8367  -18.5610  -45.9277 C.2       8 UNK         0.5000 
     31 O          -0.7545  -19.4443  -46.7773 O.2       8 UNK        -0.5000 
     32 CA          0.2946  -17.5302  -45.7938 C.3       8 UNK         0.1400 
     33 CB         -0.1763  -16.1576  -46.2992 C.3       8 UNK        -0.1800 
     34 N           0.7798  -17.4167  -44.4175 N.am      8 UNK        -0.5000 
     35 C           1.2648  -18.4250  -43.6749 C.2       7 UNK         0.5000 
     36 O           1.3998  -19.5810  -44.0730 O.2       7 UNK        -0.5000 
     37 CA          1.6043  -18.0954  -42.2132 C.3       7 UNK         0.1400 
     38 CB          2.9927  -17.4475  -42.1041 C.3       7 UNK        -0.1800 
     39 N           0.5960  -17.2227  -41.6136 N.am      7 UNK        -0.5000 
     40 C          -0.6546  -17.6080  -41.3208 C.2       6 UNK         0.5000 
     41 O          -1.0729  -18.7562  -41.4753 O.2       6 UNK        -0.5000 
     42 CA         -1.6067  -16.5102  -40.8118 C.3       6 UNK         0.1400 
     43 CB         -1.3918  -16.2538  -39.3126 C.3       6 UNK        -0.1800 
     44 N          -1.4528  -15.2540  -41.5490 N.am      6 UNK        -0.5000 
     45 C          -1.7774  -15.0977  -42.8400 C.2       5 UNK         0.5000 
     46 O          -2.2811  -15.9867  -43.5261 O.2       5 UNK        -0.5000 
     47 CA         -1.4563  -13.7348  -43.4846 C.3       5 UNK         0.1400 
     48 CB         -2.6413  -12.7718  -43.3213 C.3       5 UNK        -0.1800 
     49 N          -0.2399  -13.0925  -42.9761 N.am      5 UNK        -0.5000 
     50 C           0.9931  -13.6155  -43.0243 C.2       4 UNK         0.5000 
     51 O           1.2389  -14.7441  -43.4516 O.2       4 UNK        -0.5000 
     52 CA          2.1280  -12.7041  -42.5350 C.3       4 UNK         0.1400 
     53 CB          3.5225  -13.3469  -42.6580 C.3       4 UNK        -0.1800 
     54 N           2.0975  -11.4629  -43.3019 N.am      4 UNK        -0.5000 
     55 C           2.3216  -10.2379  -42.8096 C.2       3 UNK         0.5000 
     56 O           2.5389  -10.0165  -41.6169 O.2       3 UNK        -0.5000 
     57 CA          2.2872   -9.0659  -43.8185 C.3       3 UNK         0.1400 
     58 CB          3.1045   -7.8435  -43.3494 C.3       3 UNK        -0.1800 
     59 N           2.6662   -9.4594  -45.1820 N.am      3 UNK        -0.5000 
     60 C           3.8453   -9.9570  -45.5830 C.2       2 UNK         0.5000 
     61 O           4.8297  -10.0956  -44.8541 O.2       2 UNK        -0.5000 
     62 CA          3.9096  -10.4339  -47.0455 C.3       2 UNK         0.1400 
     63 CB          5.1263   -9.8453  -47.7772 C.3       2 UNK        -0.1800 
     64 N           3.9663  -11.8923  -47.1237 N.am      2 UNK        -0.5000 
     65 C           3.0409  -12.7478  -46.6751 C.2       1 UNK         0.5000 
     66 O           1.9843  -12.3841  -46.1538 O.2       1 UNK        -0.5000 
     67 C           0.6285  -23.0065  -47.4436 C.2       11 UNK         0.5000 
     68 O           0.8801  -23.9984  -48.1262 O.2       11 UNK        -0.5000 
     69 N          -0.3873  -22.1704  -47.7106 N.am      12 UNK        -0.5000 
     70 CA         -1.3636  -22.3766  -48.7833 C.3       12 UNK         0.1400 
     71 CB         -2.2558  -21.1367  -48.9301 C.3       12 UNK        -0.1800 
     72 C          -2.2215  -23.6349  -48.5652 C.2       12 UNK         0.5000 
     73 O          -2.4559  -24.3771  -49.5193 O.2       12 UNK        -0.5000 
     74 N          -2.6404  -23.8773  -47.3143 N.am      13 UNK        -0.5000 
     75 CA         -3.3554  -25.0866  -46.9066 C.3       13 UNK         0.1400 
     76 CB         -3.9002  -24.9207  -45.4804 C.3       13 UNK        -0.1800 
     77 C          -2.4821  -26.3485  -47.0199 C.2       13 UNK         0.5000 
     78 O          -2.9621  -27.3677  -47.5154 O.2       13 UNK        -0.5000 
     79 N          -1.2093  -26.2493  -46.6076 N.am      14 UNK        -0.5000 
     80 CA         -0.2113  -27.3167  -46.7282 C.3       14 UNK         0.1400 
     81 CB          1.0592  -26.9248  -45.9597 C.3       14 UNK        -0.1800 
     82 C           0.1213  -27.6657  -48.1927 C.2       14 UNK         0.5000 
     83 O           0.2735  -28.8435  -48.5182 O.2       14 UNK        -0.5000 
     84 N           0.1897  -26.6411  -49.0537 N.am      15 UNK        -0.5000 
     85 CA          0.3643  -26.7653  -50.5031 C.3       15 UNK         0.1400 
     86 CB          0.8102  -25.4058  -51.0653 C.3       15 UNK        -0.1800 
     87 C          -0.9011  -27.2556  -51.2383 C.2       15 UNK         0.5000 
     88 O          -0.8040  -27.6314  -52.4072 O.2       15 UNK        -0.5000 
     89 N          -2.0532  -27.2307  -50.5520 N.am      16 UNK        -0.5000 
     90 CA         -3.3965  -27.5599  -51.0338 C.3       16 UNK         0.1400 
     91 CB         -3.5039  -29.0567  -51.3933 C.3       16 UNK        -0.1800 
     92 C          -3.8640  -26.6197  -52.1642 C.2       16 UNK         0.5000 
     93 O          -4.4275  -27.0763  -53.1617 O.2       16 UNK        -0.5000 
     94 N          -3.6132  -25.3151  -51.9879 N.am      17 UNK        -0.5000 
     95 CA         -4.0550  -24.2524  -52.8901 C.3       17 UNK         0.1400 
     96 CB         -3.3532  -22.9421  -52.5011 C.3       17 UNK        -0.1800 
     97 C          -5.5842  -24.0682  -52.8532 C.2       17 UNK         0.5000 
     98 O          -6.2119  -24.3057  -51.8173 O.2       17 UNK        -0.5000 
     99 N          -6.1515  -23.6240  -53.9809 N.am      18 UNK        -0.5000 
    100 CA        -7.5705  -23.2981  -54.1156 C.3       18 UNK         0.1400 
    101 CB        -7.9052  -23.1297  -55.6059 C.3       18 UNK        -0.1800 
    102 C         -7.9248  -22.0135  -53.3485 C.2       18 UNK         0.5000 
    103 O         -7.1241  -21.0748  -53.3288 O.2       18 UNK        -0.5000 
    104 N         -9.1385  -21.9658  -52.7849 N.am      19 UNK        -0.5000 
    105 CA        -9.6735  -20.8158  -52.0453 C.3       19 UNK         0.1400 
    106 CB       -10.9857  -21.2268  -51.3603 C.3       19 UNK        -0.1800 
    107 C         -9.8896  -19.5637  -52.9197 C.2       19 UNK         0.5000 
    108 O         -9.8525  -18.4467  -52.4039 O.2       19 UNK        -0.5000 
    109 N        -10.0855  -19.7734  -54.2287 N.am      20 UNK        -0.5000 
    110 CA       -10.1574  -18.7242  -55.2471 C.3       20 UNK         0.1400 
    111 CB       -10.8410  -19.3021  -56.4966 C.3       20 UNK        -0.1800 
    112 C         -8.7767  -18.1377  -55.6117 C.2       20 UNK         0.5000 
    113 O         -8.7228  -17.0729  -56.2290 O.2       20 UNK        -0.5000 
    114 N         -7.6975  -18.8402  -55.2430 N.am      21 UNK        -0.5000 
    115 CA        -6.3102  -18.4395  -55.4373 C.3       21 UNK         0.1400 
    116 CB        -5.5477  -19.6041  -56.1043 C.3       21 UNK        -0.1800 
    117 C         -5.7372  -18.0025  -54.0756 C.2       21 UNK         0.5000 
    118 O         -6.2147  -17.0164  -53.5115 O.2       21 UNK        -0.5000 
    119 N         -4.7253  -18.7217  -53.5762 N.am      22 UNK        -0.5000 
    120 CA        -4.0520  -18.4537  -52.2954 C.3       22 UNK         0.1400 
    121 C         -4.8545  -18.8997  -51.0351 C.2       22 UNK         0.5000 
    122 N         -5.8687  -19.7482  -51.1502 N.am      22 UNK        -0.7600 
    123 O         -4.5659  -18.4538  -49.9290 O.2       22 UNK        -0.5000 
    124 C124       -2.6148  -19.0387  -52.3036 C.3       23 UNK        -0.0398 
    125 S125       -1.4369  -18.0904  -51.2824 S.3       23 UNK        -0.2404 
    126 C126        0.1046  -18.3490  -52.2130 C.3       23 UNK        -0.0205 
    127 H127        7.5705  -15.6440  -47.5323 H         1 UNK         0.0600 
    128 H128        6.9273  -15.7490  -45.8914 H         1 UNK         0.0600 
    129 H129        7.8468  -14.3258  -46.3889 H         1 UNK         0.0600 
    130 H130        4.8057  -15.3440  -45.7945 H         1 UNK         0.3000 
    131 H131        2.8153  -14.6868  -45.9309 H         1 UNK         0.0600 
    132 H132        2.7459  -15.9947  -47.9612 H         1 UNK         0.0800 
    133 H133        1.5706  -14.7269  -47.9786 H         1 UNK         0.0800 
    134 H134        4.9540  -15.9321  -49.7360 H         1 UNK         0.0800 
    135 H135        4.4196  -15.5306  -51.3473 H         1 UNK         0.0800 
    136 H136        1.8344  -16.2476  -51.8600 H         1 UNK         0.1150 
    137 H137        1.0518  -20.2509  -50.5367 H         1 UNK         0.1150 
    138 H138        4.4131  -18.1033  -48.9759 H         1 UNK         0.1150 
    139 H139        2.7049  -21.4132  -49.2371 H         1 UNK         0.0800 
    140 H140        4.2223  -20.6504  -48.8137 H         1 UNK         0.0800 
    141 H141        3.3365  -21.8667  -45.5099 H         1 UNK         0.0800 
    142 H142        3.4239  -22.5332  -47.1083 H         1 UNK         0.0800 
    143 H143        1.8040  -23.7305  -45.8440 H         1 UNK         0.0600 
    144 H144        0.8313  -21.2329  -44.8158 H         1 UNK         0.3000 
    145 H145       -1.8452  -22.8974  -43.0013 H         1 UNK         0.0600 
    146 H146       -0.7186  -21.6277  -41.2036 H         1 UNK         0.0600 
    147 H147        0.2657  -23.0012  -41.6857 H         1 UNK         0.0600 
    148 H148        0.6996  -21.3830  -42.2188 H         1 UNK         0.0600 
    149 H149       -1.2416  -20.1341  -43.2156 H         1 UNK         0.3000 
    150 H150       -3.4551  -19.4095  -45.9448 H         1 UNK         0.0600 
    151 H151       -4.8373  -19.5505  -43.8572 H         1 UNK         0.0600 
    152 H152       -4.3684  -17.8951  -44.2158 H         1 UNK         0.0600 
    153 H153       -3.5398  -18.7882  -42.9430 H         1 UNK         0.0600 
    154 H154       -1.8543  -17.6738  -44.4035 H         1 UNK         0.3000 
    155 H155        1.1355  -17.8492  -46.4106 H         1 UNK         0.0600 
    156 H156       -1.1461  -15.8798  -45.8893 H         1 UNK         0.0600 
    157 H157        0.5248  -15.3683  -46.0351 H         1 UNK         0.0600 
    158 H158       -0.2819  -16.1670  -47.3845 H         1 UNK         0.0600 
    159 H159        0.7580  -16.4885  -44.0042 H         1 UNK         0.3000 
    160 H160        1.6227  -19.0314  -41.6508 H         1 UNK         0.0600 
    161 H161        3.0597  -16.5302  -42.6884 H         1 UNK         0.0600 
    162 H162        3.7641  -18.1242  -42.4738 H         1 UNK         0.0600 
    163 H163        3.2385  -17.2079  -41.0696 H         1 UNK         0.0600 
    164 H164        0.8392  -16.2477  -41.5193 H         1 UNK         0.3000 
    165 H165       -2.6298  -16.8656  -40.9536 H         1 UNK         0.0600 
    166 H166       -2.1143  -15.5333  -38.9288 H         1 UNK         0.0600 
    167 H167       -1.5151  -17.1733  -38.7388 H         1 UNK         0.0600 
    168 H168       -0.3920  -15.8696  -39.1066 H         1 UNK         0.0600 
    169 H169       -1.0480  -14.4734  -41.0536 H         1 UNK         0.3000 
    170 H170       -1.3074  -13.9060  -44.5519 H         1 UNK         0.0600 
    171 H171       -3.5592  -13.2116  -43.7138 H         1 UNK         0.0600 
    172 H172       -2.8175  -12.5240  -42.2738 H         1 UNK         0.0600 
    173 H173       -2.4716  -11.8414  -43.8635 H         1 UNK         0.0600 
    174 H174       -0.3451  -12.1537  -42.6196 H         1 UNK         0.3000 
    175 H175        1.9339  -12.5022  -41.4797 H         1 UNK         0.0600 
    176 H176        3.7561  -13.6095  -43.6900 H         1 UNK         0.0600 
    177 H177        4.2998  -12.6698  -42.3037 H         1 UNK         0.0600 
    178 H178        3.5882  -14.2556  -42.0596 H         1 UNK         0.0600 
    179 H179        1.9194  -11.5715  -44.2966 H         1 UNK         0.3000 
    180 H180        1.2429   -8.7557  -43.8749 H         1 UNK         0.0600 
    181 H181        4.1540   -8.0929  -43.1910 H         1 UNK         0.0600 
    182 H182        2.7175   -7.4517  -42.4081 H         1 UNK         0.0600 
    183 H183        3.0579   -7.0345  -44.0784 H         1 UNK         0.0600 
    184 H184        1.9163   -9.4264  -45.8591 H         1 UNK         0.3000 
    185 H185        3.0095  -10.1048  -47.5687 H         1 UNK         0.0600 
    186 H186        5.1170   -8.7554  -47.7365 H         1 UNK         0.0600 
    187 H187        6.0648  -10.1841  -47.3363 H         1 UNK         0.0600 
    188 H188        5.1296  -10.1324  -48.8290 H         1 UNK         0.0600 
    189 H189        4.7987  -12.2997  -47.5449 H         1 UNK         0.3000 
    190 H190       -0.5029  -21.3304  -47.1489 H         1 UNK         0.3000 
    191 H191       -0.8128  -22.5077  -49.7168 H         1 UNK         0.0600 
    192 H192       -2.7954  -20.9167  -48.0086 H         1 UNK         0.0600 
    193 H193       -2.9976  -21.2700  -49.7167 H         1 UNK         0.0600 
    194 H194       -1.6653  -20.2583  -49.1887 H         1 UNK         0.0600 
    195 H195       -2.4578  -23.1908  -46.5891 H         1 UNK         0.3000 
    196 H196       -4.2070  -25.2127  -47.5786 H         1 UNK         0.0600 
    197 H197       -4.4396  -25.8135  -45.1616 H         1 UNK         0.0600 
    198 H198       -4.5952  -24.0831  -45.4207 H         1 UNK         0.0600 
    199 H199       -3.1020  -24.7437  -44.7594 H         1 UNK         0.0600 
    200 H200       -0.9084  -25.3898  -46.1586 H         1 UNK         0.3000 
    201 H201       -0.6266  -28.2116  -46.2603 H         1 UNK         0.0600 
    202 H202        0.8382  -26.7043  -44.9152 H         1 UNK         0.0600 
    203 H203        1.5378  -26.0478  -46.3944 H         1 UNK         0.0600 
    204 H204        1.7883  -27.7358  -45.9746 H         1 UNK         0.0600 
    205 H205        0.1378  -25.6940  -48.6884 H         1 UNK         0.3000 
    206 H206        1.1569  -27.4915  -50.6943 H         1 UNK         0.0600 
    207 H207        1.7380  -25.0715  -50.6008 H         1 UNK         0.0600 
    208 H208        0.9878  -25.4632  -52.1398 H         1 UNK         0.0600 
    209 H209        0.0554  -24.6366  -50.8979 H         1 UNK         0.0600 
    210 H210       -2.0152  -26.8812  -49.6036 H         1 UNK         0.3000 
    211 H211       -4.0694  -27.3774  -50.1948 H         1 UNK         0.0600 
    212 H212       -2.8987  -29.3118  -52.2635 H         1 UNK         0.0600 
    213 H213       -4.5348  -29.3291  -51.6219 H         1 UNK         0.0600 
    214 H214       -3.1798  -29.6841  -50.5629 H         1 UNK         0.0600 
    215 H215       -3.1711  -25.0178  -51.1207 H         1 UNK         0.3000 
    216 H216       -3.7549  -24.5225  -53.9047 H         1 UNK         0.0600 
    217 H217       -3.6038  -22.1423  -53.1989 H         1 UNK         0.0600 
    218 H218       -2.2688  -23.0540  -52.5052 H         1 UNK         0.0600 
    219 H219       -3.6541  -22.6141  -51.5062 H         1 UNK         0.0600 
    220 H220       -5.5680  -23.4205  -54.7786 H         1 UNK         0.3000 
    221 H221       -8.1572  -24.1276  -53.7150 H         1 UNK         0.0600 
    222 H222       -7.3451  -22.3093  -56.0566 H         1 UNK         0.0600 
    223 H223       -7.6789  -24.0373  -56.1658 H         1 UNK         0.0600 
    224 H224       -8.9659  -22.9189  -55.7485 H         1 UNK         0.0600 
    225 H225       -9.7418  -22.7732  -52.8516 H         1 UNK         0.3000 
    226 H226       -8.9515  -20.5504  -51.2702 H         1 UNK         0.0600 
    227 H227      -10.8291  -22.0596  -50.6745 H         1 UNK         0.0600 
    228 H228      -11.3976  -20.4016  -50.7777 H         1 UNK         0.0600 
    229 H229      -11.7426  -21.5258  -52.0865 H         1 UNK         0.0600 
    230 H230      -10.1223  -20.7264  -54.5583 H         1 UNK         0.3000 
    231 H231      -10.7731  -17.9067  -54.8661 H         1 UNK         0.0600 
    232 H232      -10.9468  -18.5420  -57.2717 H         1 UNK         0.0600 
    233 H233      -11.8412  -19.6690  -56.2654 H         1 UNK         0.0600 
    234 H234      -10.2693  -20.1277  -56.9225 H         1 UNK         0.0600 
    235 H235       -7.8279  -19.6634  -54.6677 H         1 UNK         0.3000 
    236 H236       -6.2469  -17.5754  -56.1014 H         1 UNK         0.0600 
    237 H237       -5.9888  -19.8500  -57.0705 H         1 UNK         0.0600 
    238 H238       -4.5057  -19.3399  -56.2893 H         1 UNK         0.0600 
    239 H239       -5.5647  -20.5108  -55.4989 H         1 UNK         0.0600 
    240 H240       -4.4184  -19.5364  -54.0858 H         1 UNK         0.3000 
    241 H241       -3.9618  -17.3681  -52.2194 H         1 UNK         0.0600 
    242 H242       -6.1570  -20.1245  -52.0495 H         1 UNK         0.3800 
    243 H243       -6.3710  -20.0132  -50.3198 H         1 UNK         0.3800 
    244 H244       -2.2278  -19.0386  -53.3238 H         1 UNK         0.0800 
    245 H245       -2.6059  -20.0819  -51.9845 H         1 UNK         0.0800 
    246 H246        0.0926  -19.3313  -52.6881 H         1 UNK         0.0800 
    247 H247        0.1692  -17.6160  -53.0185 H         1 UNK         0.0800 
@<TRIPOS>BOND
     1    1    2 1    
     2    1  127 1    
     3    1  128 1    
     4    1  129 1    
     5    2    3 2    
     6    2    4 am   BACKBONE|DICT|INTERRES
     7    4    5 1    
     8    4  130 1    
     9    5    6 1    
    10    5   65 1    
    11    5  131 1    
    12    6    7 1    
    13    6  132 1    
    14    6  133 1    
    15    7    8 1    
    16    8    9 1    
    17    8  134 1    
    18    8  135 1    
    19    9   10 ar   
    20    9   14 ar   
    21   10   11 ar   
    22   10  136 1    
    23   11   12 ar   
    24   11  126 1    
    25   12   13 ar   
    26   12  137 1    
    27   13   14 ar   
    28   13   15 1    
    29   14  138 1    
    30   15   16 1    
    31   15  139 1    
    32   15  140 1    
    33   16   17 1    
    34   17   18 1    
    35   17  141 1    
    36   17  142 1    
    37   18   19 1    
    38   18   67 1    
    39   18  143 1    
    40   19   20 am   BACKBONE|DICT|INTERRES
    41   19  144 1    
    42   20   21 2    
    43   20   22 1    
    44   22   23 1    
    45   22   24 1    
    46   22  145 1    
    47   23  146 1    
    48   23  147 1    
    49   23  148 1    
    50   24   25 am   BACKBONE|DICT|INTERRES
    51   24  149 1    
    52   25   26 2    
    53   25   27 1    
    54   27   28 1    
    55   27   29 1    
    56   27  150 1    
    57   28  151 1    
    58   28  152 1    
    59   28  153 1    
    60   29   30 am   BACKBONE|DICT|INTERRES
    61   29  154 1    
    62   30   31 2    
    63   30   32 1    
    64   32   33 1    
    65   32   34 1    
    66   32  155 1    
    67   33  156 1    
    68   33  157 1    
    69   33  158 1    
    70   34   35 am   BACKBONE|DICT|INTERRES
    71   34  159 1    
    72   35   36 2    
    73   35   37 1    
    74   37   38 1    
    75   37   39 1    
    76   37  160 1    
    77   38  161 1    
    78   38  162 1    
    79   38  163 1    
    80   39   40 am   BACKBONE|DICT|INTERRES
    81   39  164 1    
    82   40   41 2    
    83   40   42 1    
    84   42   43 1    
    85   42   44 1    
    86   42  165 1    
    87   43  166 1    
    88   43  167 1    
    89   43  168 1    
    90   44   45 am   BACKBONE|DICT|INTERRES
    91   44  169 1    
    92   45   46 2    
    93   45   47 1    
    94   47   48 1    
    95   47   49 1    
    96   47  170 1    
    97   48  171 1    
    98   48  172 1    
    99   48  173 1    
   100   49   50 am   BACKBONE|DICT|INTERRES
   101   49  174 1    
   102   50   51 2    
   103   50   52 1    
   104   52   53 1    
   105   52   54 1    
   106   52  175 1    
   107   53  176 1    
   108   53  177 1    
   109   53  178 1    
   110   54   55 am   BACKBONE|DICT|INTERRES
   111   54  179 1    
   112   55   56 2    
   113   55   57 1    
   114   57   58 1    
   115   57   59 1    
   116   57  180 1    
   117   58  181 1    
   118   58  182 1    
   119   58  183 1    
   120   59   60 am   BACKBONE|DICT|INTERRES
   121   59  184 1    
   122   60   61 2    
   123   60   62 1    
   124   62   63 1    
   125   62   64 1    
   126   62  185 1    
   127   63  186 1    
   128   63  187 1    
   129   63  188 1    
   130   64   65 am   BACKBONE|DICT|INTERRES
   131   64  189 1    
   132   65   66 2    
   133   67   68 2    
   134   67   69 am   BACKBONE|DICT|INTERRES
   135   69   70 1    
   136   69  190 1    
   137   70   71 1    
   138   70   72 1    
   139   70  191 1    
   140   71  192 1    
   141   71  193 1    
   142   71  194 1    
   143   72   73 2    
   144   72   74 am   BACKBONE|DICT|INTERRES
   145   74   75 1    
   146   74  195 1    
   147   75   76 1    
   148   75   77 1    
   149   75  196 1    
   150   76  197 1    
   151   76  198 1    
   152   76  199 1    
   153   77   78 2    
   154   77   79 am   BACKBONE|DICT|INTERRES
   155   79   80 1    
   156   79  200 1    
   157   80   81 1    
   158   80   82 1    
   159   80  201 1    
   160   81  202 1    
   161   81  203 1    
   162   81  204 1    
   163   82   83 2    
   164   82   84 am   BACKBONE|DICT|INTERRES
   165   84   85 1    
   166   84  205 1    
   167   85   86 1    
   168   85   87 1    
   169   85  206 1    
   170   86  207 1    
   171   86  208 1    
   172   86  209 1    
   173   87   88 2    
   174   87   89 am   BACKBONE|DICT|INTERRES
   175   89   90 1    
   176   89  210 1    
   177   90   91 1    
   178   90   92 1    
   179   90  211 1    
   180   91  212 1    
   181   91  213 1    
   182   91  214 1    
   183   92   93 2    
   184   92   94 am   BACKBONE|DICT|INTERRES
   185   94   95 1    
   186   94  215 1    
   187   95   96 1    
   188   95   97 1    
   189   95  216 1    
   190   96  217 1    
   191   96  218 1    
   192   96  219 1    
   193   97   98 2    
   194   97   99 am   BACKBONE|DICT|INTERRES
   195   99  100 1    
   196   99  220 1    
   197  100  101 1    
   198  100  102 1    
   199  100  221 1    
   200  101  222 1    
   201  101  223 1    
   202  101  224 1    
   203  102  103 2    
   204  102  104 am   BACKBONE|DICT|INTERRES
   205  104  105 1    
   206  104  225 1    
   207  105  106 1    
   208  105  107 1    
   209  105  226 1    
   210  106  227 1    
   211  106  228 1    
   212  106  229 1    
   213  107  108 2    
   214  107  109 am   BACKBONE|DICT|INTERRES
   215  109  110 1    
   216  109  230 1    
   217  110  111 1    
   218  110  112 1    
   219  110  231 1    
   220  111  232 1    
   221  111  233 1    
   222  111  234 1    
   223  112  113 2    
   224  112  114 am   BACKBONE|DICT|INTERRES
   225  114  115 1    
   226  114  235 1    
   227  115  116 1    
   228  115  117 1    
   229  115  236 1    
   230  116  237 1    
   231  116  238 1    
   232  116  239 1    
   233  117  118 2    
   234  117  119 am   BACKBONE|DICT|INTERRES
   235  119  120 1    
   236  119  240 1    
   237  120  121 1    
   238  120  124 1    
   239  120  241 1    
   240  121  122 am   BACKBONE|DICT|INTERRES
   241  121  123 2    
   242  122  242 1    
   243  122  243 1    
   244  124  125 1    
   245  124  244 1    
   246  124  245 1    
   247  125  126 1    
   248  126  246 1    
   249  126  247 1    
@<TRIPOS>SUBSTRUCTURE
     1 UNK         1 GROUP             0       ****    0 ROOT    
