@<TRIPOS>MOLECULE
3R540
247   249    1
SMALL
USER_CHARGES


@<TRIPOS>ATOM
      1 CA          1.6290  -11.8548  -45.6785 C.3       0 UNK        -0.1800 
      2 C           0.9061  -13.1868  -45.8077 C.2       0 UNK         0.5000 
      3 O           0.3845  -13.6997  -44.8185 O.2       0 UNK        -0.5000 
      4 N           0.8692  -13.7429  -47.0251 N.am      1 UNK        -0.5000 
      5 CA          0.2939  -15.0540  -47.3603 C.3       1 UNK         0.1400 
      6 C6          0.5136  -15.3802  -48.8599 C.3       23 UNK        -0.0398 
      7 S7          0.7125  -17.1639  -49.1613 S.3       23 UNK        -0.2404 
      8 C8          2.2364  -17.2004  -50.1567 C.3       23 UNK        -0.0205 
      9 C9          2.6219  -18.6199  -50.5483 C.ar      23 UNK        -0.0193 
     10 C10         1.8908  -19.2971  -51.5284 C.ar      23 UNK        -0.1150 
     11 C11         2.2283  -20.6042  -51.9010 C.ar      23 UNK        -0.0193 
     12 C12         3.3447  -21.2077  -51.3139 C.ar      23 UNK        -0.1150 
     13 C13         4.0994  -20.5365  -50.3472 C.ar      23 UNK        -0.0193 
     14 C14         3.7223  -19.2474  -49.9569 C.ar      23 UNK        -0.1150 
     15 C15         5.3503  -21.1828  -49.7620 C.3       23 UNK        -0.0205 
     16 S16         5.0207  -22.7577  -48.9053 S.3       23 UNK        -0.2404 
     17 C17         4.0158  -22.1938  -47.4926 C.3       23 UNK        -0.0398 
     18 CA          2.7787  -23.0787  -47.2065 C.3       11 UNK         0.1400 
     19 N           2.1563  -22.7171  -45.9282 N.am      11 UNK        -0.5000 
     20 C           1.1911  -23.4140  -45.3121 C.2       10 UNK         0.5000 
     21 O           0.7545  -24.4872  -45.7256 O.2       10 UNK        -0.5000 
     22 CA          0.5786  -22.7941  -44.0440 C.3       10 UNK         0.1400 
     23 CB          1.4176  -23.1551  -42.8095 C.3       10 UNK        -0.1800 
     24 N           0.4397  -21.3408  -44.1387 N.am      10 UNK        -0.5000 
     25 C          -0.4074  -20.7053  -44.9616 C.2       9 UNK         0.5000 
     26 O          -1.2224  -21.2798  -45.6849 O.2       9 UNK        -0.5000 
     27 CA         -0.2937  -19.1695  -45.0207 C.3       9 UNK         0.1400 
     28 CB         -1.0493  -18.5118  -43.8604 C.3       9 UNK        -0.1800 
     29 N           1.0870  -18.6945  -45.0171 N.am      9 UNK        -0.5000 
     30 C           1.9846  -18.9762  -45.9697 C.2       8 UNK         0.5000 
     31 O           1.7440  -19.6751  -46.9525 O.2       8 UNK        -0.5000 
     32 CA          3.4069  -18.4398  -45.7451 C.3       8 UNK         0.1400 
     33 CB          3.5010  -16.9526  -46.1157 C.3       8 UNK        -0.1800 
     34 N           3.8399  -18.6323  -44.3606 N.am      8 UNK        -0.5000 
     35 C           4.0976  -19.8282  -43.8125 C.2       7 UNK         0.5000 
     36 O           4.0285  -20.8915  -44.4283 O.2       7 UNK        -0.5000 
     37 CA          4.4493  -19.8399  -42.3141 C.3       7 UNK         0.1400 
     38 CB          5.9182  -19.4473  -42.0960 C.3       7 UNK        -0.1800 
     39 N           3.5862  -18.9596  -41.5250 N.am      7 UNK        -0.5000 
     40 C           2.2696  -19.1465  -41.3556 C.2       6 UNK         0.5000 
     41 O           1.6457  -20.0901  -41.8372 O.2       6 UNK        -0.5000 
     42 CA          1.5118  -18.0792  -40.5460 C.3       6 UNK         0.1400 
     43 CB          1.5694  -18.3996  -39.0452 C.3       6 UNK        -0.1800 
     44 N           1.9873  -16.7115  -40.7690 N.am      6 UNK        -0.5000 
     45 C           2.0138  -16.0915  -41.9553 C.2       5 UNK         0.5000 
     46 O           1.6989  -16.6276  -43.0205 O.2       5 UNK        -0.5000 
     47 CA          2.4335  -14.6175  -41.9403 C.3       5 UNK         0.1400 
     48 CB          3.4615  -14.3115  -43.0419 C.3       5 UNK        -0.1800 
     49 N           1.2348  -13.8235  -42.1667 N.am      5 UNK        -0.5000 
     50 C           0.5312  -13.1882  -41.2236 C.2       4 UNK         0.5000 
     51 O           0.8720  -13.1161  -40.0422 O.2       4 UNK        -0.5000 
     52 CA         -0.7952  -12.5556  -41.6761 C.3       4 UNK         0.1400 
     53 CB         -0.5581  -11.2504  -42.4504 C.3       4 UNK        -0.1800 
     54 N          -1.5702  -13.4871  -42.4989 N.am      4 UNK        -0.5000 
     55 C          -2.4113  -14.4004  -41.9956 C.2       3 UNK         0.5000 
     56 O          -2.6170  -14.5236  -40.7868 O.2       3 UNK        -0.5000 
     57 CA         -3.1386  -15.3527  -42.9716 C.3       3 UNK         0.1400 
     58 CB         -4.6217  -15.5417  -42.5870 C.3       3 UNK        -0.1800 
     59 N          -3.0146  -15.0233  -44.3980 N.am      3 UNK        -0.5000 
     60 C          -3.5094  -13.9620  -45.0493 C.2       2 UNK         0.5000 
     61 O          -4.0736  -13.0197  -44.4912 O.2       2 UNK        -0.5000 
     62 CA         -3.3344  -13.9624  -46.5855 C.3       2 UNK         0.1400 
     63 CB         -3.9292  -12.7102  -47.2544 C.3       2 UNK        -0.1800 
     64 N          -1.9360  -14.0867  -46.9960 N.am      2 UNK        -0.5000 
     65 C          -1.1938  -15.2025  -46.9619 C.2       1 UNK         0.5000 
     66 O          -1.6257  -16.2945  -46.5901 O.2       1 UNK        -0.5000 
     67 C           1.7518  -23.0760  -48.3632 C.2       11 UNK         0.5000 
     68 O           1.7397  -24.0094  -49.1662 O.2       11 UNK        -0.5000 
     69 N           0.8647  -22.0715  -48.3800 N.am      12 UNK        -0.5000 
     70 CA         -0.2636  -21.9709  -49.3085 C.3       12 UNK         0.1400 
     71 CB         -0.7935  -20.5313  -49.2856 C.3       12 UNK        -0.1800 
     72 C          -1.4146  -22.9497  -49.0078 C.2       12 UNK         0.5000 
     73 O          -2.3202  -23.0767  -49.8332 O.2       12 UNK        -0.5000 
     74 N          -1.3956  -23.5743  -47.8208 N.am      13 UNK        -0.5000 
     75 CA         -2.3546  -24.5193  -47.2342 C.3       13 UNK         0.1400 
     76 CB         -2.4814  -25.7906  -48.0941 C.3       13 UNK        -0.1800 
     77 C          -3.7374  -23.9141  -46.9242 C.2       13 UNK         0.5000 
     78 O          -4.2569  -24.1088  -45.8253 O.2       13 UNK        -0.5000 
     79 N          -4.3002  -23.1846  -47.8906 N.am      14 UNK        -0.5000 
     80 CA         -5.6009  -22.5234  -47.8341 C.3       14 UNK         0.1400 
     81 CB         -6.2115  -22.5618  -49.2457 C.3       14 UNK        -0.1800 
     82 C          -5.5169  -21.0735  -47.3185 C.2       14 UNK         0.5000 
     83 O          -6.5215  -20.3662  -47.3813 O.2       14 UNK        -0.5000 
     84 N          -4.3319  -20.6259  -46.8705 N.am      15 UNK        -0.5000 
     85 CA         -4.0332  -19.2591  -46.4180 C.3       15 UNK         0.1400 
     86 CB         -4.7262  -18.9632  -45.0730 C.3       15 UNK        -0.1800 
     87 C          -4.3307  -18.1990  -47.4995 C.2       15 UNK         0.5000 
     88 O          -4.9237  -17.1589  -47.2128 O.2       15 UNK        -0.5000 
     89 N          -3.9530  -18.5352  -48.7416 N.am      16 UNK        -0.5000 
     90 CA         -4.1316  -17.7726  -49.9811 C.3       16 UNK         0.1400 
     91 CB         -3.3903  -16.4222  -49.9146 C.3       16 UNK        -0.1800 
     92 C          -5.5963  -17.6124  -50.4479 C.2       16 UNK         0.5000 
     93 O          -5.8271  -16.9370  -51.4514 O.2       16 UNK        -0.5000 
     94 N          -6.5615  -18.2615  -49.7763 N.am      17 UNK        -0.5000 
     95 CA         -7.9792  -18.2474  -50.1594 C.3       17 UNK         0.1400 
     96 CB         -8.8333  -18.7601  -48.9907 C.3       17 UNK        -0.1800 
     97 C          -8.2685  -19.0657  -51.4340 C.2       17 UNK         0.5000 
     98 O          -9.2688  -18.8101  -52.1051 O.2       17 UNK        -0.5000 
     99 N          -7.3808  -20.0166  -51.7485 N.am      18 UNK        -0.5000 
    100 CA        -7.3998  -20.8411  -52.9530 C.3       18 UNK         0.1400 
    101 CB        -7.8761  -22.2625  -52.6023 C.3       18 UNK        -0.1800 
    102 C         -6.0060  -20.8183  -53.6016 C.2       18 UNK         0.5000 
    103 O         -5.4784  -21.8667  -53.9761 O.2       18 UNK        -0.5000 
    104 N         -5.4244  -19.6154  -53.7284 N.am      19 UNK        -0.5000 
    105 CA        -4.0921  -19.3612  -54.2960 C.3       19 UNK         0.1400 
    106 CB        -3.7449  -17.8750  -54.1195 C.3       19 UNK        -0.1800 
    107 C         -3.9219  -19.7778  -55.7732 C.2       19 UNK         0.5000 
    108 O         -2.7887  -19.9074  -56.2351 O.2       19 UNK        -0.5000 
    109 N         -5.0360  -20.0019  -56.4843 N.am      20 UNK        -0.5000 
    110 CA        -5.0637  -20.5930  -57.8236 C.3       20 UNK         0.1400 
    111 CB        -6.4805  -20.4579  -58.4020 C.3       20 UNK        -0.1800 
    112 C         -4.6122  -22.0690  -57.8355 C.2       20 UNK         0.5000 
    113 O         -4.0503  -22.5184  -58.8351 O.2       20 UNK        -0.5000 
    114 N         -4.8517  -22.7845  -56.7276 N.am      21 UNK        -0.5000 
    115 CA        -4.3679  -24.1422  -56.4883 C.3       21 UNK         0.1400 
    116 CB        -5.4689  -24.9638  -55.7970 C.3       21 UNK        -0.1800 
    117 C         -3.0913  -24.0972  -55.6339 C.2       21 UNK         0.5000 
    118 O         -2.0766  -24.6749  -56.0245 O.2       21 UNK        -0.5000 
    119 N         -3.1630  -23.3826  -54.5016 N.am      22 UNK        -0.5000 
    120 CA        -2.0658  -23.1436  -53.5492 C.3       22 UNK         0.1400 
    121 C         -1.5261  -24.4221  -52.8325 C.2       22 UNK         0.5000 
    122 N         -2.3199  -25.4791  -52.7035 N.am      22 UNK        -0.7600 
    123 O         -0.3843  -24.4655  -52.3840 O.2       22 UNK        -0.5000 
    124 C124       -0.9507  -22.2496  -54.1668 C.3       23 UNK        -0.0398 
    125 S125       -0.3460  -20.9891  -52.9958 S.3       23 UNK        -0.2404 
    126 C126        1.4367  -21.3780  -52.9543 C.3       23 UNK        -0.0205 
    127 H127        0.9075  -11.0416  -45.6025 H         1 UNK         0.0600 
    128 H128        2.2736  -11.6617  -46.5362 H         1 UNK         0.0600 
    129 H129        2.2493  -11.8491  -44.7821 H         1 UNK         0.0600 
    130 H130        1.3072  -13.2512  -47.7909 H         1 UNK         0.3000 
    131 H131        0.8455  -15.7792  -46.7593 H         1 UNK         0.0600 
    132 H132       -0.2975  -14.9977  -49.4824 H         1 UNK         0.0800 
    133 H133        1.4141  -14.8826  -49.2222 H         1 UNK         0.0800 
    134 H134        3.0455  -16.7256  -49.6002 H         1 UNK         0.0800 
    135 H135        2.0908  -16.6059  -51.0597 H         1 UNK         0.0800 
    136 H136        1.0468  -18.8021  -51.9867 H         1 UNK         0.1150 
    137 H137        3.6335  -22.2062  -51.6113 H         1 UNK         0.1150 
    138 H138        4.2979  -18.7222  -49.2080 H         1 UNK         0.1150 
    139 H139        6.0564  -21.3687  -50.5723 H         1 UNK         0.0800 
    140 H140        5.8527  -20.5038  -49.0712 H         1 UNK         0.0800 
    141 H141        3.7167  -21.1576  -47.6418 H         1 UNK         0.0800 
    142 H142        4.6734  -22.1921  -46.6230 H         1 UNK         0.0800 
    143 H143        3.1317  -24.1065  -47.0979 H         1 UNK         0.0600 
    144 H144        2.4902  -21.8642  -45.4939 H         1 UNK         0.3000 
    145 H145       -0.4185  -23.2202  -43.9140 H         1 UNK         0.0600 
    146 H146        0.9437  -22.7996  -41.8944 H         1 UNK         0.0600 
    147 H147        1.5335  -24.2357  -42.7165 H         1 UNK         0.0600 
    148 H148        2.4162  -22.7193  -42.8601 H         1 UNK         0.0600 
    149 H149        1.0297  -20.7908  -43.5204 H         1 UNK         0.3000 
    150 H150       -0.7391  -18.8365  -45.9594 H         1 UNK         0.0600 
    151 H151       -2.1045  -18.7817  -43.8714 H         1 UNK         0.0600 
    152 H152       -0.9807  -17.4267  -43.9294 H         1 UNK         0.0600 
    153 H153       -0.6437  -18.8120  -42.8946 H         1 UNK         0.0600 
    154 H154        1.3608  -18.0863  -44.2501 H         1 UNK         0.3000 
    155 H155        4.0839  -18.9953  -46.3974 H         1 UNK         0.0600 
    156 H156        2.8420  -16.3417  -45.4993 H         1 UNK         0.0600 
    157 H157        3.2166  -16.7931  -47.1557 H         1 UNK         0.0600 
    158 H158        4.5173  -16.5777  -45.9949 H         1 UNK         0.0600 
    159 H159        3.8543  -17.8138  -43.7704 H         1 UNK         0.3000 
    160 H160        4.3124  -20.8606  -41.9502 H         1 UNK         0.0600 
    161 H161        6.1142  -18.4214  -42.4104 H         1 UNK         0.0600 
    162 H162        6.5840  -20.0980  -42.6643 H         1 UNK         0.0600 
    163 H163        6.1978  -19.5359  -41.0460 H         1 UNK         0.0600 
    164 H164        4.0178  -18.1541  -41.0970 H         1 UNK         0.3000 
    165 H165        0.4664  -18.1143  -40.8582 H         1 UNK         0.0600 
    166 H166        0.9504  -17.7105  -38.4703 H         1 UNK         0.0600 
    167 H167        1.2012  -19.4071  -38.8466 H         1 UNK         0.0600 
    168 H168        2.5876  -18.3400  -38.6588 H         1 UNK         0.0600 
    169 H169        2.2449  -16.1892  -39.9438 H         1 UNK         0.3000 
    170 H170        2.8863  -14.3757  -40.9765 H         1 UNK         0.0600 
    171 H171        4.3535  -14.9284  -42.9274 H         1 UNK         0.0600 
    172 H172        3.0588  -14.4959  -44.0375 H         1 UNK         0.0600 
    173 H173        3.7779  -13.2692  -43.0017 H         1 UNK         0.0600 
    174 H174        0.8586  -13.8605  -43.1135 H         1 UNK         0.3000 
    175 H175       -1.3661  -12.3006  -40.7805 H         1 UNK         0.0600 
    176 H176        0.0154  -11.4162  -43.3602 H         1 UNK         0.0600 
    177 H177       -1.5022  -10.7835  -42.7313 H         1 UNK         0.0600 
    178 H178       -0.0068  -10.5321  -41.8425 H         1 UNK         0.0600 
    179 H179       -1.3895  -13.4812  -43.4948 H         1 UNK         0.3000 
    180 H180       -2.6554  -16.3202  -42.8456 H         1 UNK         0.0600 
    181 H181       -5.1617  -14.5945  -42.5814 H         1 UNK         0.0600 
    182 H182       -4.7170  -15.9751  -41.5908 H         1 UNK         0.0600 
    183 H183       -5.1316  -16.2117  -43.2784 H         1 UNK         0.0600 
    184 H184       -2.5262  -15.7074  -44.9697 H         1 UNK         0.3000 
    185 H185       -3.8822  -14.8248  -46.9643 H         1 UNK         0.0600 
    186 H186       -3.8491  -12.7684  -48.3401 H         1 UNK         0.0600 
    187 H187       -4.9882  -12.6043  -47.0154 H         1 UNK         0.0600 
    188 H188       -3.4242  -11.8003  -46.9277 H         1 UNK         0.0600 
    189 H189       -1.4768  -13.2290  -47.2641 H         1 UNK         0.3000 
    190 H190        0.9877  -21.3018  -47.7271 H         1 UNK         0.3000 
    191 H191        0.0988  -22.1942  -50.3131 H         1 UNK         0.0600 
    192 H192       -1.6148  -20.3987  -49.9906 H         1 UNK         0.0600 
    193 H193       -0.0088  -19.8385  -49.5753 H         1 UNK         0.0600 
    194 H194       -1.1469  -20.2419  -48.2955 H         1 UNK         0.0600 
    195 H195       -0.6174  -23.3507  -47.2148 H         1 UNK         0.3000 
    196 H196       -1.9246  -24.8153  -46.2764 H         1 UNK         0.0600 
    197 H197       -2.9127  -25.5821  -49.0737 H         1 UNK         0.0600 
    198 H198       -1.5084  -26.2568  -48.2497 H         1 UNK         0.0600 
    199 H199       -3.1214  -26.5271  -47.6068 H         1 UNK         0.0600 
    200 H200       -3.7705  -23.0853  -48.7550 H         1 UNK         0.3000 
    201 H201       -6.2615  -23.0711  -47.1591 H         1 UNK         0.0600 
    202 H202       -5.5972  -22.0166  -49.9634 H         1 UNK         0.0600 
    203 H203       -7.2095  -22.1214  -49.2612 H         1 UNK         0.0600 
    204 H204       -6.3088  -23.5873  -49.6025 H         1 UNK         0.0600 
    205 H205       -3.5603  -21.2788  -46.8370 H         1 UNK         0.3000 
    206 H206       -2.9593  -19.2180  -46.2510 H         1 UNK         0.0600 
    207 H207       -4.4804  -19.7197  -44.3279 H         1 UNK         0.0600 
    208 H208       -4.4036  -18.0001  -44.6777 H         1 UNK         0.0600 
    209 H209       -5.8115  -18.9296  -45.1730 H         1 UNK         0.0600 
    210 H210       -3.5054  -19.4326  -48.8537 H         1 UNK         0.3000 
    211 H211       -3.6434  -18.3683  -50.7534 H         1 UNK         0.0600 
    212 H212       -2.3569  -16.5583  -49.5975 H         1 UNK         0.0600 
    213 H213       -3.8669  -15.7304  -49.2207 H         1 UNK         0.0600 
    214 H214       -3.3677  -15.9380  -50.8915 H         1 UNK         0.0600 
    215 H215       -6.3237  -18.7852  -48.9423 H         1 UNK         0.3000 
    216 H216       -8.2663  -17.2126  -50.3579 H         1 UNK         0.0600 
    217 H217       -8.6652  -19.8211  -48.8041 H         1 UNK         0.0600 
    218 H218       -9.8957  -18.6326  -49.2015 H         1 UNK         0.0600 
    219 H219       -8.6158  -18.2171  -48.0707 H         1 UNK         0.0600 
    220 H220       -6.5836  -20.1361  -51.1413 H         1 UNK         0.3000 
    221 H221       -8.0893  -20.4223  -53.6886 H         1 UNK         0.0600 
    222 H222       -8.8528  -22.2433  -52.1188 H         1 UNK         0.0600 
    223 H223       -7.1800  -22.7683  -51.9336 H         1 UNK         0.0600 
    224 H224       -7.9700  -22.8749  -53.5000 H         1 UNK         0.0600 
    225 H225       -5.9276  -18.8036  -53.3969 H         1 UNK         0.3000 
    226 H226       -3.3736  -19.9482  -53.7199 H         1 UNK         0.0600 
    227 H227       -3.7138  -17.5964  -53.0676 H         1 UNK         0.0600 
    228 H228       -2.7629  -17.6481  -54.5370 H         1 UNK         0.0600 
    229 H229       -4.4708  -17.2309  -54.6170 H         1 UNK         0.0600 
    230 H230       -5.9269  -19.8415  -56.0391 H         1 UNK         0.3000 
    231 H231       -4.3778  -20.0298  -58.4599 H         1 UNK         0.0600 
    232 H232       -7.2157  -20.9890  -57.7960 H         1 UNK         0.0600 
    233 H233       -6.5301  -20.8675  -59.4118 H         1 UNK         0.0600 
    234 H234       -6.7847  -19.4127  -58.4614 H         1 UNK         0.0600 
    235 H235       -5.2754  -22.3199  -55.9328 H         1 UNK         0.3000 
    236 H236       -4.1271  -24.6332  -57.4336 H         1 UNK         0.0600 
    237 H237       -5.7779  -24.5206  -54.8496 H         1 UNK         0.0600 
    238 H238       -6.3529  -25.0422  -56.4300 H         1 UNK         0.0600 
    239 H239       -5.1264  -25.9785  -55.5903 H         1 UNK         0.0600 
    240 H240       -4.0460  -22.9355  -54.2646 H         1 UNK         0.3000 
    241 H241       -2.5436  -22.5759  -52.7497 H         1 UNK         0.0600 
    242 H242       -3.2617  -25.4602  -53.0590 H         1 UNK         0.3800 
    243 H243       -1.9726  -26.3028  -52.2394 H         1 UNK         0.3800 
    244 H244       -1.3322  -21.7035  -55.0289 H         1 UNK         0.0800 
    245 H245       -0.1281  -22.8519  -54.5561 H         1 UNK         0.0800 
    246 H246        1.8685  -21.1769  -53.9354 H         1 UNK         0.0800 
    247 H247        1.5459  -22.4489  -52.7742 H         1 UNK         0.0800 
@<TRIPOS>BOND
     1    1    2 1    
     2    1  127 1    
     3    1  128 1    
     4    1  129 1    
     5    2    3 2    
     6    2    4 am   BACKBONE|DICT|INTERRES
     7    4    5 1    
     8    4  130 1    
     9    5    6 1    
    10    5   65 1    
    11    5  131 1    
    12    6    7 1    
    13    6  132 1    
    14    6  133 1    
    15    7    8 1    
    16    8    9 1    
    17    8  134 1    
    18    8  135 1    
    19    9   10 ar   
    20    9   14 ar   
    21   10   11 ar   
    22   10  136 1    
    23   11   12 ar   
    24   11  126 1    
    25   12   13 ar   
    26   12  137 1    
    27   13   14 ar   
    28   13   15 1    
    29   14  138 1    
    30   15   16 1    
    31   15  139 1    
    32   15  140 1    
    33   16   17 1    
    34   17   18 1    
    35   17  141 1    
    36   17  142 1    
    37   18   19 1    
    38   18   67 1    
    39   18  143 1    
    40   19   20 am   BACKBONE|DICT|INTERRES
    41   19  144 1    
    42   20   21 2    
    43   20   22 1    
    44   22   23 1    
    45   22   24 1    
    46   22  145 1    
    47   23  146 1    
    48   23  147 1    
    49   23  148 1    
    50   24   25 am   BACKBONE|DICT|INTERRES
    51   24  149 1    
    52   25   26 2    
    53   25   27 1    
    54   27   28 1    
    55   27   29 1    
    56   27  150 1    
    57   28  151 1    
    58   28  152 1    
    59   28  153 1    
    60   29   30 am   BACKBONE|DICT|INTERRES
    61   29  154 1    
    62   30   31 2    
    63   30   32 1    
    64   32   33 1    
    65   32   34 1    
    66   32  155 1    
    67   33  156 1    
    68   33  157 1    
    69   33  158 1    
    70   34   35 am   BACKBONE|DICT|INTERRES
    71   34  159 1    
    72   35   36 2    
    73   35   37 1    
    74   37   38 1    
    75   37   39 1    
    76   37  160 1    
    77   38  161 1    
    78   38  162 1    
    79   38  163 1    
    80   39   40 am   BACKBONE|DICT|INTERRES
    81   39  164 1    
    82   40   41 2    
    83   40   42 1    
    84   42   43 1    
    85   42   44 1    
    86   42  165 1    
    87   43  166 1    
    88   43  167 1    
    89   43  168 1    
    90   44   45 am   BACKBONE|DICT|INTERRES
    91   44  169 1    
    92   45   46 2    
    93   45   47 1    
    94   47   48 1    
    95   47   49 1    
    96   47  170 1    
    97   48  171 1    
    98   48  172 1    
    99   48  173 1    
   100   49   50 am   BACKBONE|DICT|INTERRES
   101   49  174 1    
   102   50   51 2    
   103   50   52 1    
   104   52   53 1    
   105   52   54 1    
   106   52  175 1    
   107   53  176 1    
   108   53  177 1    
   109   53  178 1    
   110   54   55 am   BACKBONE|DICT|INTERRES
   111   54  179 1    
   112   55   56 2    
   113   55   57 1    
   114   57   58 1    
   115   57   59 1    
   116   57  180 1    
   117   58  181 1    
   118   58  182 1    
   119   58  183 1    
   120   59   60 am   BACKBONE|DICT|INTERRES
   121   59  184 1    
   122   60   61 2    
   123   60   62 1    
   124   62   63 1    
   125   62   64 1    
   126   62  185 1    
   127   63  186 1    
   128   63  187 1    
   129   63  188 1    
   130   64   65 am   BACKBONE|DICT|INTERRES
   131   64  189 1    
   132   65   66 2    
   133   67   68 2    
   134   67   69 am   BACKBONE|DICT|INTERRES
   135   69   70 1    
   136   69  190 1    
   137   70   71 1    
   138   70   72 1    
   139   70  191 1    
   140   71  192 1    
   141   71  193 1    
   142   71  194 1    
   143   72   73 2    
   144   72   74 am   BACKBONE|DICT|INTERRES
   145   74   75 1    
   146   74  195 1    
   147   75   76 1    
   148   75   77 1    
   149   75  196 1    
   150   76  197 1    
   151   76  198 1    
   152   76  199 1    
   153   77   78 2    
   154   77   79 am   BACKBONE|DICT|INTERRES
   155   79   80 1    
   156   79  200 1    
   157   80   81 1    
   158   80   82 1    
   159   80  201 1    
   160   81  202 1    
   161   81  203 1    
   162   81  204 1    
   163   82   83 2    
   164   82   84 am   BACKBONE|DICT|INTERRES
   165   84   85 1    
   166   84  205 1    
   167   85   86 1    
   168   85   87 1    
   169   85  206 1    
   170   86  207 1    
   171   86  208 1    
   172   86  209 1    
   173   87   88 2    
   174   87   89 am   BACKBONE|DICT|INTERRES
   175   89   90 1    
   176   89  210 1    
   177   90   91 1    
   178   90   92 1    
   179   90  211 1    
   180   91  212 1    
   181   91  213 1    
   182   91  214 1    
   183   92   93 2    
   184   92   94 am   BACKBONE|DICT|INTERRES
   185   94   95 1    
   186   94  215 1    
   187   95   96 1    
   188   95   97 1    
   189   95  216 1    
   190   96  217 1    
   191   96  218 1    
   192   96  219 1    
   193   97   98 2    
   194   97   99 am   BACKBONE|DICT|INTERRES
   195   99  100 1    
   196   99  220 1    
   197  100  101 1    
   198  100  102 1    
   199  100  221 1    
   200  101  222 1    
   201  101  223 1    
   202  101  224 1    
   203  102  103 2    
   204  102  104 am   BACKBONE|DICT|INTERRES
   205  104  105 1    
   206  104  225 1    
   207  105  106 1    
   208  105  107 1    
   209  105  226 1    
   210  106  227 1    
   211  106  228 1    
   212  106  229 1    
   213  107  108 2    
   214  107  109 am   BACKBONE|DICT|INTERRES
   215  109  110 1    
   216  109  230 1    
   217  110  111 1    
   218  110  112 1    
   219  110  231 1    
   220  111  232 1    
   221  111  233 1    
   222  111  234 1    
   223  112  113 2    
   224  112  114 am   BACKBONE|DICT|INTERRES
   225  114  115 1    
   226  114  235 1    
   227  115  116 1    
   228  115  117 1    
   229  115  236 1    
   230  116  237 1    
   231  116  238 1    
   232  116  239 1    
   233  117  118 2    
   234  117  119 am   BACKBONE|DICT|INTERRES
   235  119  120 1    
   236  119  240 1    
   237  120  121 1    
   238  120  124 1    
   239  120  241 1    
   240  121  122 am   BACKBONE|DICT|INTERRES
   241  121  123 2    
   242  122  242 1    
   243  122  243 1    
   244  124  125 1    
   245  124  244 1    
   246  124  245 1    
   247  125  126 1    
   248  126  246 1    
   249  126  247 1    
@<TRIPOS>SUBSTRUCTURE
     1 UNK         1 GROUP             0       ****    0 ROOT    
