@<TRIPOS>MOLECULE
3R540
247   249    1
SMALL
USER_CHARGES


@<TRIPOS>ATOM
      1 CA          0.6866  -10.3219  -47.7590 C.3       0 UNK        -0.1800 
      2 C           1.2892  -11.6954  -47.5059 C.2       0 UNK         0.5000 
      3 O           1.3226  -12.1520  -46.3635 O.2       0 UNK        -0.5000 
      4 N           1.7436  -12.3662  -48.5708 N.am      1 UNK        -0.5000 
      5 CA          2.4117  -13.6768  -48.5591 C.3       1 UNK         0.1400 
      6 C6          2.9202  -14.0790  -49.9682 C.3       23 UNK        -0.0398 
      7 S7          1.6751  -13.8961  -51.2982 S.3       23 UNK        -0.2404 
      8 C8          1.9496  -15.3912  -52.2975 C.3       23 UNK        -0.0205 
      9 C9          1.1045  -16.5597  -51.8161 C.ar      23 UNK        -0.0193 
     10 C10        -0.2104  -16.7026  -52.2703 C.ar      23 UNK        -0.1150 
     11 C11        -0.9882  -17.7882  -51.8593 C.ar      23 UNK        -0.0193 
     12 C12        -0.4424  -18.7337  -50.9872 C.ar      23 UNK        -0.1150 
     13 C13         0.8695  -18.6033  -50.5275 C.ar      23 UNK        -0.0193 
     14 C14         1.6386  -17.5119  -50.9430 C.ar      23 UNK        -0.1150 
     15 C15         1.4655  -19.6508  -49.6017 C.3       23 UNK        -0.0205 
     16 S16         1.2481  -19.2056  -47.8531 S.3       23 UNK        -0.2404 
     17 C17        -0.3174  -20.0412  -47.4234 C.3       23 UNK        -0.0398 
     18 CA         -0.0820  -21.4799  -46.9010 C.3       11 UNK         0.1400 
     19 N           0.7418  -21.5286  -45.6881 N.am      11 UNK        -0.5000 
     20 C           1.2876  -22.6476  -45.1915 C.2       10 UNK         0.5000 
     21 O           1.1797  -23.7514  -45.7251 O.2       10 UNK        -0.5000 
     22 CA          2.0353  -22.5290  -43.8504 C.3       10 UNK         0.1400 
     23 CB          3.4574  -21.9842  -44.0517 C.3       10 UNK        -0.1800 
     24 N           1.3180  -21.7021  -42.8794 N.am      10 UNK        -0.5000 
     25 C           0.1215  -22.0130  -42.3612 C.2       9 UNK         0.5000 
     26 O          -0.4808  -23.0559  -42.6125 O.2       9 UNK        -0.5000 
     27 CA         -0.5380  -20.9655  -41.4477 C.3       9 UNK         0.1400 
     28 CB          0.0064  -21.0578  -40.0144 C.3       9 UNK        -0.1800 
     29 N          -0.3718  -19.6044  -41.9556 N.am      9 UNK        -0.5000 
     30 C          -0.9402  -19.1424  -43.0786 C.2       8 UNK         0.5000 
     31 O          -1.6870  -19.8088  -43.7944 O.2       8 UNK        -0.5000 
     32 CA         -0.5731  -17.7069  -43.4937 C.3       8 UNK         0.1400 
     33 CB         -1.4185  -16.6952  -42.7068 C.3       8 UNK        -0.1800 
     34 N           0.8471  -17.3992  -43.3128 N.am      8 UNK        -0.5000 
     35 C           1.8527  -18.0729  -43.8903 C.2       7 UNK         0.5000 
     36 O           1.6859  -19.0240  -44.6496 O.2       7 UNK        -0.5000 
     37 CA          3.2823  -17.6780  -43.4839 C.3       7 UNK         0.1400 
     38 CB          3.7227  -16.3875  -44.1881 C.3       7 UNK        -0.1800 
     39 N           3.4217  -17.5200  -42.0372 N.am      7 UNK        -0.5000 
     40 C           3.2310  -18.4843  -41.1281 C.2       6 UNK         0.5000 
     41 O           2.9420  -19.6439  -41.4242 O.2       6 UNK        -0.5000 
     42 CA          3.3297  -18.0918  -39.6391 C.3       6 UNK         0.1400 
     43 CB          4.7815  -18.1782  -39.1317 C.3       6 UNK        -0.1800 
     44 N           2.7089  -16.7975  -39.3157 N.am      6 UNK        -0.5000 
     45 C           3.0936  -15.5677  -39.6832 C.2       5 UNK         0.5000 
     46 O           4.1239  -15.3221  -40.3153 O.2       5 UNK        -0.5000 
     47 CA          2.1347  -14.4201  -39.3155 C.3       5 UNK         0.1400 
     48 CB          2.6275  -13.6871  -38.0588 C.3       5 UNK        -0.1800 
     49 N           1.9770  -13.4535  -40.4051 N.am      5 UNK        -0.5000 
     50 C           1.5475  -13.7410  -41.6418 C.2       4 UNK         0.5000 
     51 O           1.2290  -14.8738  -42.0137 O.2       4 UNK        -0.5000 
     52 CA          1.4968  -12.5586  -42.6292 C.3       4 UNK         0.1400 
     53 CB          2.8663  -12.3496  -43.2940 C.3       4 UNK        -0.1800 
     54 N           0.4900  -12.7301  -43.6768 N.am      4 UNK        -0.5000 
     55 C          -0.8339  -12.7824  -43.4753 C.2       3 UNK         0.5000 
     56 O          -1.3601  -12.6588  -42.3683 O.2       3 UNK        -0.5000 
     57 CA         -1.7305  -12.9944  -44.7074 C.3       3 UNK         0.1400 
     58 CB         -2.1576  -11.6377  -45.2891 C.3       3 UNK        -0.1800 
     59 N          -1.0652  -13.7745  -45.7555 N.am      3 UNK        -0.5000 
     60 C          -1.4485  -14.9945  -46.1601 C.2       2 UNK         0.5000 
     61 O          -2.4023  -15.5997  -45.6705 O.2       2 UNK        -0.5000 
     62 CA         -0.6664  -15.6535  -47.3150 C.3       2 UNK         0.1400 
     63 CB         -1.6193  -16.1980  -48.3916 C.3       2 UNK        -0.1800 
     64 N           0.2653  -14.7226  -47.9528 N.am      2 UNK        -0.5000 
     65 C           1.5995  -14.8126  -47.8971 C.2       1 UNK         0.5000 
     66 O           2.2031  -15.7174  -47.3228 O.2       1 UNK        -0.5000 
     67 C          -1.4116  -22.2421  -46.7195 C.2       11 UNK         0.5000 
     68 O          -1.8146  -22.9632  -47.6298 O.2       11 UNK        -0.5000 
     69 N          -2.0414  -22.1244  -45.5405 N.am      12 UNK        -0.5000 
     70 CA         -3.2420  -22.8798  -45.1751 C.3       12 UNK         0.1400 
     71 CB         -3.8229  -22.3382  -43.8610 C.3       12 UNK        -0.1800 
     72 C          -2.9878  -24.3965  -45.0787 C.2       12 UNK         0.5000 
     73 O          -3.8079  -25.1812  -45.5580 O.2       12 UNK        -0.5000 
     74 N          -1.8450  -24.7844  -44.4941 N.am      13 UNK        -0.5000 
     75 CA         -1.3883  -26.1730  -44.4022 C.3       13 UNK         0.1400 
     76 CB         -0.1602  -26.2542  -43.4837 C.3       13 UNK        -0.1800 
     77 C          -1.0851  -26.7995  -45.7767 C.2       13 UNK         0.5000 
     78 O          -1.3284  -27.9922  -45.9661 O.2       13 UNK        -0.5000 
     79 N          -0.6122  -25.9834  -46.7280 N.am      14 UNK        -0.5000 
     80 CA         -0.3625  -26.3387  -48.1264 C.3       14 UNK         0.1400 
     81 CB          0.6484  -25.3399  -48.7190 C.3       14 UNK        -0.1800 
     82 C          -1.6639  -26.4382  -48.9572 C.2       14 UNK         0.5000 
     83 O          -1.7759  -25.8105  -50.0116 O.2       14 UNK        -0.5000 
     84 N          -2.6149  -27.2476  -48.4680 N.am      15 UNK        -0.5000 
     85 CA         -3.9146  -27.5749  -49.0623 C.3       15 UNK         0.1400 
     86 CB         -3.7248  -28.4265  -50.3352 C.3       15 UNK        -0.1800 
     87 C          -4.8054  -26.3362  -49.2910 C.2       15 UNK         0.5000 
     88 O          -5.3112  -26.1305  -50.3965 O.2       15 UNK        -0.5000 
     89 N          -4.9652  -25.5221  -48.2378 N.am      16 UNK        -0.5000 
     90 CA         -5.7595  -24.2894  -48.1350 C.3       16 UNK         0.1400 
     91 CB         -7.2450  -24.5350  -48.4645 C.3       16 UNK        -0.1800 
     92 C          -5.2024  -23.0920  -48.9291 C.2       16 UNK         0.5000 
     93 O          -5.2130  -21.9803  -48.4005 O.2       16 UNK        -0.5000 
     94 N          -4.7335  -23.3423  -50.1596 N.am      17 UNK        -0.5000 
     95 CA         -4.1422  -22.4032  -51.1150 C.3       17 UNK         0.1400 
     96 CB         -2.7593  -21.9330  -50.6269 C.3       17 UNK        -0.1800 
     97 C          -5.0926  -21.2362  -51.4474 C.2       17 UNK         0.5000 
     98 O          -4.8827  -20.1067  -51.0008 O.2       17 UNK        -0.5000 
     99 N          -6.1503  -21.5472  -52.2087 N.am      18 UNK        -0.5000 
    100 CA        -7.1047  -20.5701  -52.7332 C.3       18 UNK         0.1400 
    101 CB        -8.2622  -21.3136  -53.4167 C.3       18 UNK        -0.1800 
    102 C         -6.4264  -19.6075  -53.7247 C.2       18 UNK         0.5000 
    103 O         -5.6676  -20.0603  -54.5839 O.2       18 UNK        -0.5000 
    104 N         -6.7328  -18.3085  -53.6125 N.am      19 UNK        -0.5000 
    105 CA        -6.0921  -17.2174  -54.3578 C.3       19 UNK         0.1400 
    106 CB        -6.6770  -15.8785  -53.8840 C.3       19 UNK        -0.1800 
    107 C         -6.1785  -17.3300  -55.8935 C.2       19 UNK         0.5000 
    108 O         -5.3085  -16.8023  -56.5853 O.2       19 UNK        -0.5000 
    109 N         -7.2041  -18.0306  -56.3954 N.am      20 UNK        -0.5000 
    110 CA        -7.3829  -18.3476  -57.8124 C.3       20 UNK         0.1400 
    111 CB        -8.8259  -18.8265  -58.0345 C.3       20 UNK        -0.1800 
    112 C         -6.3814  -19.3979  -58.3367 C.2       20 UNK         0.5000 
    113 O         -6.0895  -19.3998  -59.5334 O.2       20 UNK        -0.5000 
    114 N         -5.8836  -20.2724  -57.4508 N.am      21 UNK        -0.5000 
    115 CA        -4.8954  -21.3035  -57.7698 C.3       21 UNK         0.1400 
    116 CB        -5.1461  -22.5354  -56.8848 C.3       21 UNK        -0.1800 
    117 C         -3.4543  -20.7935  -57.5903 C.2       21 UNK         0.5000 
    118 O         -2.5575  -21.2698  -58.2879 O.2       21 UNK        -0.5000 
    119 N         -3.2552  -19.8490  -56.6617 N.am      22 UNK        -0.5000 
    120 CA        -1.9684  -19.1964  -56.3710 C.3       22 UNK         0.1400 
    121 C         -1.4011  -18.3887  -57.5733 C.2       22 UNK         0.5000 
    122 N         -0.0850  -18.3492  -57.7328 N.am      22 UNK        -0.7600 
    123 O         -2.1344  -17.7644  -58.3367 O.2       22 UNK        -0.5000 
    124 C124       -2.0553  -18.2928  -55.1155 C.3       23 UNK        -0.0398 
    125 S125       -2.5618  -19.2177  -53.6295 S.3       23 UNK        -0.2404 
    126 C126       -2.4214  -17.9421  -52.3410 C.3       23 UNK        -0.0205 
    127 H127        1.0028   -9.6232  -46.9844 H         1 UNK         0.0600 
    128 H128       -0.4014  -10.3798  -47.7465 H         1 UNK         0.0600 
    129 H129        0.9966   -9.9200  -48.7238 H         1 UNK         0.0600 
    130 H130        1.6516  -11.9502  -49.4872 H         1 UNK         0.3000 
    131 H131        3.2952  -13.5519  -47.9292 H         1 UNK         0.0600 
    132 H132        3.3176  -15.0953  -49.9592 H         1 UNK         0.0800 
    133 H133        3.7661  -13.4437  -50.2340 H         1 UNK         0.0800 
    134 H134        3.0086  -15.6537  -52.3025 H         1 UNK         0.0800 
    135 H135        1.6942  -15.1658  -53.3340 H         1 UNK         0.0800 
    136 H136       -0.6264  -15.9678  -52.9452 H         1 UNK         0.1150 
    137 H137       -1.0418  -19.5716  -50.6665 H         1 UNK         0.1150 
    138 H138        2.6551  -17.4096  -50.5904 H         1 UNK         0.1150 
    139 H139        1.0313  -20.6320  -49.7994 H         1 UNK         0.0800 
    140 H140        2.5332  -19.7488  -49.8034 H         1 UNK         0.0800 
    141 H141       -0.9694  -20.0442  -48.2980 H         1 UNK         0.0800 
    142 H142       -0.8254  -19.4415  -46.6661 H         1 UNK         0.0800 
    143 H143        0.4712  -22.0142  -47.6766 H         1 UNK         0.0600 
    144 H144        0.9359  -20.6402  -45.2303 H         1 UNK         0.3000 
    145 H145        2.1189  -23.5331  -43.4295 H         1 UNK         0.0600 
    146 H146        4.0009  -21.9431  -43.1076 H         1 UNK         0.0600 
    147 H147        4.0257  -22.6232  -44.7285 H         1 UNK         0.0600 
    148 H148        3.4521  -20.9810  -44.4772 H         1 UNK         0.0600 
    149 H149        1.7638  -20.8348  -42.5990 H         1 UNK         0.3000 
    150 H150       -1.6079  -21.1817  -41.4144 H         1 UNK         0.0600 
    151 H151       -0.1549  -22.0549  -39.6027 H         1 UNK         0.0600 
    152 H152       -0.4956  -20.3497  -39.3550 H         1 UNK         0.0600 
    153 H153        1.0767  -20.8572  -39.9708 H         1 UNK         0.0600 
    154 H154        0.2654  -19.0031  -41.4559 H         1 UNK         0.3000 
    155 H155       -0.8017  -17.6021  -44.5556 H         1 UNK         0.0600 
    156 H156       -1.2026  -16.7301  -41.6384 H         1 UNK         0.0600 
    157 H157       -2.4838  -16.8889  -42.8382 H         1 UNK         0.0600 
    158 H158       -1.2318  -15.6789  -43.0498 H         1 UNK         0.0600 
    159 H159        1.0666  -16.5953  -42.7278 H         1 UNK         0.3000 
    160 H160        3.9537  -18.4813  -43.7941 H         1 UNK         0.0600 
    161 H161        3.0536  -15.5577  -43.9623 H         1 UNK         0.0600 
    162 H162        3.7254  -16.5216  -45.2699 H         1 UNK         0.0600 
    163 H163        4.7314  -16.0975  -43.8938 H         1 UNK         0.0600 
    164 H164        3.6590  -16.5947  -41.6928 H         1 UNK         0.3000 
    165 H165        2.7522  -18.8356  -39.0876 H         1 UNK         0.0600 
    166 H166        5.4459  -17.4999  -39.6673 H         1 UNK         0.0600 
    167 H167        4.8430  -17.9405  -38.0697 H         1 UNK         0.0600 
    168 H168        5.1765  -19.1863  -39.2629 H         1 UNK         0.0600 
    169 H169        1.8366  -16.8739  -38.8109 H         1 UNK         0.3000 
    170 H170        1.1479  -14.8391  -39.1078 H         1 UNK         0.0600 
    171 H171        3.5993  -13.2191  -38.2221 H         1 UNK         0.0600 
    172 H172        1.9267  -12.9099  -37.7534 H         1 UNK         0.0600 
    173 H173        2.7323  -14.3764  -37.2199 H         1 UNK         0.0600 
    174 H174        2.2528  -12.5053  -40.1969 H         1 UNK         0.3000 
    175 H175        1.2421  -11.6565  -42.0692 H         1 UNK         0.0600 
    176 H176        3.6540  -12.2283  -42.5493 H         1 UNK         0.0600 
    177 H177        2.8675  -11.4546  -43.9166 H         1 UNK         0.0600 
    178 H178        3.1393  -13.1935  -43.9275 H         1 UNK         0.0600 
    179 H179        0.8427  -12.7705  -44.6273 H         1 UNK         0.3000 
    180 H180       -2.6311  -13.5065  -44.3628 H         1 UNK         0.0600 
    181 H181       -2.7987  -11.7651  -46.1614 H         1 UNK         0.0600 
    182 H182       -1.2969  -11.0391  -45.5869 H         1 UNK         0.0600 
    183 H183       -2.7187  -11.0589  -44.5543 H         1 UNK         0.0600 
    184 H184       -0.2400  -13.3571  -46.1714 H         1 UNK         0.3000 
    185 H185       -0.1286  -16.5006  -46.8843 H         1 UNK         0.0600 
    186 H186       -1.0586  -16.6497  -49.2078 H         1 UNK         0.0600 
    187 H187       -2.2764  -16.9686  -47.9869 H         1 UNK         0.0600 
    188 H188       -2.2469  -15.4116  -48.8121 H         1 UNK         0.0600 
    189 H189       -0.1420  -13.9446  -48.4517 H         1 UNK         0.3000 
    190 H190       -1.6864  -21.4708  -44.8487 H         1 UNK         0.3000 
    191 H191       -3.9830  -22.7171  -45.9591 H         1 UNK         0.0600 
    192 H192       -4.7306  -22.8760  -43.5847 H         1 UNK         0.0600 
    193 H193       -4.0848  -21.2839  -43.9516 H         1 UNK         0.0600 
    194 H194       -3.1178  -22.4381  -43.0359 H         1 UNK         0.0600 
    195 H195       -1.2516  -24.0819  -44.0615 H         1 UNK         0.3000 
    196 H196       -2.1906  -26.7564  -43.9460 H         1 UNK         0.0600 
    197 H197        0.6730  -25.6683  -43.8717 H         1 UNK         0.0600 
    198 H198       -0.3910  -25.8860  -42.4839 H         1 UNK         0.0600 
    199 H199        0.1827  -27.2843  -43.3796 H         1 UNK         0.0600 
    200 H200       -0.4201  -25.0214  -46.4745 H         1 UNK         0.3000 
    201 H201        0.1032  -27.3259  -48.1506 H         1 UNK         0.0600 
    202 H202        0.9195  -25.6144  -49.7390 H         1 UNK         0.0600 
    203 H203        0.2445  -24.3279  -48.7473 H         1 UNK         0.0600 
    204 H204        1.5684  -25.3159  -48.1346 H         1 UNK         0.0600 
    205 H205       -2.4080  -27.7005  -47.5827 H         1 UNK         0.3000 
    206 H206       -4.4380  -28.1932  -48.3316 H         1 UNK         0.0600 
    207 H207       -3.1291  -29.3157  -50.1293 H         1 UNK         0.0600 
    208 H208       -4.6854  -28.7640  -50.7261 H         1 UNK         0.0600 
    209 H209       -3.2280  -27.8665  -51.1282 H         1 UNK         0.0600 
    210 H210       -4.4500  -25.7399  -47.3898 H         1 UNK         0.3000 
    211 H211       -5.7156  -24.0077  -47.0826 H         1 UNK         0.0600 
    212 H212       -7.6539  -25.3464  -47.8624 H         1 UNK         0.0600 
    213 H213       -7.3981  -24.7842  -49.5146 H         1 UNK         0.0600 
    214 H214       -7.8387  -23.6443  -48.2555 H         1 UNK         0.0600 
    215 H215       -4.8119  -24.3046  -50.4775 H         1 UNK         0.3000 
    216 H216       -3.9847  -22.9610  -52.0393 H         1 UNK         0.0600 
    217 H217       -2.2689  -21.3363  -51.3950 H         1 UNK         0.0600 
    218 H218       -2.1092  -22.7811  -50.4105 H         1 UNK         0.0600 
    219 H219       -2.8287  -21.3256  -49.7240 H         1 UNK         0.0600 
    220 H220       -6.2529  -22.4961  -52.5363 H         1 UNK         0.3000 
    221 H221       -7.5031  -19.9982  -51.8925 H         1 UNK         0.0600 
    222 H222       -8.7710  -21.9790  -52.7189 H         1 UNK         0.0600 
    223 H223       -7.9142  -21.9127  -54.2596 H         1 UNK         0.0600 
    224 H224       -9.0063  -20.6129  -53.7975 H         1 UNK         0.0600 
    225 H225       -7.3841  -18.0272  -52.8940 H         1 UNK         0.3000 
    226 H226       -5.0321  -17.2331  -54.0984 H         1 UNK         0.0600 
    227 H227       -6.5181  -15.7338  -52.8153 H         1 UNK         0.0600 
    228 H228       -6.2030  -15.0404  -54.3968 H         1 UNK         0.0600 
    229 H229       -7.7488  -15.8180  -54.0771 H         1 UNK         0.0600 
    230 H230       -7.8743  -18.4241  -55.7516 H         1 UNK         0.3000 
    231 H231       -7.2344  -17.4329  -58.3902 H         1 UNK         0.0600 
    232 H232       -9.0407  -19.7334  -57.4677 H         1 UNK         0.0600 
    233 H233       -9.0065  -19.0470  -59.0874 H         1 UNK         0.0600 
    234 H234       -9.5455  -18.0642  -57.7356 H         1 UNK         0.0600 
    235 H235       -6.1184  -20.1736  -56.4681 H         1 UNK         0.3000 
    236 H236       -5.0129  -21.6125  -58.8107 H         1 UNK         0.0600 
    237 H237       -6.1597  -22.9149  -57.0146 H         1 UNK         0.0600 
    238 H238       -4.4605  -23.3438  -57.1417 H         1 UNK         0.0600 
    239 H239       -5.0044  -22.3120  -55.8271 H         1 UNK         0.0600 
    240 H240       -4.0418  -19.5550  -56.0986 H         1 UNK         0.3000 
    241 H241       -1.2590  -19.9977  -56.1547 H         1 UNK         0.0600 
    242 H242        0.5396  -18.8478  -57.1176 H         1 UNK         0.3800 
    243 H243        0.2987  -17.8182  -58.4995 H         1 UNK         0.3800 
    244 H244       -2.7600  -17.4758  -55.2801 H         1 UNK         0.0800 
    245 H245       -1.0871  -17.8322  -54.9117 H         1 UNK         0.0800 
    246 H246       -3.0513  -18.2238  -51.4965 H         1 UNK         0.0800 
    247 H247       -2.8158  -16.9942  -52.7097 H         1 UNK         0.0800 
@<TRIPOS>BOND
     1    1    2 1    
     2    1  127 1    
     3    1  128 1    
     4    1  129 1    
     5    2    3 2    
     6    2    4 am   BACKBONE|DICT|INTERRES
     7    4    5 1    
     8    4  130 1    
     9    5    6 1    
    10    5   65 1    
    11    5  131 1    
    12    6    7 1    
    13    6  132 1    
    14    6  133 1    
    15    7    8 1    
    16    8    9 1    
    17    8  134 1    
    18    8  135 1    
    19    9   10 ar   
    20    9   14 ar   
    21   10   11 ar   
    22   10  136 1    
    23   11   12 ar   
    24   11  126 1    
    25   12   13 ar   
    26   12  137 1    
    27   13   14 ar   
    28   13   15 1    
    29   14  138 1    
    30   15   16 1    
    31   15  139 1    
    32   15  140 1    
    33   16   17 1    
    34   17   18 1    
    35   17  141 1    
    36   17  142 1    
    37   18   19 1    
    38   18   67 1    
    39   18  143 1    
    40   19   20 am   BACKBONE|DICT|INTERRES
    41   19  144 1    
    42   20   21 2    
    43   20   22 1    
    44   22   23 1    
    45   22   24 1    
    46   22  145 1    
    47   23  146 1    
    48   23  147 1    
    49   23  148 1    
    50   24   25 am   BACKBONE|DICT|INTERRES
    51   24  149 1    
    52   25   26 2    
    53   25   27 1    
    54   27   28 1    
    55   27   29 1    
    56   27  150 1    
    57   28  151 1    
    58   28  152 1    
    59   28  153 1    
    60   29   30 am   BACKBONE|DICT|INTERRES
    61   29  154 1    
    62   30   31 2    
    63   30   32 1    
    64   32   33 1    
    65   32   34 1    
    66   32  155 1    
    67   33  156 1    
    68   33  157 1    
    69   33  158 1    
    70   34   35 am   BACKBONE|DICT|INTERRES
    71   34  159 1    
    72   35   36 2    
    73   35   37 1    
    74   37   38 1    
    75   37   39 1    
    76   37  160 1    
    77   38  161 1    
    78   38  162 1    
    79   38  163 1    
    80   39   40 am   BACKBONE|DICT|INTERRES
    81   39  164 1    
    82   40   41 2    
    83   40   42 1    
    84   42   43 1    
    85   42   44 1    
    86   42  165 1    
    87   43  166 1    
    88   43  167 1    
    89   43  168 1    
    90   44   45 am   BACKBONE|DICT|INTERRES
    91   44  169 1    
    92   45   46 2    
    93   45   47 1    
    94   47   48 1    
    95   47   49 1    
    96   47  170 1    
    97   48  171 1    
    98   48  172 1    
    99   48  173 1    
   100   49   50 am   BACKBONE|DICT|INTERRES
   101   49  174 1    
   102   50   51 2    
   103   50   52 1    
   104   52   53 1    
   105   52   54 1    
   106   52  175 1    
   107   53  176 1    
   108   53  177 1    
   109   53  178 1    
   110   54   55 am   BACKBONE|DICT|INTERRES
   111   54  179 1    
   112   55   56 2    
   113   55   57 1    
   114   57   58 1    
   115   57   59 1    
   116   57  180 1    
   117   58  181 1    
   118   58  182 1    
   119   58  183 1    
   120   59   60 am   BACKBONE|DICT|INTERRES
   121   59  184 1    
   122   60   61 2    
   123   60   62 1    
   124   62   63 1    
   125   62   64 1    
   126   62  185 1    
   127   63  186 1    
   128   63  187 1    
   129   63  188 1    
   130   64   65 am   BACKBONE|DICT|INTERRES
   131   64  189 1    
   132   65   66 2    
   133   67   68 2    
   134   67   69 am   BACKBONE|DICT|INTERRES
   135   69   70 1    
   136   69  190 1    
   137   70   71 1    
   138   70   72 1    
   139   70  191 1    
   140   71  192 1    
   141   71  193 1    
   142   71  194 1    
   143   72   73 2    
   144   72   74 am   BACKBONE|DICT|INTERRES
   145   74   75 1    
   146   74  195 1    
   147   75   76 1    
   148   75   77 1    
   149   75  196 1    
   150   76  197 1    
   151   76  198 1    
   152   76  199 1    
   153   77   78 2    
   154   77   79 am   BACKBONE|DICT|INTERRES
   155   79   80 1    
   156   79  200 1    
   157   80   81 1    
   158   80   82 1    
   159   80  201 1    
   160   81  202 1    
   161   81  203 1    
   162   81  204 1    
   163   82   83 2    
   164   82   84 am   BACKBONE|DICT|INTERRES
   165   84   85 1    
   166   84  205 1    
   167   85   86 1    
   168   85   87 1    
   169   85  206 1    
   170   86  207 1    
   171   86  208 1    
   172   86  209 1    
   173   87   88 2    
   174   87   89 am   BACKBONE|DICT|INTERRES
   175   89   90 1    
   176   89  210 1    
   177   90   91 1    
   178   90   92 1    
   179   90  211 1    
   180   91  212 1    
   181   91  213 1    
   182   91  214 1    
   183   92   93 2    
   184   92   94 am   BACKBONE|DICT|INTERRES
   185   94   95 1    
   186   94  215 1    
   187   95   96 1    
   188   95   97 1    
   189   95  216 1    
   190   96  217 1    
   191   96  218 1    
   192   96  219 1    
   193   97   98 2    
   194   97   99 am   BACKBONE|DICT|INTERRES
   195   99  100 1    
   196   99  220 1    
   197  100  101 1    
   198  100  102 1    
   199  100  221 1    
   200  101  222 1    
   201  101  223 1    
   202  101  224 1    
   203  102  103 2    
   204  102  104 am   BACKBONE|DICT|INTERRES
   205  104  105 1    
   206  104  225 1    
   207  105  106 1    
   208  105  107 1    
   209  105  226 1    
   210  106  227 1    
   211  106  228 1    
   212  106  229 1    
   213  107  108 2    
   214  107  109 am   BACKBONE|DICT|INTERRES
   215  109  110 1    
   216  109  230 1    
   217  110  111 1    
   218  110  112 1    
   219  110  231 1    
   220  111  232 1    
   221  111  233 1    
   222  111  234 1    
   223  112  113 2    
   224  112  114 am   BACKBONE|DICT|INTERRES
   225  114  115 1    
   226  114  235 1    
   227  115  116 1    
   228  115  117 1    
   229  115  236 1    
   230  116  237 1    
   231  116  238 1    
   232  116  239 1    
   233  117  118 2    
   234  117  119 am   BACKBONE|DICT|INTERRES
   235  119  120 1    
   236  119  240 1    
   237  120  121 1    
   238  120  124 1    
   239  120  241 1    
   240  121  122 am   BACKBONE|DICT|INTERRES
   241  121  123 2    
   242  122  242 1    
   243  122  243 1    
   244  124  125 1    
   245  124  244 1    
   246  124  245 1    
   247  125  126 1    
   248  126  246 1    
   249  126  247 1    
@<TRIPOS>SUBSTRUCTURE
     1 UNK         1 GROUP             0       ****    0 ROOT    
