@<TRIPOS>MOLECULE
3R540
247   249    1
SMALL
USER_CHARGES


@<TRIPOS>ATOM
      1 CA          2.7874  -13.4277  -46.9027 C.3       0 UNK        -0.1800 
      2 C           1.2956  -13.6815  -47.0525 C.2       0 UNK         0.5000 
      3 O           0.5080  -13.2077  -46.2337 O.2       0 UNK        -0.5000 
      4 N           0.8967  -14.4198  -48.0976 N.am      1 UNK        -0.5000 
      5 CA         -0.5018  -14.7608  -48.3943 C.3       1 UNK         0.1400 
      6 C6         -0.6311  -15.7904  -49.5406 C.3       23 UNK        -0.0398 
      7 S7          0.0255  -17.4351  -49.1032 S.3       23 UNK        -0.2404 
      8 C8          1.6078  -17.4631  -50.0048 C.3       23 UNK        -0.0205 
      9 C9          2.1595  -18.8766  -50.1213 C.ar      23 UNK        -0.0193 
     10 C10         1.5990  -19.7548  -51.0494 C.ar      23 UNK        -0.1150 
     11 C11         2.0840  -21.0562  -51.1900 C.ar      23 UNK        -0.0193 
     12 C12         3.1692  -21.4697  -50.4117 C.ar      23 UNK        -0.1150 
     13 C13         3.7494  -20.6003  -49.4799 C.ar      23 UNK        -0.0193 
     14 C14         3.2313  -19.3070  -49.3321 C.ar      23 UNK        -0.1150 
     15 C15         4.9675  -21.0347  -48.6694 C.3       23 UNK        -0.0205 
     16 S16         4.7179  -22.5756  -47.7232 S.3       23 UNK        -0.2404 
     17 C17         3.5116  -22.0428  -46.4629 C.3       23 UNK        -0.0398 
     18 CA          2.4216  -23.0974  -46.1452 C.3       11 UNK         0.1400 
     19 N           1.6114  -22.6852  -44.9932 N.am      11 UNK        -0.5000 
     20 C           0.7015  -23.4509  -44.3747 C.2       10 UNK         0.5000 
     21 O           0.5054  -24.6328  -44.6533 O.2       10 UNK        -0.5000 
     22 CA         -0.1607  -22.7786  -43.2901 C.3       10 UNK         0.1400 
     23 CB          0.5735  -22.7683  -41.9412 C.3       10 UNK        -0.1800 
     24 N          -0.5569  -21.4157  -43.6489 N.am      10 UNK        -0.5000 
     25 C          -1.4020  -21.1024  -44.6426 C.2       9 UNK         0.5000 
     26 O          -2.0048  -21.9346  -45.3181 O.2       9 UNK        -0.5000 
     27 CA         -1.5728  -19.6082  -44.9736 C.3       9 UNK         0.1400 
     28 CB         -2.6322  -18.9590  -44.0718 C.3       9 UNK        -0.1800 
     29 N          -0.3214  -18.8566  -44.8826 N.am      9 UNK        -0.5000 
     30 C           0.7552  -19.0856  -45.6472 C.2       8 UNK         0.5000 
     31 O           0.7890  -19.9319  -46.5367 O.2       8 UNK        -0.5000 
     32 CA          2.0295  -18.2949  -45.3119 C.3       8 UNK         0.1400 
     33 CB          1.9802  -16.8791  -45.8942 C.3       8 UNK        -0.1800 
     34 N           2.2506  -18.2225  -43.8700 N.am      8 UNK        -0.5000 
     35 C           2.6373  -19.2605  -43.1169 C.2       7 UNK         0.5000 
     36 O           2.8755  -20.3806  -43.5684 O.2       7 UNK        -0.5000 
     37 CA          2.7371  -19.0107  -41.6014 C.3       7 UNK         0.1400 
     38 CB          4.0998  -18.4003  -41.2418 C.3       7 UNK        -0.1800 
     39 N           1.6688  -18.1416  -41.1041 N.am      7 UNK        -0.5000 
     40 C           0.3734  -18.4838  -41.0755 C.2       6 UNK         0.5000 
     41 O          -0.0534  -19.5756  -41.4481 O.2       6 UNK        -0.5000 
     42 CA         -0.6161  -17.4095  -40.5919 C.3       6 UNK         0.1400 
     43 CB         -0.7023  -17.4047  -39.0583 C.3       6 UNK        -0.1800 
     44 N          -0.2994  -16.0595  -41.0672 N.am      6 UNK        -0.5000 
     45 C          -0.2618  -15.6958  -42.3557 C.2       5 UNK         0.5000 
     46 O          -0.3910  -16.4835  -43.2952 O.2       5 UNK        -0.5000 
     47 CA         -0.0144  -14.2055  -42.6458 C.3       5 UNK         0.1400 
     48 CB          1.4448  -13.9743  -43.0656 C.3       5 UNK        -0.1800 
     49 N          -0.9024  -13.7148  -43.6987 N.am      5 UNK        -0.5000 
     50 C          -2.2352  -13.6119  -43.5842 C.2       4 UNK         0.5000 
     51 O          -2.8509  -13.8732  -42.5483 O.2       4 UNK        -0.5000 
     52 CA         -2.9967  -13.1206  -44.8338 C.3       4 UNK         0.1400 
     53 CB         -4.4536  -12.7065  -44.5410 C.3       4 UNK        -0.1800 
     54 N          -2.2847  -12.0561  -45.5447 N.am      4 UNK        -0.5000 
     55 C          -1.9225  -10.8501  -45.0787 C.2       3 UNK         0.5000 
     56 O          -2.2362  -10.4199  -43.9681 O.2       3 UNK        -0.5000 
     57 CA         -1.0381   -9.9802  -45.9963 C.3       3 UNK         0.1400 
     58 CB          0.3470   -9.7648  -45.3631 C.3       3 UNK        -0.1800 
     59 N          -0.8534  -10.5791  -47.3193 N.am      3 UNK        -0.5000 
     60 C          -1.6412  -10.3612  -48.3808 C.2       2 UNK         0.5000 
     61 O          -2.5720   -9.5554  -48.3888 O.2       2 UNK        -0.5000 
     62 CA         -1.3550  -11.2038  -49.6409 C.3       2 UNK         0.1400 
     63 CB         -0.4470  -10.4309  -50.6093 C.3       2 UNK        -0.1800 
     64 N          -0.7409  -12.5019  -49.3446 N.am      2 UNK        -0.5000 
     65 C          -1.3515  -13.5097  -48.7031 C.2       1 UNK         0.5000 
     66 O          -2.5157  -13.4583  -48.3094 O.2       1 UNK        -0.5000 
     67 C           1.5312  -23.4139  -47.3681 C.2       11 UNK         0.5000 
     68 O           1.6912  -24.4607  -47.9980 O.2       11 UNK        -0.5000 
     69 N           0.5741  -22.5216  -47.6436 N.am      12 UNK        -0.5000 
     70 CA         -0.3755  -22.6190  -48.7455 C.3       12 UNK         0.1400 
     71 CB         -0.9712  -21.2262  -48.9925 C.3       12 UNK        -0.1800 
     72 C          -1.5045  -23.6418  -48.5270 C.2       12 UNK         0.5000 
     73 O          -2.2656  -23.8764  -49.4633 O.2       12 UNK        -0.5000 
     74 N          -1.6457  -24.2084  -47.3191 N.am      13 UNK        -0.5000 
     75 CA         -2.7684  -25.0637  -46.9064 C.3       13 UNK         0.1400 
     76 CB         -2.5908  -25.4785  -45.4396 C.3       13 UNK        -0.1800 
     77 C          -2.9890  -26.3067  -47.7895 C.2       13 UNK         0.5000 
     78 O          -4.1336  -26.7124  -47.9929 O.2       13 UNK        -0.5000 
     79 N          -1.8971  -26.8510  -48.3423 N.am      14 UNK        -0.5000 
     80 CA         -1.9024  -27.9533  -49.3074 C.3       14 UNK         0.1400 
     81 CB         -0.4699  -28.4936  -49.4390 C.3       14 UNK        -0.1800 
     82 C          -2.4613  -27.5652  -50.6945 C.2       14 UNK         0.5000 
     83 O          -2.7831  -28.4550  -51.4827 O.2       14 UNK        -0.5000 
     84 N          -2.5635  -26.2592  -50.9693 N.am      15 UNK        -0.5000 
     85 CA         -3.0401  -25.6678  -52.2153 C.3       15 UNK         0.1400 
     86 CB         -1.8559  -24.9803  -52.9141 C.3       15 UNK        -0.1800 
     87 C          -4.2061  -24.6970  -51.9435 C.2       15 UNK         0.5000 
     88 O          -4.3051  -23.6637  -52.6044 O.2       15 UNK        -0.5000 
     89 N          -5.0687  -25.0603  -50.9819 N.am      16 UNK        -0.5000 
     90 CA         -6.3161  -24.3877  -50.5955 C.3       16 UNK         0.1400 
     91 CB         -7.3073  -24.3168  -51.7774 C.3       16 UNK        -0.1800 
     92 C          -6.1352  -23.0380  -49.8653 C.2       16 UNK         0.5000 
     93 O          -7.0338  -22.1953  -49.9103 O.2       16 UNK        -0.5000 
     94 N          -5.0115  -22.8884  -49.1490 N.am      17 UNK        -0.5000 
     95 CA         -4.6681  -21.7828  -48.2451 C.3       17 UNK         0.1400 
     96 CB         -5.6970  -21.6641  -47.0996 C.3       17 UNK        -0.1800 
     97 C          -4.4254  -20.4446  -48.9708 C.2       17 UNK         0.5000 
     98 O          -4.3969  -20.3927  -50.2019 O.2       17 UNK        -0.5000 
     99 N          -4.2230  -19.3744  -48.1886 N.am      18 UNK        -0.5000 
    100 CA        -3.8781  -18.0257  -48.6573 C.3       18 UNK         0.1400 
    101 CB        -3.5396  -17.1421  -47.4448 C.3       18 UNK        -0.1800 
    102 C         -4.9450  -17.3504  -49.5448 C.2       18 UNK         0.5000 
    103 O         -4.6296  -16.3765  -50.2273 O.2       18 UNK        -0.5000 
    104 N         -6.1748  -17.8828  -49.5410 N.am      19 UNK        -0.5000 
    105 CA        -7.2553  -17.4910  -50.4460 C.3       19 UNK         0.1400 
    106 CB        -8.5667  -18.1274  -49.9604 C.3       19 UNK        -0.1800 
    107 C         -6.9791  -17.8787  -51.9136 C.2       19 UNK         0.5000 
    108 O         -7.4193  -17.1658  -52.8163 O.2       19 UNK        -0.5000 
    109 N         -6.2583  -18.9887  -52.1217 N.am      20 UNK        -0.5000 
    110 CA        -5.8403  -19.4840  -53.4330 C.3       20 UNK         0.1400 
    111 CB        -6.1411  -20.9853  -53.5104 C.3       20 UNK        -0.1800 
    112 C         -4.3465  -19.2135  -53.6802 C.2       20 UNK         0.5000 
    113 O         -3.9727  -18.8711  -54.8037 O.2       20 UNK        -0.5000 
    114 N         -3.5270  -19.3582  -52.6263 N.am      21 UNK        -0.5000 
    115 CA        -2.1005  -19.0277  -52.5439 C.3       21 UNK         0.1400 
    116 CB        -1.9227  -17.4970  -52.5036 C.3       21 UNK        -0.1800 
    117 C         -1.2386  -19.6905  -53.6387 C.2       21 UNK         0.5000 
    118 O         -0.3313  -19.0456  -54.1663 O.2       21 UNK        -0.5000 
    119 N         -1.5619  -20.9508  -53.9717 N.am      22 UNK        -0.5000 
    120 CA        -0.9748  -21.7570  -55.0629 C.3       22 UNK         0.1400 
    121 C         -0.9515  -21.0891  -56.4760 C.2       22 UNK         0.5000 
    122 N         -1.8203  -20.1241  -56.7596 N.am      22 UNK        -0.7600 
    123 O         -0.1750  -21.4746  -57.3460 O.2       22 UNK        -0.5000 
    124 C124        0.3266  -22.5345  -54.6750 C.3       23 UNK        -0.0398 
    125 S125        1.6776  -21.5820  -53.8946 S.3       23 UNK        -0.2404 
    126 C126        1.3961  -22.0166  -52.1480 C.3       23 UNK        -0.0205 
    127 H127        3.1226  -13.7358  -45.9128 H         1 UNK         0.0600 
    128 H128        2.9983  -12.3647  -47.0183 H         1 UNK         0.0600 
    129 H129        3.3681  -13.9762  -47.6445 H         1 UNK         0.0600 
    130 H130        1.5860  -14.7864  -48.7367 H         1 UNK         0.3000 
    131 H131       -0.9216  -15.2094  -47.4907 H         1 UNK         0.0600 
    132 H132       -0.1538  -15.4228  -50.4503 H         1 UNK         0.0800 
    133 H133       -1.6826  -15.9354  -49.7939 H         1 UNK         0.0800 
    134 H134        1.4681  -17.0583  -51.0082 H         1 UNK         0.0800 
    135 H135        2.3248  -16.8121  -49.5037 H         1 UNK         0.0800 
    136 H136        0.7689  -19.4249  -51.6539 H         1 UNK         0.1150 
    137 H137        3.5593  -22.4717  -50.5222 H         1 UNK         0.1150 
    138 H138        3.6733  -18.6274  -48.6174 H         1 UNK         0.1150 
    139 H139        5.8013  -21.1824  -49.3568 H         1 UNK         0.0800 
    140 H140        5.2776  -20.2469  -47.9809 H         1 UNK         0.0800 
    141 H141        3.0549  -21.1044  -46.7748 H         1 UNK         0.0800 
    142 H142        4.0746  -21.8132  -45.5574 H         1 UNK         0.0800 
    143 H143        2.9266  -24.0237  -45.8631 H         1 UNK         0.0600 
    144 H144        1.7509  -21.7370  -44.6623 H         1 UNK         0.3000 
    145 H145       -1.0696  -23.3721  -43.1732 H         1 UNK         0.0600 
    146 H146       -0.0634  -22.3728  -41.1498 H         1 UNK         0.0600 
    147 H147        0.8670  -23.7770  -41.6482 H         1 UNK         0.0600 
    148 H148        1.4775  -22.1602  -41.9779 H         1 UNK         0.0600 
    149 H149       -0.1670  -20.6666  -43.0852 H         1 UNK         0.3000 
    150 H150       -1.9184  -19.5443  -46.0067 H         1 UNK         0.0600 
    151 H151       -3.5890  -19.4752  -44.1583 H         1 UNK         0.0600 
    152 H152       -2.7969  -17.9161  -44.3436 H         1 UNK         0.0600 
    153 H153       -2.3366  -18.9867  -43.0228 H         1 UNK         0.0600 
    154 H154       -0.2850  -18.1060  -44.1965 H         1 UNK         0.3000 
    155 H155        2.8786  -18.8130  -45.7627 H         1 UNK         0.0600 
    156 H156        1.0900  -16.3381  -45.5724 H         1 UNK         0.0600 
    157 H157        1.9685  -16.9149  -46.9822 H         1 UNK         0.0600 
    158 H158        2.8554  -16.2995  -45.6013 H         1 UNK         0.0600 
    159 H159        2.0121  -17.3541  -43.4152 H         1 UNK         0.3000 
    160 H160        2.6522  -19.9766  -41.0989 H         1 UNK         0.0600 
    161 H161        4.2355  -17.4179  -41.6959 H         1 UNK         0.0600 
    162 H162        4.9153  -19.0373  -41.5871 H         1 UNK         0.0600 
    163 H163        4.2099  -18.2900  -40.1629 H         1 UNK         0.0600 
    164 H164        1.9341  -17.2227  -40.7818 H         1 UNK         0.3000 
    165 H165       -1.6003  -17.6725  -40.9848 H         1 UNK         0.0600 
    166 H166       -1.4743  -16.7190  -38.7087 H         1 UNK         0.0600 
    167 H167       -0.9544  -18.3958  -38.6785 H         1 UNK         0.0600 
    168 H168        0.2428  -17.1086  -38.6014 H         1 UNK         0.0600 
    169 H169       -0.1748  -15.3532  -40.3563 H         1 UNK         0.3000 
    170 H170       -0.2115  -13.6258  -41.7417 H         1 UNK         0.0600 
    171 H171        2.1330  -14.2782  -42.2761 H         1 UNK         0.0600 
    172 H172        1.6998  -14.5421  -43.9602 H         1 UNK         0.0600 
    173 H173        1.6330  -12.9211  -43.2756 H         1 UNK         0.0600 
    174 H174       -0.4678  -13.4977  -44.5917 H         1 UNK         0.3000 
    175 H175       -3.0296  -13.9707  -45.5169 H         1 UNK         0.0600 
    176 H176       -4.5073  -11.8918  -43.8185 H         1 UNK         0.0600 
    177 H177       -4.9603  -12.3832  -45.4503 H         1 UNK         0.0600 
    178 H178       -5.0228  -13.5428  -44.1336 H         1 UNK         0.0600 
    179 H179       -1.9800  -12.3023  -46.4769 H         1 UNK         0.3000 
    180 H180       -1.5226   -9.0066  -46.0950 H         1 UNK         0.0600 
    181 H181        0.8693  -10.7088  -45.2027 H         1 UNK         0.0600 
    182 H182        0.2624   -9.2697  -44.3950 H         1 UNK         0.0600 
    183 H183        0.9758   -9.1362  -45.9938 H         1 UNK         0.0600 
    184 H184       -0.1319  -11.2841  -47.3859 H         1 UNK         0.3000 
    185 H185       -2.3099  -11.3866  -50.1383 H         1 UNK         0.0600 
    186 H186       -0.8871   -9.4682  -50.8731 H         1 UNK         0.0600 
    187 H187        0.5333  -10.2350  -50.1730 H         1 UNK         0.0600 
    188 H188       -0.2984  -10.9833  -51.5373 H         1 UNK         0.0600 
    189 H189        0.2237  -12.6192  -49.6191 H         1 UNK         0.3000 
    190 H190        0.5468  -21.6562  -47.1070 H         1 UNK         0.3000 
    191 H191        0.1692  -22.9254  -49.6395 H         1 UNK         0.0600 
    192 H192       -0.1902  -20.4885  -49.1626 H         1 UNK         0.0600 
    193 H193       -1.6208  -21.2233  -49.8682 H         1 UNK         0.0600 
    194 H194       -1.5529  -20.8836  -48.1370 H         1 UNK         0.0600 
    195 H195       -0.9990  -23.9366  -46.5913 H         1 UNK         0.3000 
    196 H196       -3.6737  -24.4579  -46.9725 H         1 UNK         0.0600 
    197 H197       -3.4373  -26.0746  -45.0962 H         1 UNK         0.0600 
    198 H198       -2.5244  -24.6076  -44.7882 H         1 UNK         0.0600 
    199 H199       -1.6901  -26.0766  -45.2982 H         1 UNK         0.0600 
    200 H200       -0.9998  -26.4386  -48.1287 H         1 UNK         0.3000 
    201 H201       -2.5353  -28.7506  -48.9123 H         1 UNK         0.0600 
    202 H202       -0.0884  -28.8392  -48.4781 H         1 UNK         0.0600 
    203 H203        0.2130  -27.7321  -49.8181 H         1 UNK         0.0600 
    204 H204       -0.4314  -29.3405  -50.1255 H         1 UNK         0.0600 
    205 H205       -2.3187  -25.5817  -50.2521 H         1 UNK         0.3000 
    206 H206       -3.4285  -26.4407  -52.8811 H         1 UNK         0.0600 
    207 H207       -1.0355  -25.6784  -53.0807 H         1 UNK         0.0600 
    208 H208       -2.1514  -24.5895  -53.8880 H         1 UNK         0.0600 
    209 H209       -1.4754  -24.1485  -52.3196 H         1 UNK         0.0600 
    210 H210       -4.8625  -25.9102  -50.4742 H         1 UNK         0.3000 
    211 H211       -6.7691  -25.0440  -49.8512 H         1 UNK         0.0600 
    212 H212       -6.9619  -23.6426  -52.5601 H         1 UNK         0.0600 
    213 H213       -8.2846  -23.9603  -51.4502 H         1 UNK         0.0600 
    214 H214       -7.4573  -25.2993  -52.2246 H         1 UNK         0.0600 
    215 H215       -4.2738  -23.5693  -49.2896 H         1 UNK         0.3000 
    216 H216       -3.7178  -22.0513  -47.7872 H         1 UNK         0.0600 
    217 H217       -5.3311  -21.0200  -46.2997 H         1 UNK         0.0600 
    218 H218       -5.8978  -22.6374  -46.6515 H         1 UNK         0.0600 
    219 H219       -6.6467  -21.2531  -47.4437 H         1 UNK         0.0600 
    220 H220       -4.2836  -19.4910  -47.1883 H         1 UNK         0.3000 
    221 H221       -2.9799  -18.1162  -49.2713 H         1 UNK         0.0600 
    222 H222       -4.3490  -17.1310  -46.7141 H         1 UNK         0.0600 
    223 H223       -2.6344  -17.4864  -46.9459 H         1 UNK         0.0600 
    224 H224       -3.3604  -16.1094  -47.7460 H         1 UNK         0.0600 
    225 H225       -6.3491  -18.6771  -48.9439 H         1 UNK         0.3000 
    226 H226       -7.3624  -16.4051  -50.4016 H         1 UNK         0.0600 
    227 H227       -8.8107  -17.8057  -48.9478 H         1 UNK         0.0600 
    228 H228       -9.4009  -17.8401  -50.6018 H         1 UNK         0.0600 
    229 H229       -8.5101  -19.2170  -49.9633 H         1 UNK         0.0600 
    230 H230       -5.9107  -19.5014  -51.3193 H         1 UNK         0.3000 
    231 H231       -6.4002  -18.9883  -54.2287 H         1 UNK         0.0600 
    232 H232       -7.2144  -21.1725  -53.4788 H         1 UNK         0.0600 
    233 H233       -5.6884  -21.5169  -52.6742 H         1 UNK         0.0600 
    234 H234       -5.7573  -21.4237  -54.4325 H         1 UNK         0.0600 
    235 H235       -3.9254  -19.7226  -51.7618 H         1 UNK         0.3000 
    236 H236       -1.7489  -19.4259  -51.5914 H         1 UNK         0.0600 
    237 H237       -0.8863  -17.2269  -52.2987 H         1 UNK         0.0600 
    238 H238       -2.2037  -17.0342  -53.4501 H         1 UNK         0.0600 
    239 H239       -2.5344  -17.0508  -51.7221 H         1 UNK         0.0600 
    240 H240       -2.3465  -21.3730  -53.4952 H         1 UNK         0.3000 
    241 H241       -1.7208  -22.5378  -55.2134 H         1 UNK         0.0600 
    242 H242       -1.8112  -19.7055  -57.6760 H         1 UNK         0.3800 
    243 H243       -2.4638  -19.7779  -56.0578 H         1 UNK         0.3800 
    244 H244        0.0626  -23.3433  -53.9968 H         1 UNK         0.0800 
    245 H245        0.7422  -23.0472  -55.5434 H         1 UNK         0.0800 
    246 H246        0.3252  -22.0003  -51.9405 H         1 UNK         0.0800 
    247 H247        1.7282  -23.0414  -51.9748 H         1 UNK         0.0800 
@<TRIPOS>BOND
     1    1    2 1    
     2    1  127 1    
     3    1  128 1    
     4    1  129 1    
     5    2    3 2    
     6    2    4 am   BACKBONE|DICT|INTERRES
     7    4    5 1    
     8    4  130 1    
     9    5    6 1    
    10    5   65 1    
    11    5  131 1    
    12    6    7 1    
    13    6  132 1    
    14    6  133 1    
    15    7    8 1    
    16    8    9 1    
    17    8  134 1    
    18    8  135 1    
    19    9   10 ar   
    20    9   14 ar   
    21   10   11 ar   
    22   10  136 1    
    23   11   12 ar   
    24   11  126 1    
    25   12   13 ar   
    26   12  137 1    
    27   13   14 ar   
    28   13   15 1    
    29   14  138 1    
    30   15   16 1    
    31   15  139 1    
    32   15  140 1    
    33   16   17 1    
    34   17   18 1    
    35   17  141 1    
    36   17  142 1    
    37   18   19 1    
    38   18   67 1    
    39   18  143 1    
    40   19   20 am   BACKBONE|DICT|INTERRES
    41   19  144 1    
    42   20   21 2    
    43   20   22 1    
    44   22   23 1    
    45   22   24 1    
    46   22  145 1    
    47   23  146 1    
    48   23  147 1    
    49   23  148 1    
    50   24   25 am   BACKBONE|DICT|INTERRES
    51   24  149 1    
    52   25   26 2    
    53   25   27 1    
    54   27   28 1    
    55   27   29 1    
    56   27  150 1    
    57   28  151 1    
    58   28  152 1    
    59   28  153 1    
    60   29   30 am   BACKBONE|DICT|INTERRES
    61   29  154 1    
    62   30   31 2    
    63   30   32 1    
    64   32   33 1    
    65   32   34 1    
    66   32  155 1    
    67   33  156 1    
    68   33  157 1    
    69   33  158 1    
    70   34   35 am   BACKBONE|DICT|INTERRES
    71   34  159 1    
    72   35   36 2    
    73   35   37 1    
    74   37   38 1    
    75   37   39 1    
    76   37  160 1    
    77   38  161 1    
    78   38  162 1    
    79   38  163 1    
    80   39   40 am   BACKBONE|DICT|INTERRES
    81   39  164 1    
    82   40   41 2    
    83   40   42 1    
    84   42   43 1    
    85   42   44 1    
    86   42  165 1    
    87   43  166 1    
    88   43  167 1    
    89   43  168 1    
    90   44   45 am   BACKBONE|DICT|INTERRES
    91   44  169 1    
    92   45   46 2    
    93   45   47 1    
    94   47   48 1    
    95   47   49 1    
    96   47  170 1    
    97   48  171 1    
    98   48  172 1    
    99   48  173 1    
   100   49   50 am   BACKBONE|DICT|INTERRES
   101   49  174 1    
   102   50   51 2    
   103   50   52 1    
   104   52   53 1    
   105   52   54 1    
   106   52  175 1    
   107   53  176 1    
   108   53  177 1    
   109   53  178 1    
   110   54   55 am   BACKBONE|DICT|INTERRES
   111   54  179 1    
   112   55   56 2    
   113   55   57 1    
   114   57   58 1    
   115   57   59 1    
   116   57  180 1    
   117   58  181 1    
   118   58  182 1    
   119   58  183 1    
   120   59   60 am   BACKBONE|DICT|INTERRES
   121   59  184 1    
   122   60   61 2    
   123   60   62 1    
   124   62   63 1    
   125   62   64 1    
   126   62  185 1    
   127   63  186 1    
   128   63  187 1    
   129   63  188 1    
   130   64   65 am   BACKBONE|DICT|INTERRES
   131   64  189 1    
   132   65   66 2    
   133   67   68 2    
   134   67   69 am   BACKBONE|DICT|INTERRES
   135   69   70 1    
   136   69  190 1    
   137   70   71 1    
   138   70   72 1    
   139   70  191 1    
   140   71  192 1    
   141   71  193 1    
   142   71  194 1    
   143   72   73 2    
   144   72   74 am   BACKBONE|DICT|INTERRES
   145   74   75 1    
   146   74  195 1    
   147   75   76 1    
   148   75   77 1    
   149   75  196 1    
   150   76  197 1    
   151   76  198 1    
   152   76  199 1    
   153   77   78 2    
   154   77   79 am   BACKBONE|DICT|INTERRES
   155   79   80 1    
   156   79  200 1    
   157   80   81 1    
   158   80   82 1    
   159   80  201 1    
   160   81  202 1    
   161   81  203 1    
   162   81  204 1    
   163   82   83 2    
   164   82   84 am   BACKBONE|DICT|INTERRES
   165   84   85 1    
   166   84  205 1    
   167   85   86 1    
   168   85   87 1    
   169   85  206 1    
   170   86  207 1    
   171   86  208 1    
   172   86  209 1    
   173   87   88 2    
   174   87   89 am   BACKBONE|DICT|INTERRES
   175   89   90 1    
   176   89  210 1    
   177   90   91 1    
   178   90   92 1    
   179   90  211 1    
   180   91  212 1    
   181   91  213 1    
   182   91  214 1    
   183   92   93 2    
   184   92   94 am   BACKBONE|DICT|INTERRES
   185   94   95 1    
   186   94  215 1    
   187   95   96 1    
   188   95   97 1    
   189   95  216 1    
   190   96  217 1    
   191   96  218 1    
   192   96  219 1    
   193   97   98 2    
   194   97   99 am   BACKBONE|DICT|INTERRES
   195   99  100 1    
   196   99  220 1    
   197  100  101 1    
   198  100  102 1    
   199  100  221 1    
   200  101  222 1    
   201  101  223 1    
   202  101  224 1    
   203  102  103 2    
   204  102  104 am   BACKBONE|DICT|INTERRES
   205  104  105 1    
   206  104  225 1    
   207  105  106 1    
   208  105  107 1    
   209  105  226 1    
   210  106  227 1    
   211  106  228 1    
   212  106  229 1    
   213  107  108 2    
   214  107  109 am   BACKBONE|DICT|INTERRES
   215  109  110 1    
   216  109  230 1    
   217  110  111 1    
   218  110  112 1    
   219  110  231 1    
   220  111  232 1    
   221  111  233 1    
   222  111  234 1    
   223  112  113 2    
   224  112  114 am   BACKBONE|DICT|INTERRES
   225  114  115 1    
   226  114  235 1    
   227  115  116 1    
   228  115  117 1    
   229  115  236 1    
   230  116  237 1    
   231  116  238 1    
   232  116  239 1    
   233  117  118 2    
   234  117  119 am   BACKBONE|DICT|INTERRES
   235  119  120 1    
   236  119  240 1    
   237  120  121 1    
   238  120  124 1    
   239  120  241 1    
   240  121  122 am   BACKBONE|DICT|INTERRES
   241  121  123 2    
   242  122  242 1    
   243  122  243 1    
   244  124  125 1    
   245  124  244 1    
   246  124  245 1    
   247  125  126 1    
   248  126  246 1    
   249  126  247 1    
@<TRIPOS>SUBSTRUCTURE
     1 UNK         1 GROUP             0       ****    0 ROOT    
