@<TRIPOS>MOLECULE
3R540
247   249    1
SMALL
USER_CHARGES


@<TRIPOS>ATOM
      1 CA          9.2115  -12.4846  -46.2043 C.3       0 UNK        -0.1800 
      2 C           7.9074  -13.1853  -45.8506 C.2       0 UNK         0.5000 
      3 O           7.8810  -13.9986  -44.9270 O.2       0 UNK        -0.5000 
      4 N           6.8285  -12.8736  -46.5819 N.am      1 UNK        -0.5000 
      5 CA          5.4829  -13.4287  -46.3750 C.3       1 UNK         0.1400 
      6 C6          4.5755  -13.1785  -47.6082 C.3       23 UNK        -0.0398 
      7 S7          3.5014  -14.6027  -47.9927 S.3       23 UNK        -0.2404 
      8 C8          4.4177  -15.2995  -49.4013 C.3       23 UNK        -0.0205 
      9 C9          3.8683  -16.6473  -49.8373 C.ar      23 UNK        -0.0193 
     10 C10         3.0647  -16.7540  -50.9767 C.ar      23 UNK        -0.1150 
     11 C11         2.6033  -18.0030  -51.4097 C.ar      23 UNK        -0.0193 
     12 C12         2.9680  -19.1484  -50.6946 C.ar      23 UNK        -0.1150 
     13 C13         3.7689  -19.0541  -49.5520 C.ar      23 UNK        -0.0193 
     14 C14         4.2099  -17.7995  -49.1255 C.ar      23 UNK        -0.1150 
     15 C15         4.1898  -20.3061  -48.7957 C.3       23 UNK        -0.0205 
     16 S16         2.9889  -20.7614  -47.5074 S.3       23 UNK        -0.2404 
     17 C17         1.6064  -21.3598  -48.5308 C.3       23 UNK        -0.0398 
     18 CA          0.6714  -22.3219  -47.7661 C.3       11 UNK         0.1400 
     19 N          -0.0882  -21.6505  -46.7069 N.am      11 UNK        -0.5000 
     20 C          -0.8862  -22.2728  -45.8274 C.2       10 UNK         0.5000 
     21 O          -1.0097  -23.4950  -45.7623 O.2       10 UNK        -0.5000 
     22 CA         -1.7438  -21.3822  -44.9116 C.3       10 UNK         0.1400 
     23 CB         -0.9447  -20.9104  -43.6881 C.3       10 UNK        -0.1800 
     24 N          -2.3028  -20.2334  -45.6262 N.am      10 UNK        -0.5000 
     25 C          -3.1885  -20.3322  -46.6281 C.2       9 UNK         0.5000 
     26 O          -3.6791  -21.3977  -46.9997 O.2       9 UNK        -0.5000 
     27 CA         -3.5668  -19.0380  -47.3642 C.3       9 UNK         0.1400 
     28 CB         -4.6921  -18.3009  -46.6254 C.3       9 UNK        -0.1800 
     29 N          -2.4261  -18.1422  -47.5513 N.am      9 UNK        -0.5000 
     30 C          -1.4069  -18.3701  -48.3913 C.2       8 UNK         0.5000 
     31 O          -1.3668  -19.3294  -49.1625 O.2       8 UNK        -0.5000 
     32 CA         -0.2381  -17.3632  -48.3628 C.3       8 UNK         0.1400 
     33 CB         -0.5397  -16.1393  -49.2363 C.3       8 UNK        -0.1800 
     34 N           0.0844  -16.8942  -47.0184 N.am      8 UNK        -0.5000 
     35 C           0.4697  -17.6771  -46.0038 C.2       7 UNK         0.5000 
     36 O           0.6178  -18.8943  -46.0928 O.2       7 UNK        -0.5000 
     37 CA          0.6364  -16.9864  -44.6425 C.3       7 UNK         0.1400 
     38 CB          1.9441  -16.1831  -44.5858 C.3       7 UNK        -0.1800 
     39 N          -0.4999  -16.1114  -44.3516 N.am      7 UNK        -0.5000 
     40 C          -1.7374  -16.5492  -44.0796 C.2       6 UNK         0.5000 
     41 O          -2.0398  -17.7393  -44.0033 O.2       6 UNK        -0.5000 
     42 CA         -2.8298  -15.4788  -43.9037 C.3       6 UNK         0.1400 
     43 CB         -2.8660  -14.9701  -42.4549 C.3       6 UNK        -0.1800 
     44 N          -2.6743  -14.3499  -44.8252 N.am      6 UNK        -0.5000 
     45 C          -2.8439  -14.4445  -46.1515 C.2       5 UNK         0.5000 
     46 O          -3.1317  -15.4901  -46.7302 O.2       5 UNK        -0.5000 
     47 CA         -2.6251  -13.1673  -46.9788 C.3       5 UNK         0.1400 
     48 CB         -3.8862  -12.2914  -46.9646 C.3       5 UNK        -0.1800 
     49 N          -1.4703  -12.3688  -46.5614 N.am      5 UNK        -0.5000 
     50 C          -0.1990  -12.7969  -46.5524 C.2       4 UNK         0.5000 
     51 O           0.1276  -13.9674  -46.7448 O.2       4 UNK        -0.5000 
     52 CA          0.8911  -11.7454  -46.2722 C.3       4 UNK         0.1400 
     53 CB          1.4087  -11.1875  -47.6064 C.3       4 UNK        -0.1800 
     54 N           0.3877  -10.6225  -45.4757 N.am      4 UNK        -0.5000 
     55 C           0.3069  -10.4949  -44.1414 C.2       3 UNK         0.5000 
     56 O          -0.3211   -9.5615  -43.6446 O.2       3 UNK        -0.5000 
     57 CA          1.0323  -11.4739  -43.1877 C.3       3 UNK         0.1400 
     58 CB          0.3919  -12.8695  -43.1452 C.3       3 UNK        -0.1800 
     59 N           2.4744  -11.5813  -43.4081 N.am      3 UNK        -0.5000 
     60 C           3.3611  -10.5911  -43.2579 C.2       2 UNK         0.5000 
     61 O           3.0538   -9.4404  -42.9453 O.2       2 UNK        -0.5000 
     62 CA          4.8500  -10.9375  -43.4599 C.3       2 UNK         0.1400 
     63 CB          5.4190  -11.6608  -42.2244 C.3       2 UNK        -0.1800 
     64 N           5.1776  -11.6671  -44.6924 N.am      2 UNK        -0.5000 
     65 C           4.8306  -12.9070  -45.0731 C.2       1 UNK         0.5000 
     66 O           4.0567  -13.6290  -44.4445 O.2       1 UNK        -0.5000 
     67 C          -0.2524  -23.0577  -48.7569 C.2       11 UNK         0.5000 
     68 O           0.0299  -24.2045  -49.1017 O.2       11 UNK        -0.5000 
     69 N          -1.3475  -22.4067  -49.1753 N.am      12 UNK        -0.5000 
     70 CA         -2.3603  -22.9919  -50.0553 C.3       12 UNK         0.1400 
     71 CB         -3.3519  -21.9066  -50.4878 C.3       12 UNK        -0.1800 
     72 C          -3.0843  -24.1871  -49.4080 C.2       12 UNK         0.5000 
     73 O          -3.2377  -25.2246  -50.0529 O.2       12 UNK        -0.5000 
     74 N          -3.4547  -24.0468  -48.1278 N.am      13 UNK        -0.5000 
     75 CA         -4.0482  -25.1094  -47.3168 C.3       13 UNK         0.1400 
     76 CB         -4.4998  -24.5353  -45.9661 C.3       13 UNK        -0.1800 
     77 C          -3.1004  -26.3093  -47.1233 C.2       13 UNK         0.5000 
     78 O          -3.5345  -27.4521  -47.2696 O.2       13 UNK        -0.5000 
     79 N          -1.8151  -26.0362  -46.8522 N.am      14 UNK        -0.5000 
     80 CA         -0.7515  -27.0397  -46.7374 C.3       14 UNK         0.1400 
     81 CB          0.5286  -26.3751  -46.2096 C.3       14 UNK        -0.1800 
     82 C          -0.4726  -27.7850  -48.0579 C.2       14 UNK         0.5000 
     83 O          -0.1522  -28.9735  -48.0287 O.2       14 UNK        -0.5000 
     84 N          -0.6441  -27.0901  -49.1903 N.am      15 UNK        -0.5000 
     85 CA         -0.5769  -27.6403  -50.5464 C.3       15 UNK         0.1400 
     86 CB         -0.2824  -26.4965  -51.5316 C.3       15 UNK        -0.1800 
     87 C          -1.8453  -28.4194  -50.9635 C.2       15 UNK         0.5000 
     88 O          -1.8918  -28.9238  -52.0863 O.2       15 UNK        -0.5000 
     89 N          -2.8415  -28.5072  -50.0687 N.am      16 UNK        -0.5000 
     90 CA         -4.1325  -29.1857  -50.2180 C.3       16 UNK         0.1400 
     91 CB         -3.9524  -30.6952  -50.4861 C.3       16 UNK        -0.1800 
     92 C          -5.0864  -28.4992  -51.2174 C.2       16 UNK         0.5000 
     93 O          -5.9923  -29.1498  -51.7430 O.2       16 UNK        -0.5000 
     94 N          -4.8988  -27.1915  -51.4320 N.am      17 UNK        -0.5000 
     95 CA         -5.8516  -26.3145  -52.1071 C.3       17 UNK         0.1400 
     96 CB         -5.0678  -25.2489  -52.8957 C.3       17 UNK        -0.1800 
     97 C          -6.7930  -25.6760  -51.0652 C.2       17 UNK         0.5000 
     98 O          -6.7126  -25.9865  -49.8725 O.2       17 UNK        -0.5000 
     99 N          -7.6769  -24.7837  -51.5280 N.am      18 UNK        -0.5000 
    100 CA        -8.5094  -23.9406  -50.6687 C.3       18 UNK         0.1400 
    101 CB        -9.5371  -23.2004  -51.5385 C.3       18 UNK        -0.1800 
    102 C         -7.6510  -22.9336  -49.8799 C.2       18 UNK         0.5000 
    103 O         -6.6332  -22.4652  -50.3945 O.2       18 UNK        -0.5000 
    104 N         -8.0901  -22.5881  -48.6638 N.am      19 UNK        -0.5000 
    105 CA        -7.4222  -21.6432  -47.7647 C.3       19 UNK         0.1400 
    106 CB        -7.8642  -21.9346  -46.3195 C.3       19 UNK        -0.1800 
    107 C         -7.6613  -20.1741  -48.1794 C.2       19 UNK         0.5000 
    108 O         -8.1930  -19.3817  -47.4001 O.2       19 UNK        -0.5000 
    109 N         -7.2633  -19.8460  -49.4095 N.am      20 UNK        -0.5000 
    110 CA        -7.2198  -18.5088  -49.9865 C.3       20 UNK         0.1400 
    111 CB        -8.1607  -18.4575  -51.1995 C.3       20 UNK        -0.1800 
    112 C         -5.7707  -18.2424  -50.4125 C.2       20 UNK         0.5000 
    113 O         -5.0600  -19.1927  -50.7479 O.2       20 UNK        -0.5000 
    114 N         -5.3569  -16.9692  -50.3785 N.am      21 UNK        -0.5000 
    115 CA        -3.9866  -16.5024  -50.6082 C.3       21 UNK         0.1400 
    116 CB        -3.9571  -14.9672  -50.5304 C.3       21 UNK        -0.1800 
    117 C         -3.3624  -17.0204  -51.9212 C.2       21 UNK         0.5000 
    118 O         -3.6908  -16.5117  -52.9946 O.2       21 UNK        -0.5000 
    119 N         -2.5002  -18.0392  -51.7956 N.am      22 UNK        -0.5000 
    120 CA        -1.8289  -18.7611  -52.8904 C.3       22 UNK         0.1400 
    121 C         -2.7861  -19.6161  -53.7781 C.2       22 UNK         0.5000 
    122 N         -3.9910  -19.9449  -53.3270 N.am      22 UNK        -0.7600 
    123 O         -2.4247  -20.0153  -54.8820 O.2       22 UNK        -0.5000 
    124 C124       -0.8627  -17.8721  -53.7282 C.3       23 UNK        -0.0398 
    125 S125        0.3486  -16.9739  -52.6992 S.3       23 UNK        -0.2404 
    126 C126        1.7500  -18.1373  -52.6681 C.3       23 UNK        -0.0205 
    127 H127        9.9707  -13.2189  -46.4739 H         1 UNK         0.0600 
    128 H128        9.5750  -11.9151  -45.3490 H         1 UNK         0.0600 
    129 H129        9.0897  -11.7984  -47.0428 H         1 UNK         0.0600 
    130 H130        6.9232  -12.2043  -47.3329 H         1 UNK         0.3000 
    131 H131        5.6117  -14.5067  -46.2517 H         1 UNK         0.0600 
    132 H132        3.9616  -12.2880  -47.4797 H         1 UNK         0.0800 
    133 H133        5.1795  -12.9683  -48.4920 H         1 UNK         0.0800 
    134 H134        5.4681  -15.4138  -49.1284 H         1 UNK         0.0800 
    135 H135        4.3908  -14.5926  -50.2322 H         1 UNK         0.0800 
    136 H136        2.8058  -15.8649  -51.5343 H         1 UNK         0.1150 
    137 H137        2.6364  -20.1192  -51.0337 H         1 UNK         0.1150 
    138 H138        4.8348  -17.7195  -48.2469 H         1 UNK         0.1150 
    139 H139        4.3301  -21.1390  -49.4864 H         1 UNK         0.0800 
    140 H140        5.1599  -20.1428  -48.3239 H         1 UNK         0.0800 
    141 H141        2.0307  -21.8632  -49.4016 H         1 UNK         0.0800 
    142 H142        1.0524  -20.4997  -48.9093 H         1 UNK         0.0800 
    143 H143        1.2892  -23.0839  -47.2861 H         1 UNK         0.0600 
    144 H144        0.0190  -20.6414  -46.6394 H         1 UNK         0.3000 
    145 H145       -2.5792  -21.9863  -44.5519 H         1 UNK         0.0600 
    146 H146       -1.5719  -20.3360  -43.0062 H         1 UNK         0.0600 
    147 H147       -0.5512  -21.7606  -43.1298 H         1 UNK         0.0600 
    148 H148       -0.0985  -20.2850  -43.9707 H         1 UNK         0.0600 
    149 H149       -1.9781  -19.3166  -45.3390 H         1 UNK         0.3000 
    150 H150       -3.9385  -19.3258  -48.3479 H         1 UNK         0.0600 
    151 H151       -5.5367  -18.9627  -46.4341 H         1 UNK         0.0600 
    152 H152       -5.0627  -17.4603  -47.2122 H         1 UNK         0.0600 
    153 H153       -4.3556  -17.9159  -45.6626 H         1 UNK         0.0600 
    154 H154       -2.4380  -17.2776  -47.0180 H         1 UNK         0.3000 
    155 H155        0.6437  -17.8666  -48.7654 H         1 UNK         0.0600 
    156 H156       -1.3351  -15.5275  -48.8124 H         1 UNK         0.0600 
    157 H157       -0.8544  -16.4340  -50.2333 H         1 UNK         0.0600 
    158 H158        0.3440  -15.5098  -49.3461 H         1 UNK         0.0600 
    159 H159        0.0149  -15.8921  -46.8620 H         1 UNK         0.3000 
    160 H160        0.6805  -17.7611  -43.8740 H         1 UNK         0.0600 
    161 H161        1.9590  -15.3764  -45.3192 H         1 UNK         0.0600 
    162 H162        2.8036  -16.8224  -44.7909 H         1 UNK         0.0600 
    163 H163        2.0958  -15.7416  -43.6009 H         1 UNK         0.0600 
    164 H164       -0.3526  -15.1209  -44.4679 H         1 UNK         0.3000 
    165 H165       -3.7914  -15.9516  -44.1154 H         1 UNK         0.0600 
    166 H166       -3.6503  -14.2259  -42.3154 H         1 UNK         0.0600 
    167 H167       -3.0708  -15.7890  -41.7640 H         1 UNK         0.0600 
    168 H168       -1.9186  -14.5236  -42.1541 H         1 UNK         0.0600 
    169 H169       -2.4515  -13.4507  -44.4266 H         1 UNK         0.3000 
    170 H170       -2.4458  -13.4778  -48.0100 H         1 UNK         0.0600 
    171 H171       -4.7597  -12.8592  -47.2887 H         1 UNK         0.0600 
    172 H172       -4.0976  -11.9036  -45.9674 H         1 UNK         0.0600 
    173 H173       -3.7846  -11.4426  -47.6410 H         1 UNK         0.0600 
    174 H174       -1.6490  -11.3964  -46.3602 H         1 UNK         0.3000 
    175 H175        1.7208  -12.2460  -45.7758 H         1 UNK         0.0600 
    176 H176        0.6344  -10.6366  -48.1420 H         1 UNK         0.0600 
    177 H177        2.2502  -10.5122  -47.4507 H         1 UNK         0.0600 
    178 H178        1.7458  -11.9888  -48.2653 H         1 UNK         0.0600 
    179 H179       -0.0336   -9.8855  -46.0211 H         1 UNK         0.3000 
    180 H180        0.9071  -11.0548  -42.1868 H         1 UNK         0.0600 
    181 H181        0.7307  -13.5010  -43.9633 H         1 UNK         0.0600 
    182 H182       -0.6946  -12.8021  -43.1921 H         1 UNK         0.0600 
    183 H183        0.6458  -13.3829  -42.2176 H         1 UNK         0.0600 
    184 H184        2.8426  -12.4895  -43.6819 H         1 UNK         0.3000 
    185 H185        5.3765   -9.9852  -43.5425 H         1 UNK         0.0600 
    186 H186        5.2605  -11.0714  -41.3204 H         1 UNK         0.0600 
    187 H187        4.9481  -12.6315  -42.0664 H         1 UNK         0.0600 
    188 H188        6.4925  -11.8226  -42.3231 H         1 UNK         0.0600 
    189 H189        5.8048  -11.1716  -45.3102 H         1 UNK         0.3000 
    190 H190       -1.4986  -21.4496  -48.8785 H         1 UNK         0.3000 
    191 H191       -1.8503  -23.3552  -50.9498 H         1 UNK         0.0600 
    192 H192       -3.9552  -21.5484  -49.6539 H         1 UNK         0.0600 
    193 H193       -4.0380  -22.2852  -51.2457 H         1 UNK         0.0600 
    194 H194       -2.8354  -21.0489  -50.9163 H         1 UNK         0.0600 
    195 H195       -3.3337  -23.1419  -47.6804 H         1 UNK         0.3000 
    196 H196       -4.9342  -25.4687  -47.8439 H         1 UNK         0.0600 
    197 H197       -4.9884  -25.2997  -45.3609 H         1 UNK         0.0600 
    198 H198       -5.2126  -23.7223  -46.1035 H         1 UNK         0.0600 
    199 H199       -3.6590  -24.1473  -45.3910 H         1 UNK         0.0600 
    200 H200       -1.5433  -25.0693  -46.6920 H         1 UNK         0.3000 
    201 H201       -1.0745  -27.7816  -46.0042 H         1 UNK         0.0600 
    202 H202        0.3615  -25.9166  -45.2349 H         1 UNK         0.0600 
    203 H203        0.8879  -25.6000  -46.8867 H         1 UNK         0.0600 
    204 H204        1.3294  -27.1062  -46.0921 H         1 UNK         0.0600 
    205 H205       -0.8458  -26.0983  -49.1203 H         1 UNK         0.3000 
    206 H206        0.2574  -28.3431  -50.5913 H         1 UNK         0.0600 
    207 H207        0.6340  -25.9709  -51.2629 H         1 UNK         0.0600 
    208 H208       -0.1524  -26.8741  -52.5464 H         1 UNK         0.0600 
    209 H209       -1.0915  -25.7667  -51.5554 H         1 UNK         0.0600 
    210 H210       -2.7194  -28.0294  -49.1839 H         1 UNK         0.3000 
    211 H211       -4.6202  -29.0921  -49.2469 H         1 UNK         0.0600 
    212 H212       -3.5588  -30.8880  -51.4842 H         1 UNK         0.0600 
    213 H213       -4.9040  -31.2217  -50.4062 H         1 UNK         0.0600 
    214 H214       -3.2729  -31.1461  -49.7628 H         1 UNK         0.0600 
    215 H215       -4.1733  -26.7114  -50.9060 H         1 UNK         0.3000 
    216 H216       -6.4588  -26.8877  -52.8104 H         1 UNK         0.0600 
    217 H217       -5.7278  -24.6675  -53.5397 H         1 UNK         0.0600 
    218 H218       -4.3156  -25.7072  -53.5380 H         1 UNK         0.0600 
    219 H219       -4.5591  -24.5473  -52.2348 H         1 UNK         0.0600 
    220 H220       -7.6733  -24.5551  -52.5108 H         1 UNK         0.3000 
    221 H221       -9.0415  -24.5831  -49.9639 H         1 UNK         0.0600 
    222 H222       -9.0526  -22.5456  -52.2643 H         1 UNK         0.0600 
    223 H223      -10.1692  -23.9001  -52.0855 H         1 UNK         0.0600 
    224 H224      -10.1936  -22.5807  -50.9263 H         1 UNK         0.0600 
    225 H225       -8.9562  -22.9834  -48.3271 H         1 UNK         0.3000 
    226 H226       -6.3448  -21.8173  -47.8166 H         1 UNK         0.0600 
    227 H227       -7.6409  -22.9639  -46.0386 H         1 UNK         0.0600 
    228 H228       -7.3412  -21.2874  -45.6142 H         1 UNK         0.0600 
    229 H229       -8.9345  -21.7745  -46.1845 H         1 UNK         0.0600 
    230 H230       -6.7969  -20.5642  -49.9596 H         1 UNK         0.3000 
    231 H231       -7.5221  -17.7576  -49.2540 H         1 UNK         0.0600 
    232 H232       -9.1891  -18.6709  -50.9075 H         1 UNK         0.0600 
    233 H233       -7.8730  -19.1823  -51.9626 H         1 UNK         0.0600 
    234 H234       -8.1506  -17.4698  -51.6619 H         1 UNK         0.0600 
    235 H235       -6.0241  -16.2546  -50.1276 H         1 UNK         0.3000 
    236 H236       -3.3892  -16.8736  -49.7781 H         1 UNK         0.0600 
    237 H237       -2.9492  -14.5868  -50.7011 H         1 UNK         0.0600 
    238 H238       -4.6104  -14.5130  -51.2764 H         1 UNK         0.0600 
    239 H239       -4.2728  -14.6169  -49.5473 H         1 UNK         0.0600 
    240 H240       -2.3402  -18.4348  -50.8774 H         1 UNK         0.3000 
    241 H241       -1.2086  -19.5032  -52.3869 H         1 UNK         0.0600 
    242 H242       -4.5980  -20.5052  -53.9021 H         1 UNK         0.3800 
    243 H243       -4.3018  -19.6510  -52.4036 H         1 UNK         0.3800 
    244 H244       -1.4274  -17.1396  -54.3062 H         1 UNK         0.0800 
    245 H245       -0.3185  -18.4724  -54.4591 H         1 UNK         0.0800 
    246 H246        2.3752  -17.9687  -53.5457 H         1 UNK         0.0800 
    247 H247        1.3667  -19.1555  -52.7498 H         1 UNK         0.0800 
@<TRIPOS>BOND
     1    1    2 1    
     2    1  127 1    
     3    1  128 1    
     4    1  129 1    
     5    2    3 2    
     6    2    4 am   BACKBONE|DICT|INTERRES
     7    4    5 1    
     8    4  130 1    
     9    5    6 1    
    10    5   65 1    
    11    5  131 1    
    12    6    7 1    
    13    6  132 1    
    14    6  133 1    
    15    7    8 1    
    16    8    9 1    
    17    8  134 1    
    18    8  135 1    
    19    9   10 ar   
    20    9   14 ar   
    21   10   11 ar   
    22   10  136 1    
    23   11   12 ar   
    24   11  126 1    
    25   12   13 ar   
    26   12  137 1    
    27   13   14 ar   
    28   13   15 1    
    29   14  138 1    
    30   15   16 1    
    31   15  139 1    
    32   15  140 1    
    33   16   17 1    
    34   17   18 1    
    35   17  141 1    
    36   17  142 1    
    37   18   19 1    
    38   18   67 1    
    39   18  143 1    
    40   19   20 am   BACKBONE|DICT|INTERRES
    41   19  144 1    
    42   20   21 2    
    43   20   22 1    
    44   22   23 1    
    45   22   24 1    
    46   22  145 1    
    47   23  146 1    
    48   23  147 1    
    49   23  148 1    
    50   24   25 am   BACKBONE|DICT|INTERRES
    51   24  149 1    
    52   25   26 2    
    53   25   27 1    
    54   27   28 1    
    55   27   29 1    
    56   27  150 1    
    57   28  151 1    
    58   28  152 1    
    59   28  153 1    
    60   29   30 am   BACKBONE|DICT|INTERRES
    61   29  154 1    
    62   30   31 2    
    63   30   32 1    
    64   32   33 1    
    65   32   34 1    
    66   32  155 1    
    67   33  156 1    
    68   33  157 1    
    69   33  158 1    
    70   34   35 am   BACKBONE|DICT|INTERRES
    71   34  159 1    
    72   35   36 2    
    73   35   37 1    
    74   37   38 1    
    75   37   39 1    
    76   37  160 1    
    77   38  161 1    
    78   38  162 1    
    79   38  163 1    
    80   39   40 am   BACKBONE|DICT|INTERRES
    81   39  164 1    
    82   40   41 2    
    83   40   42 1    
    84   42   43 1    
    85   42   44 1    
    86   42  165 1    
    87   43  166 1    
    88   43  167 1    
    89   43  168 1    
    90   44   45 am   BACKBONE|DICT|INTERRES
    91   44  169 1    
    92   45   46 2    
    93   45   47 1    
    94   47   48 1    
    95   47   49 1    
    96   47  170 1    
    97   48  171 1    
    98   48  172 1    
    99   48  173 1    
   100   49   50 am   BACKBONE|DICT|INTERRES
   101   49  174 1    
   102   50   51 2    
   103   50   52 1    
   104   52   53 1    
   105   52   54 1    
   106   52  175 1    
   107   53  176 1    
   108   53  177 1    
   109   53  178 1    
   110   54   55 am   BACKBONE|DICT|INTERRES
   111   54  179 1    
   112   55   56 2    
   113   55   57 1    
   114   57   58 1    
   115   57   59 1    
   116   57  180 1    
   117   58  181 1    
   118   58  182 1    
   119   58  183 1    
   120   59   60 am   BACKBONE|DICT|INTERRES
   121   59  184 1    
   122   60   61 2    
   123   60   62 1    
   124   62   63 1    
   125   62   64 1    
   126   62  185 1    
   127   63  186 1    
   128   63  187 1    
   129   63  188 1    
   130   64   65 am   BACKBONE|DICT|INTERRES
   131   64  189 1    
   132   65   66 2    
   133   67   68 2    
   134   67   69 am   BACKBONE|DICT|INTERRES
   135   69   70 1    
   136   69  190 1    
   137   70   71 1    
   138   70   72 1    
   139   70  191 1    
   140   71  192 1    
   141   71  193 1    
   142   71  194 1    
   143   72   73 2    
   144   72   74 am   BACKBONE|DICT|INTERRES
   145   74   75 1    
   146   74  195 1    
   147   75   76 1    
   148   75   77 1    
   149   75  196 1    
   150   76  197 1    
   151   76  198 1    
   152   76  199 1    
   153   77   78 2    
   154   77   79 am   BACKBONE|DICT|INTERRES
   155   79   80 1    
   156   79  200 1    
   157   80   81 1    
   158   80   82 1    
   159   80  201 1    
   160   81  202 1    
   161   81  203 1    
   162   81  204 1    
   163   82   83 2    
   164   82   84 am   BACKBONE|DICT|INTERRES
   165   84   85 1    
   166   84  205 1    
   167   85   86 1    
   168   85   87 1    
   169   85  206 1    
   170   86  207 1    
   171   86  208 1    
   172   86  209 1    
   173   87   88 2    
   174   87   89 am   BACKBONE|DICT|INTERRES
   175   89   90 1    
   176   89  210 1    
   177   90   91 1    
   178   90   92 1    
   179   90  211 1    
   180   91  212 1    
   181   91  213 1    
   182   91  214 1    
   183   92   93 2    
   184   92   94 am   BACKBONE|DICT|INTERRES
   185   94   95 1    
   186   94  215 1    
   187   95   96 1    
   188   95   97 1    
   189   95  216 1    
   190   96  217 1    
   191   96  218 1    
   192   96  219 1    
   193   97   98 2    
   194   97   99 am   BACKBONE|DICT|INTERRES
   195   99  100 1    
   196   99  220 1    
   197  100  101 1    
   198  100  102 1    
   199  100  221 1    
   200  101  222 1    
   201  101  223 1    
   202  101  224 1    
   203  102  103 2    
   204  102  104 am   BACKBONE|DICT|INTERRES
   205  104  105 1    
   206  104  225 1    
   207  105  106 1    
   208  105  107 1    
   209  105  226 1    
   210  106  227 1    
   211  106  228 1    
   212  106  229 1    
   213  107  108 2    
   214  107  109 am   BACKBONE|DICT|INTERRES
   215  109  110 1    
   216  109  230 1    
   217  110  111 1    
   218  110  112 1    
   219  110  231 1    
   220  111  232 1    
   221  111  233 1    
   222  111  234 1    
   223  112  113 2    
   224  112  114 am   BACKBONE|DICT|INTERRES
   225  114  115 1    
   226  114  235 1    
   227  115  116 1    
   228  115  117 1    
   229  115  236 1    
   230  116  237 1    
   231  116  238 1    
   232  116  239 1    
   233  117  118 2    
   234  117  119 am   BACKBONE|DICT|INTERRES
   235  119  120 1    
   236  119  240 1    
   237  120  121 1    
   238  120  124 1    
   239  120  241 1    
   240  121  122 am   BACKBONE|DICT|INTERRES
   241  121  123 2    
   242  122  242 1    
   243  122  243 1    
   244  124  125 1    
   245  124  244 1    
   246  124  245 1    
   247  125  126 1    
   248  126  246 1    
   249  126  247 1    
@<TRIPOS>SUBSTRUCTURE
     1 UNK         1 GROUP             0       ****    0 ROOT    
