@<TRIPOS>MOLECULE
3R540
247   249    1
SMALL
USER_CHARGES


@<TRIPOS>ATOM
      1 CA         -3.9259  -17.7054  -49.4902 C.3       0 UNK        -0.1800 
      2 C          -3.7774  -16.3370  -48.8428 C.2       0 UNK         0.5000 
      3 O          -4.2811  -15.3464  -49.3720 O.2       0 UNK        -0.5000 
      4 N          -3.0994  -16.2827  -47.6937 N.am      1 UNK        -0.5000 
      5 CA         -2.9391  -15.0901  -46.8677 C.3       1 UNK         0.1400 
      6 C6         -1.8072  -14.1438  -47.3606 C.3       23 UNK        -0.0398 
      7 S7         -0.0976  -14.7430  -47.0930 S.3       23 UNK        -0.2404 
      8 C8          0.6542  -14.5468  -48.7397 C.3       23 UNK        -0.0205 
      9 C9          0.2609  -15.6798  -49.6726 C.ar      23 UNK        -0.0193 
     10 C10        -0.7265  -15.4943  -50.6432 C.ar      23 UNK        -0.1150 
     11 C11        -1.1147  -16.5507  -51.4729 C.ar      23 UNK        -0.0193 
     12 C12        -0.5003  -17.7982  -51.3275 C.ar      23 UNK        -0.1150 
     13 C13         0.4952  -17.9943  -50.3651 C.ar      23 UNK        -0.0193 
     14 C14         0.8805  -16.9253  -49.5514 C.ar      23 UNK        -0.1150 
     15 C15         1.1225  -19.3715  -50.1773 C.3       23 UNK        -0.0205 
     16 S16         0.9852  -19.9822  -48.4605 S.3       23 UNK        -0.2404 
     17 C17        -0.7828  -19.6952  -48.1097 C.3       23 UNK        -0.0398 
     18 CA         -1.4383  -20.8488  -47.3247 C.3       11 UNK         0.1400 
     19 N          -0.8522  -21.0240  -45.9946 N.am      11 UNK        -0.5000 
     20 C          -1.0833  -22.0789  -45.1993 C.2       10 UNK         0.5000 
     21 O          -1.8096  -23.0177  -45.5214 O.2       10 UNK        -0.5000 
     22 CA         -0.4389  -22.0794  -43.7994 C.3       10 UNK         0.1400 
     23 CB          0.8358  -22.9346  -43.7982 C.3       10 UNK        -0.1800 
     24 N          -0.1260  -20.7364  -43.3100 N.am      10 UNK        -0.5000 
     25 C          -1.0462  -19.8008  -43.0282 C.2       9 UNK         0.5000 
     26 O          -2.2587  -20.0125  -43.0751 O.2       9 UNK        -0.5000 
     27 CA         -0.5385  -18.3844  -42.6851 C.3       9 UNK         0.1400 
     28 CB         -0.5987  -18.1324  -41.1713 C.3       9 UNK        -0.1800 
     29 N           0.8141  -18.0955  -43.1707 N.am      9 UNK        -0.5000 
     30 C           1.1912  -18.1017  -44.4589 C.2       8 UNK         0.5000 
     31 O           0.4175  -18.3097  -45.3901 O.2       8 UNK        -0.5000 
     32 CA          2.6922  -17.9145  -44.7491 C.3       8 UNK         0.1400 
     33 CB          2.9838  -16.4660  -45.1656 C.3       8 UNK        -0.1800 
     34 N           3.5495  -18.2811  -43.6161 N.am      8 UNK        -0.5000 
     35 C           3.6940  -19.5280  -43.1432 C.2       7 UNK         0.5000 
     36 O           3.0873  -20.4928  -43.6103 O.2       7 UNK        -0.5000 
     37 CA          4.6217  -19.7230  -41.9234 C.3       7 UNK         0.1400 
     38 CB          5.1164  -21.1775  -41.7803 C.3       7 UNK        -0.1800 
     39 N           5.7513  -18.7891  -41.8646 N.am      7 UNK        -0.5000 
     40 C           6.7382  -18.6270  -42.7572 C.2       6 UNK         0.5000 
     41 O           6.8106  -19.2530  -43.8161 O.2       6 UNK        -0.5000 
     42 CA          7.8240  -17.5846  -42.3961 C.3       6 UNK         0.1400 
     43 CB          8.7857  -17.3006  -43.5644 C.3       6 UNK        -0.1800 
     44 N           7.2578  -16.3121  -41.9407 N.am      6 UNK        -0.5000 
     45 C           6.7481  -16.0625  -40.7276 C.2       5 UNK         0.5000 
     46 O           6.7233  -16.8962  -39.8202 O.2       5 UNK        -0.5000 
     47 CA          6.1025  -14.6797  -40.4935 C.3       5 UNK         0.1400 
     48 CB          6.3589  -13.6619  -41.6286 C.3       5 UNK        -0.1800 
     49 N           4.6623  -14.7938  -40.2353 N.am      5 UNK        -0.5000 
     50 C           3.7500  -15.3755  -41.0282 C.2       4 UNK         0.5000 
     51 O           4.0247  -15.9370  -42.0891 O.2       4 UNK        -0.5000 
     52 CA          2.2736  -15.3425  -40.5847 C.3       4 UNK         0.1400 
     53 CB          2.0359  -14.7706  -39.1690 C.3       4 UNK        -0.1800 
     54 N           1.4426  -14.6550  -41.5792 N.am      4 UNK        -0.5000 
     55 C           1.5455  -13.3742  -41.9687 C.2       3 UNK         0.5000 
     56 O           2.3511  -12.5731  -41.4927 O.2       3 UNK        -0.5000 
     57 CA          0.5918  -12.8916  -43.0810 C.3       3 UNK         0.1400 
     58 CB          1.3568  -12.6898  -44.3985 C.3       3 UNK        -0.1800 
     59 N          -0.5556  -13.7700  -43.3305 N.am      3 UNK        -0.5000 
     60 C          -1.6078  -13.9132  -42.5111 C.2       2 UNK         0.5000 
     61 O          -1.6852  -13.3710  -41.4080 O.2       2 UNK        -0.5000 
     62 CA         -2.7712  -14.7806  -43.0321 C.3       2 UNK         0.1400 
     63 CB         -4.1056  -14.4677  -42.3311 C.3       2 UNK        -0.1800 
     64 N          -2.9368  -14.5908  -44.4746 N.am      2 UNK        -0.5000 
     65 C          -2.7732  -15.5379  -45.4042 C.2       1 UNK         0.5000 
     66 O          -2.4935  -16.7119  -45.1508 O.2       1 UNK        -0.5000 
     67 C          -2.9661  -20.6505  -47.2666 C.2       11 UNK         0.5000 
     68 O          -3.6612  -21.1125  -48.1718 O.2       11 UNK        -0.5000 
     69 N          -3.4718  -19.9967  -46.2091 N.am      12 UNK        -0.5000 
     70 CA         -4.9079  -19.8530  -45.9594 C.3       12 UNK         0.1400 
     71 CB         -5.1584  -18.7610  -44.9097 C.3       12 UNK        -0.1800 
     72 C          -5.5599  -21.1804  -45.5363 C.2       12 UNK         0.5000 
     73 O          -6.6774  -21.4659  -45.9655 O.2       12 UNK        -0.5000 
     74 N          -4.8393  -21.9823  -44.7389 N.am      13 UNK        -0.5000 
     75 CA         -5.2608  -23.3191  -44.3124 C.3       13 UNK         0.1400 
     76 CB         -4.3539  -23.8059  -43.1717 C.3       13 UNK        -0.1800 
     77 C          -5.2753  -24.3272  -45.4776 C.2       13 UNK         0.5000 
     78 O          -6.2035  -25.1297  -45.5790 O.2       13 UNK        -0.5000 
     79 N          -4.2636  -24.2422  -46.3522 N.am      14 UNK        -0.5000 
     80 CA         -4.1417  -25.0312  -47.5798 C.3       14 UNK         0.1400 
     81 CB         -2.6927  -24.9358  -48.0834 C.3       14 UNK        -0.1800 
     82 C          -5.1137  -24.5941  -48.6944 C.2       14 UNK         0.5000 
     83 O          -5.3337  -25.3659  -49.6283 O.2       14 UNK        -0.5000 
     84 N          -5.6498  -23.3684  -48.5866 N.am      15 UNK        -0.5000 
     85 CA         -6.4826  -22.6642  -49.5658 C.3       15 UNK         0.1400 
     86 CB         -7.8413  -23.3691  -49.7563 C.3       15 UNK        -0.1800 
     87 C          -5.7238  -22.4370  -50.8877 C.2       15 UNK         0.5000 
     88 O          -6.2275  -22.7589  -51.9652 O.2       15 UNK        -0.5000 
     89 N          -4.5051  -21.8908  -50.7743 N.am      16 UNK        -0.5000 
     90 CA         -3.5337  -21.7233  -51.8589 C.3       16 UNK         0.1400 
     91 CB         -2.2570  -21.0932  -51.2933 C.3       16 UNK        -0.1800 
     92 C          -4.0288  -20.9008  -53.0613 C.2       16 UNK         0.5000 
     93 O          -3.5572  -21.1242  -54.1761 O.2       16 UNK        -0.5000 
     94 N          -4.9651  -19.9737  -52.8252 N.am      17 UNK        -0.5000 
     95 CA         -5.6171  -19.1798  -53.8673 C.3       17 UNK         0.1400 
     96 CB         -6.3406  -17.9925  -53.2151 C.3       17 UNK        -0.1800 
     97 C          -6.5904  -20.0062  -54.7326 C.2       17 UNK         0.5000 
     98 O          -6.7456  -19.7059  -55.9162 O.2       17 UNK        -0.5000 
     99 N          -7.2135  -21.0337  -54.1386 N.am      18 UNK        -0.5000 
    100 CA        -8.1199  -21.9611  -54.8172 C.3       18 UNK         0.1400 
    101 CB        -9.1845  -22.4520  -53.8233 C.3       18 UNK        -0.1800 
    102 C         -7.3518  -23.1490  -55.4201 C.2       18 UNK         0.5000 
    103 O         -7.6735  -23.5850  -56.5257 O.2       18 UNK        -0.5000 
    104 N         -6.3343  -23.6340  -54.6942 N.am      19 UNK        -0.5000 
    105 CA        -5.4506  -24.7295  -55.1031 C.3       19 UNK         0.1400 
    106 CB        -4.7211  -25.2610  -53.8592 C.3       19 UNK        -0.1800 
    107 C         -4.4349  -24.3345  -56.1965 C.2       19 UNK         0.5000 
    108 O         -3.7976  -25.2181  -56.7695 O.2       19 UNK        -0.5000 
    109 N         -4.2907  -23.0244  -56.4454 N.am      20 UNK        -0.5000 
    110 CA        -3.3912  -22.3677  -57.4021 C.3       20 UNK         0.1400 
    111 CB        -3.6145  -22.8736  -58.8421 C.3       20 UNK        -0.1800 
    112 C         -1.9047  -22.3877  -56.9886 C.2       20 UNK         0.5000 
    113 O         -1.0490  -21.9811  -57.7766 O.2       20 UNK        -0.5000 
    114 N         -1.6194  -22.7773  -55.7379 N.am      21 UNK        -0.5000 
    115 CA        -0.2985  -22.7041  -55.1048 C.3       21 UNK         0.1400 
    116 CB        -0.3290  -23.4879  -53.7842 C.3       21 UNK        -0.1800 
    117 C          0.1866  -21.2544  -54.8847 C.2       21 UNK         0.5000 
    118 O          1.3904  -21.0285  -54.7615 O.2       21 UNK        -0.5000 
    119 N         -0.7550  -20.3009  -54.8852 N.am      22 UNK        -0.5000 
    120 CA        -0.5132  -18.8535  -54.9882 C.3       22 UNK         0.1400 
    121 C          0.1395  -18.4060  -56.3359 C.2       22 UNK         0.5000 
    122 N          0.0958  -19.1993  -57.4019 N.am      22 UNK        -0.7600 
    123 O          0.7162  -17.3254  -56.4154 O.2       22 UNK        -0.5000 
    124 C124       -1.8306  -18.0826  -54.7096 C.3       23 UNK        -0.0398 
    125 S125       -1.6114  -16.3410  -54.2009 S.3       23 UNK        -0.2404 
    126 C126       -2.2306  -16.3493  -52.4881 C.3       23 UNK        -0.0205 
    127 H127       -4.4028  -18.4056  -48.8061 H         1 UNK         0.0600 
    128 H128       -2.9498  -18.0959  -49.7669 H         1 UNK         0.0600 
    129 H129       -4.5364  -17.6446  -50.3908 H         1 UNK         0.0600 
    130 H130       -2.7287  -17.1174  -47.2579 H         1 UNK         0.3000 
    131 H131       -3.8794  -14.5356  -46.9068 H         1 UNK         0.0600 
    132 H132       -1.9559  -13.9221  -48.4174 H         1 UNK         0.0800 
    133 H133       -1.8922  -13.1807  -46.8558 H         1 UNK         0.0800 
    134 H134        1.7394  -14.5350  -48.6282 H         1 UNK         0.0800 
    135 H135        0.3818  -13.5779  -49.1608 H         1 UNK         0.0800 
    136 H136       -1.2093  -14.5319  -50.7379 H         1 UNK         0.1150 
    137 H137       -0.8086  -18.6191  -51.9568 H         1 UNK         0.1150 
    138 H138        1.6378  -17.0736  -48.7941 H         1 UNK         0.1150 
    139 H139        2.1764  -19.3227  -50.4537 H         1 UNK         0.0800 
    140 H140        0.6622  -20.1010  -50.8452 H         1 UNK         0.0800 
    141 H141       -1.2970  -19.5620  -49.0580 H         1 UNK         0.0800 
    142 H142       -0.8855  -18.7472  -47.5795 H         1 UNK         0.0800 
    143 H143       -1.2626  -21.7711  -47.8823 H         1 UNK         0.0600 
    144 H144       -0.2623  -20.2664  -45.6671 H         1 UNK         0.3000 
    145 H145       -1.1530  -22.5306  -43.1076 H         1 UNK         0.0600 
    146 H146        0.6138  -23.9644  -44.0810 H         1 UNK         0.0600 
    147 H147        1.2963  -22.9599  -42.8104 H         1 UNK         0.0600 
    148 H148        1.5750  -22.5541  -44.5041 H         1 UNK         0.0600 
    149 H149        0.8551  -20.4881  -43.2791 H         1 UNK         0.3000 
    150 H150       -1.2157  -17.6847  -43.1712 H         1 UNK         0.0600 
    151 H151        0.1194  -18.7503  -40.6309 H         1 UNK         0.0600 
    152 H152       -1.5898  -18.3604  -40.7765 H         1 UNK         0.0600 
    153 H153       -0.3949  -17.0884  -40.9349 H         1 UNK         0.0600 
    154 H154        1.5308  -17.9552  -42.4756 H         1 UNK         0.3000 
    155 H155        2.9468  -18.5669  -45.5871 H         1 UNK         0.0600 
    156 H156        4.0408  -16.3231  -45.3902 H         1 UNK         0.0600 
    157 H157        2.7083  -15.7610  -44.3817 H         1 UNK         0.0600 
    158 H158        2.4212  -16.1984  -46.0608 H         1 UNK         0.0600 
    159 H159        4.0184  -17.5135  -43.1408 H         1 UNK         0.3000 
    160 H160        4.0077  -19.5015  -41.0496 H         1 UNK         0.0600 
    161 H161        5.6939  -21.4947  -42.6492 H         1 UNK         0.0600 
    162 H162        4.2798  -21.8692  -41.6739 H         1 UNK         0.0600 
    163 H163        5.7454  -21.2954  -40.8979 H         1 UNK         0.0600 
    164 H164        5.8015  -18.2104  -41.0325 H         1 UNK         0.3000 
    165 H165        8.4128  -18.0132  -41.5824 H         1 UNK         0.0600 
    166 H166        9.2860  -18.2126  -43.8927 H         1 UNK         0.0600 
    167 H167        8.2607  -16.8841  -44.4249 H         1 UNK         0.0600 
    168 H168        9.5639  -16.5953  -43.2721 H         1 UNK         0.0600 
    169 H169        7.1768  -15.5894  -42.6410 H         1 UNK         0.3000 
    170 H170        6.5546  -14.2821  -39.5838 H         1 UNK         0.0600 
    171 H171        5.9416  -12.6874  -41.3740 H         1 UNK         0.0600 
    172 H172        5.9085  -13.9708  -42.5727 H         1 UNK         0.0600 
    173 H173        7.4269  -13.5172  -41.7964 H         1 UNK         0.0600 
    174 H174        4.3404  -14.3777  -39.3732 H         1 UNK         0.3000 
    175 H175        1.9454  -16.3821  -40.5718 H         1 UNK         0.0600 
    176 H176        2.5790  -15.3441  -38.4169 H         1 UNK         0.0600 
    177 H177        2.3455  -13.7288  -39.0820 H         1 UNK         0.0600 
    178 H178        0.9792  -14.8205  -38.9055 H         1 UNK         0.0600 
    179 H179        0.7637  -15.2255  -42.0592 H         1 UNK         0.3000 
    180 H180        0.2065  -11.9194  -42.7667 H         1 UNK         0.0600 
    181 H181        1.7460  -13.6303  -44.7875 H         1 UNK         0.0600 
    182 H182        2.2040  -12.0163  -44.2625 H         1 UNK         0.0600 
    183 H183        0.7159  -12.2510  -45.1635 H         1 UNK         0.0600 
    184 H184       -0.5709  -14.2480  -44.2202 H         1 UNK         0.3000 
    185 H185       -2.5144  -15.8153  -42.8035 H         1 UNK         0.0600 
    186 H186       -4.9074  -15.0981  -42.7160 H         1 UNK         0.0600 
    187 H187       -4.0394  -14.6507  -41.2579 H         1 UNK         0.0600 
    188 H188       -4.4002  -13.4271  -42.4719 H         1 UNK         0.0600 
    189 H189       -3.1500  -13.6469  -44.7665 H         1 UNK         0.3000 
    190 H190       -2.8473  -19.6490  -45.4931 H         1 UNK         0.3000 
    191 H191       -5.3907  -19.5374  -46.8866 H         1 UNK         0.0600 
    192 H192       -4.8843  -17.7804  -45.2952 H         1 UNK         0.0600 
    193 H193       -6.2137  -18.7113  -44.6381 H         1 UNK         0.0600 
    194 H194       -4.5913  -18.9366  -43.9953 H         1 UNK         0.0600 
    195 H195       -3.9285  -21.6698  -44.4336 H         1 UNK         0.3000 
    196 H196       -6.2790  -23.2439  -43.9246 H         1 UNK         0.0600 
    197 H197       -4.6872  -24.7748  -42.7980 H         1 UNK         0.0600 
    198 H198       -4.3683  -23.1111  -42.3317 H         1 UNK         0.0600 
    199 H199       -3.3192  -23.9200  -43.4946 H         1 UNK         0.0600 
    200 H200       -3.4914  -23.6152  -46.1412 H         1 UNK         0.3000 
    201 H201       -4.3564  -26.0751  -47.3425 H         1 UNK         0.0600 
    202 H202       -1.9876  -25.2830  -47.3278 H         1 UNK         0.0600 
    203 H203       -2.4270  -23.9108  -48.3443 H         1 UNK         0.0600 
    204 H204       -2.5448  -25.5496  -48.9728 H         1 UNK         0.0600 
    205 H205       -5.3649  -22.8151  -47.7903 H         1 UNK         0.3000 
    206 H206       -6.6787  -21.6760  -49.1472 H         1 UNK         0.0600 
    207 H207       -8.3463  -23.5132  -48.8012 H         1 UNK         0.0600 
    208 H208       -8.5021  -22.7736  -50.3870 H         1 UNK         0.0600 
    209 H209       -7.7331  -24.3452  -50.2299 H         1 UNK         0.0600 
    210 H210       -4.1819  -21.6463  -49.8398 H         1 UNK         0.3000 
    211 H211       -3.2875  -22.7196  -52.2256 H         1 UNK         0.0600 
    212 H212       -1.8331  -21.7007  -50.4935 H         1 UNK         0.0600 
    213 H213       -1.4915  -20.9853  -52.0619 H         1 UNK         0.0600 
    214 H214       -2.4632  -20.1009  -50.8973 H         1 UNK         0.0600 
    215 H215       -5.2949  -19.8531  -51.8794 H         1 UNK         0.3000 
    216 H216       -4.8469  -18.7820  -54.5311 H         1 UNK         0.0600 
    217 H217       -7.1052  -18.3232  -52.5112 H         1 UNK         0.0600 
    218 H218       -6.8319  -17.3739  -53.9673 H         1 UNK         0.0600 
    219 H219       -5.6416  -17.3518  -52.6774 H         1 UNK         0.0600 
    220 H220       -6.9760  -21.2646  -53.1816 H         1 UNK         0.3000 
    221 H221       -8.6336  -21.4425  -55.6297 H         1 UNK         0.0600 
    222 H222       -8.7421  -23.0005  -52.9911 H         1 UNK         0.0600 
    223 H223       -9.7518  -21.6178  -53.4104 H         1 UNK         0.0600 
    224 H224       -9.8956  -23.1184  -54.3129 H         1 UNK         0.0600 
    225 H225       -6.1882  -23.2586  -53.7601 H         1 UNK         0.3000 
    226 H226       -6.0681  -25.5347  -55.5065 H         1 UNK         0.0600 
    227 H227       -5.4262  -25.5602  -53.0830 H         1 UNK         0.0600 
    228 H228       -4.1160  -26.1351  -54.1031 H         1 UNK         0.0600 
    229 H229       -4.0556  -24.5114  -53.4337 H         1 UNK         0.0600 
    230 H230       -4.8280  -22.3921  -55.8680 H         1 UNK         0.3000 
    231 H231       -3.6793  -21.3156  -57.3851 H         1 UNK         0.0600 
    232 H232       -3.2562  -23.8943  -58.9765 H         1 UNK         0.0600 
    233 H233       -3.0840  -22.2485  -59.5612 H         1 UNK         0.0600 
    234 H234       -4.6709  -22.8486  -59.1098 H         1 UNK         0.0600 
    235 H235       -2.3963  -23.0248  -55.1429 H         1 UNK         0.3000 
    236 H236        0.4201  -23.1869  -55.7701 H         1 UNK         0.0600 
    237 H237       -1.0684  -23.0880  -53.0929 H         1 UNK         0.0600 
    238 H238       -0.5675  -24.5376  -53.9565 H         1 UNK         0.0600 
    239 H239        0.6404  -23.4532  -53.2853 H         1 UNK         0.0600 
    240 H240       -1.7227  -20.5979  -54.9408 H         1 UNK         0.3000 
    241 H241        0.2010  -18.6021  -54.2020 H         1 UNK         0.0600 
    242 H242       -0.3375  -20.1148  -57.3726 H         1 UNK         0.3800 
    243 H243        0.5325  -18.8907  -58.2561 H         1 UNK         0.3800 
    244 H244       -2.4824  -18.1094  -55.5846 H         1 UNK         0.0800 
    245 H245       -2.3866  -18.5919  -53.9241 H         1 UNK         0.0800 
    246 H246       -2.7326  -15.3978  -52.3059 H         1 UNK         0.0800 
    247 H247       -2.9977  -17.1123  -52.3547 H         1 UNK         0.0800 
@<TRIPOS>BOND
     1    1    2 1    
     2    1  127 1    
     3    1  128 1    
     4    1  129 1    
     5    2    3 2    
     6    2    4 am   BACKBONE|DICT|INTERRES
     7    4    5 1    
     8    4  130 1    
     9    5    6 1    
    10    5   65 1    
    11    5  131 1    
    12    6    7 1    
    13    6  132 1    
    14    6  133 1    
    15    7    8 1    
    16    8    9 1    
    17    8  134 1    
    18    8  135 1    
    19    9   10 ar   
    20    9   14 ar   
    21   10   11 ar   
    22   10  136 1    
    23   11   12 ar   
    24   11  126 1    
    25   12   13 ar   
    26   12  137 1    
    27   13   14 ar   
    28   13   15 1    
    29   14  138 1    
    30   15   16 1    
    31   15  139 1    
    32   15  140 1    
    33   16   17 1    
    34   17   18 1    
    35   17  141 1    
    36   17  142 1    
    37   18   19 1    
    38   18   67 1    
    39   18  143 1    
    40   19   20 am   BACKBONE|DICT|INTERRES
    41   19  144 1    
    42   20   21 2    
    43   20   22 1    
    44   22   23 1    
    45   22   24 1    
    46   22  145 1    
    47   23  146 1    
    48   23  147 1    
    49   23  148 1    
    50   24   25 am   BACKBONE|DICT|INTERRES
    51   24  149 1    
    52   25   26 2    
    53   25   27 1    
    54   27   28 1    
    55   27   29 1    
    56   27  150 1    
    57   28  151 1    
    58   28  152 1    
    59   28  153 1    
    60   29   30 am   BACKBONE|DICT|INTERRES
    61   29  154 1    
    62   30   31 2    
    63   30   32 1    
    64   32   33 1    
    65   32   34 1    
    66   32  155 1    
    67   33  156 1    
    68   33  157 1    
    69   33  158 1    
    70   34   35 am   BACKBONE|DICT|INTERRES
    71   34  159 1    
    72   35   36 2    
    73   35   37 1    
    74   37   38 1    
    75   37   39 1    
    76   37  160 1    
    77   38  161 1    
    78   38  162 1    
    79   38  163 1    
    80   39   40 am   BACKBONE|DICT|INTERRES
    81   39  164 1    
    82   40   41 2    
    83   40   42 1    
    84   42   43 1    
    85   42   44 1    
    86   42  165 1    
    87   43  166 1    
    88   43  167 1    
    89   43  168 1    
    90   44   45 am   BACKBONE|DICT|INTERRES
    91   44  169 1    
    92   45   46 2    
    93   45   47 1    
    94   47   48 1    
    95   47   49 1    
    96   47  170 1    
    97   48  171 1    
    98   48  172 1    
    99   48  173 1    
   100   49   50 am   BACKBONE|DICT|INTERRES
   101   49  174 1    
   102   50   51 2    
   103   50   52 1    
   104   52   53 1    
   105   52   54 1    
   106   52  175 1    
   107   53  176 1    
   108   53  177 1    
   109   53  178 1    
   110   54   55 am   BACKBONE|DICT|INTERRES
   111   54  179 1    
   112   55   56 2    
   113   55   57 1    
   114   57   58 1    
   115   57   59 1    
   116   57  180 1    
   117   58  181 1    
   118   58  182 1    
   119   58  183 1    
   120   59   60 am   BACKBONE|DICT|INTERRES
   121   59  184 1    
   122   60   61 2    
   123   60   62 1    
   124   62   63 1    
   125   62   64 1    
   126   62  185 1    
   127   63  186 1    
   128   63  187 1    
   129   63  188 1    
   130   64   65 am   BACKBONE|DICT|INTERRES
   131   64  189 1    
   132   65   66 2    
   133   67   68 2    
   134   67   69 am   BACKBONE|DICT|INTERRES
   135   69   70 1    
   136   69  190 1    
   137   70   71 1    
   138   70   72 1    
   139   70  191 1    
   140   71  192 1    
   141   71  193 1    
   142   71  194 1    
   143   72   73 2    
   144   72   74 am   BACKBONE|DICT|INTERRES
   145   74   75 1    
   146   74  195 1    
   147   75   76 1    
   148   75   77 1    
   149   75  196 1    
   150   76  197 1    
   151   76  198 1    
   152   76  199 1    
   153   77   78 2    
   154   77   79 am   BACKBONE|DICT|INTERRES
   155   79   80 1    
   156   79  200 1    
   157   80   81 1    
   158   80   82 1    
   159   80  201 1    
   160   81  202 1    
   161   81  203 1    
   162   81  204 1    
   163   82   83 2    
   164   82   84 am   BACKBONE|DICT|INTERRES
   165   84   85 1    
   166   84  205 1    
   167   85   86 1    
   168   85   87 1    
   169   85  206 1    
   170   86  207 1    
   171   86  208 1    
   172   86  209 1    
   173   87   88 2    
   174   87   89 am   BACKBONE|DICT|INTERRES
   175   89   90 1    
   176   89  210 1    
   177   90   91 1    
   178   90   92 1    
   179   90  211 1    
   180   91  212 1    
   181   91  213 1    
   182   91  214 1    
   183   92   93 2    
   184   92   94 am   BACKBONE|DICT|INTERRES
   185   94   95 1    
   186   94  215 1    
   187   95   96 1    
   188   95   97 1    
   189   95  216 1    
   190   96  217 1    
   191   96  218 1    
   192   96  219 1    
   193   97   98 2    
   194   97   99 am   BACKBONE|DICT|INTERRES
   195   99  100 1    
   196   99  220 1    
   197  100  101 1    
   198  100  102 1    
   199  100  221 1    
   200  101  222 1    
   201  101  223 1    
   202  101  224 1    
   203  102  103 2    
   204  102  104 am   BACKBONE|DICT|INTERRES
   205  104  105 1    
   206  104  225 1    
   207  105  106 1    
   208  105  107 1    
   209  105  226 1    
   210  106  227 1    
   211  106  228 1    
   212  106  229 1    
   213  107  108 2    
   214  107  109 am   BACKBONE|DICT|INTERRES
   215  109  110 1    
   216  109  230 1    
   217  110  111 1    
   218  110  112 1    
   219  110  231 1    
   220  111  232 1    
   221  111  233 1    
   222  111  234 1    
   223  112  113 2    
   224  112  114 am   BACKBONE|DICT|INTERRES
   225  114  115 1    
   226  114  235 1    
   227  115  116 1    
   228  115  117 1    
   229  115  236 1    
   230  116  237 1    
   231  116  238 1    
   232  116  239 1    
   233  117  118 2    
   234  117  119 am   BACKBONE|DICT|INTERRES
   235  119  120 1    
   236  119  240 1    
   237  120  121 1    
   238  120  124 1    
   239  120  241 1    
   240  121  122 am   BACKBONE|DICT|INTERRES
   241  121  123 2    
   242  122  242 1    
   243  122  243 1    
   244  124  125 1    
   245  124  244 1    
   246  124  245 1    
   247  125  126 1    
   248  126  246 1    
   249  126  247 1    
@<TRIPOS>SUBSTRUCTURE
     1 UNK         1 GROUP             0       ****    0 ROOT    
