@<TRIPOS>MOLECULE
3R540
247   249    1
SMALL
USER_CHARGES


@<TRIPOS>ATOM
      1 CA         -4.3298  -17.7384  -43.8887 C.3       0 UNK        -0.1800 
      2 C          -2.9576  -17.1549  -43.5612 C.2       0 UNK         0.5000 
      3 O          -2.5842  -17.1369  -42.3907 O.2       0 UNK        -0.5000 
      4 N          -2.1874  -16.6595  -44.5376 N.am      1 UNK        -0.5000 
      5 CA         -2.4911  -16.5984  -45.9697 C.3       1 UNK         0.1400 
      6 C6         -2.0248  -17.8760  -46.7252 C.3       23 UNK        -0.0398 
      7 S7         -3.4112  -18.7840  -47.4836 S.3       23 UNK        -0.2404 
      8 C8         -3.3322  -18.2711  -49.2275 C.3       23 UNK        -0.0205 
      9 C9         -2.0206  -18.6160  -49.9220 C.ar      23 UNK        -0.0193 
     10 C10        -1.4254  -17.6728  -50.7634 C.ar      23 UNK        -0.1150 
     11 C11        -0.2672  -17.9857  -51.4766 C.ar      23 UNK        -0.0193 
     12 C12         0.3244  -19.2406  -51.3124 C.ar      23 UNK        -0.1150 
     13 C13        -0.2510  -20.1903  -50.4638 C.ar      23 UNK        -0.0193 
     14 C14        -1.4291  -19.8767  -49.7787 C.ar      23 UNK        -0.1150 
     15 C15         0.3690  -21.5736  -50.3394 C.3       23 UNK        -0.0205 
     16 S16         1.8988  -21.5865  -49.3492 S.3       23 UNK        -0.2404 
     17 C17         1.2958  -21.2765  -47.6556 C.3       23 UNK        -0.0398 
     18 CA          0.8357  -22.5723  -46.9295 C.3       11 UNK         0.1400 
     19 N           1.2965  -22.6365  -45.5399 N.am      11 UNK        -0.5000 
     20 C           1.2507  -23.7297  -44.7636 C.2       10 UNK         0.5000 
     21 O           0.8886  -24.8365  -45.1622 O.2       10 UNK        -0.5000 
     22 CA          1.6257  -23.5400  -43.2802 C.3       10 UNK         0.1400 
     23 CB          3.1447  -23.6563  -43.0868 C.3       10 UNK        -0.1800 
     24 N           1.1664  -22.2554  -42.7466 N.am      10 UNK        -0.5000 
     25 C          -0.1226  -21.9265  -42.5770 C.2       9 UNK         0.5000 
     26 O          -1.0502  -22.7145  -42.7594 O.2       9 UNK        -0.5000 
     27 CA         -0.4320  -20.4605  -42.2031 C.3       9 UNK         0.1400 
     28 CB         -0.5570  -20.3045  -40.6819 C.3       9 UNK        -0.1800 
     29 N           0.5468  -19.4945  -42.7175 N.am      9 UNK        -0.5000 
     30 C           0.8329  -19.3206  -44.0167 C.2       8 UNK         0.5000 
     31 O           0.2820  -19.9644  -44.9093 O.2       8 UNK        -0.5000 
     32 CA          1.9263  -18.3069  -44.4019 C.3       8 UNK         0.1400 
     33 CB          1.4799  -17.4239  -45.5761 C.3       8 UNK        -0.1800 
     34 N           2.3341  -17.4589  -43.2826 N.am      8 UNK        -0.5000 
     35 C           3.3630  -17.7152  -42.4611 C.2       7 UNK         0.5000 
     36 O           4.0977  -18.6957  -42.5814 O.2       7 UNK        -0.5000 
     37 CA          3.6054  -16.7358  -41.2934 C.3       7 UNK         0.1400 
     38 CB          4.7851  -15.8026  -41.6018 C.3       7 UNK        -0.1800 
     39 N           2.4272  -15.9329  -40.9590 N.am      7 UNK        -0.5000 
     40 C           1.3238  -16.4240  -40.3761 C.2       6 UNK         0.5000 
     41 O           1.2270  -17.5908  -39.9961 O.2       6 UNK        -0.5000 
     42 CA          0.1148  -15.4775  -40.2212 C.3       6 UNK         0.1400 
     43 CB          0.0434  -14.9303  -38.7876 C.3       6 UNK        -0.1800 
     44 N           0.0890  -14.3516  -41.1617 N.am      6 UNK        -0.5000 
     45 C           0.0635  -14.4598  -42.4968 C.2       5 UNK         0.5000 
     46 O           0.1141  -15.5403  -43.0873 O.2       5 UNK        -0.5000 
     47 CA          0.0047  -13.1600  -43.3266 C.3       5 UNK         0.1400 
     48 CB          0.1674  -11.8607  -42.5050 C.3       5 UNK        -0.1800 
     49 N           0.9631  -13.2127  -44.4354 N.am      5 UNK        -0.5000 
     50 C           2.2940  -13.3350  -44.3290 C.2       4 UNK         0.5000 
     51 O           2.8886  -13.2996  -43.2501 O.2       4 UNK        -0.5000 
     52 CA          3.0982  -13.5511  -45.6251 C.3       4 UNK         0.1400 
     53 CB          4.3236  -14.4626  -45.3898 C.3       4 UNK        -0.1800 
     54 N           2.2837  -14.0720  -46.7316 N.am      4 UNK        -0.5000 
     55 C           2.6371  -13.9701  -48.0220 C.2       3 UNK         0.5000 
     56 O           3.6246  -13.3441  -48.4103 O.2       3 UNK        -0.5000 
     57 CA          1.7681  -14.7025  -49.0635 C.3       3 UNK         0.1400 
     58 CB          2.2282  -16.1617  -49.2033 C.3       3 UNK        -0.1800 
     59 N           0.3333  -14.6699  -48.7795 N.am      3 UNK        -0.5000 
     60 C          -0.4202  -13.5610  -48.7886 C.2       2 UNK         0.5000 
     61 O           0.0232  -12.4409  -49.0438 O.2       2 UNK        -0.5000 
     62 CA         -1.9239  -13.7128  -48.4688 C.3       2 UNK         0.1400 
     63 CB         -2.7528  -13.6143  -49.7599 C.3       2 UNK        -0.1800 
     64 N          -2.3116  -14.9387  -47.7598 N.am      2 UNK        -0.5000 
     65 C          -1.8537  -15.3298  -46.5640 C.2       1 UNK         0.5000 
     66 O          -0.9503  -14.7477  -45.9626 O.2       1 UNK        -0.5000 
     67 C          -0.6942  -22.7282  -46.9885 C.2       11 UNK         0.5000 
     68 O          -1.1953  -23.5007  -47.8038 O.2       11 UNK        -0.5000 
     69 N          -1.3996  -22.0291  -46.0860 N.am      12 UNK        -0.5000 
     70 CA         -2.8517  -22.0954  -45.9231 C.3       12 UNK         0.1400 
     71 CB         -3.3063  -21.1327  -44.8153 C.3       12 UNK        -0.1800 
     72 C          -3.3459  -23.5206  -45.6323 C.2       12 UNK         0.5000 
     73 O          -4.2857  -23.9745  -46.2823 O.2       12 UNK        -0.5000 
     74 N          -2.6728  -24.2101  -44.7019 N.am      13 UNK        -0.5000 
     75 CA         -2.9363  -25.6038  -44.3484 C.3       13 UNK         0.1400 
     76 CB         -2.0925  -25.9829  -43.1220 C.3       13 UNK        -0.1800 
     77 C          -2.6796  -26.5823  -45.5103 C.2       13 UNK         0.5000 
     78 O          -3.4691  -27.5069  -45.7058 O.2       13 UNK        -0.5000 
     79 N          -1.5925  -26.3594  -46.2615 N.am      14 UNK        -0.5000 
     80 CA         -1.1938  -27.1845  -47.4014 C.3       14 UNK         0.1400 
     81 CB          0.2632  -26.8693  -47.7754 C.3       14 UNK        -0.1800 
     82 C          -2.1166  -27.0149  -48.6220 C.2       14 UNK         0.5000 
     83 O          -2.5285  -28.0124  -49.2156 O.2       14 UNK        -0.5000 
     84 N          -2.4130  -25.7600  -48.9821 N.am      15 UNK        -0.5000 
     85 CA         -3.1727  -25.4009  -50.1814 C.3       15 UNK         0.1400 
     86 CB         -2.6843  -24.0303  -50.6789 C.3       15 UNK        -0.1800 
     87 C          -4.6963  -25.3711  -49.9677 C.2       15 UNK         0.5000 
     88 O          -5.4244  -25.1935  -50.9433 O.2       15 UNK        -0.5000 
     89 N          -5.1554  -25.4853  -48.7124 N.am      16 UNK        -0.5000 
     90 CA         -6.5376  -25.2639  -48.2622 C.3       16 UNK         0.1400 
     91 CB         -7.4966  -26.3261  -48.8396 C.3       16 UNK        -0.1800 
     92 C          -6.9916  -23.8110  -48.5310 C.2       16 UNK         0.5000 
     93 O          -8.1057  -23.5729  -48.9998 O.2       16 UNK        -0.5000 
     94 N          -6.0748  -22.8744  -48.2480 N.am      17 UNK        -0.5000 
     95 CA         -6.1611  -21.4211  -48.4238 C.3       17 UNK         0.1400 
     96 CB         -7.2244  -20.8215  -47.4823 C.3       17 UNK        -0.1800 
     97 C          -6.3217  -20.9450  -49.8856 C.2       17 UNK         0.5000 
     98 O          -6.7027  -19.7943  -50.1070 O.2       17 UNK        -0.5000 
     99 N          -6.0147  -21.8084  -50.8636 N.am      18 UNK        -0.5000 
    100 CA        -6.0515  -21.4850  -52.2876 C.3       18 UNK         0.1400 
    101 CB        -6.1880  -22.7813  -53.1029 C.3       18 UNK        -0.1800 
    102 C         -4.7974  -20.6922  -52.6959 C.2       18 UNK         0.5000 
    103 O         -3.7335  -21.2832  -52.8907 O.2       18 UNK        -0.5000 
    104 N         -4.9431  -19.3693  -52.8354 N.am      19 UNK        -0.5000 
    105 CA        -3.9039  -18.4496  -53.3043 C.3       19 UNK         0.1400 
    106 CB        -4.2224  -17.0369  -52.7811 C.3       19 UNK        -0.1800 
    107 C         -3.7728  -18.4954  -54.8417 C.2       19 UNK         0.5000 
    108 O         -4.0325  -17.4981  -55.5194 O.2       19 UNK        -0.5000 
    109 N         -3.4156  -19.6747  -55.3664 N.am      20 UNK        -0.5000 
    110 CA        -3.2747  -19.9804  -56.7895 C.3       20 UNK         0.1400 
    111 CB        -2.9091  -21.4647  -56.9478 C.3       20 UNK        -0.1800 
    112 C         -2.2375  -19.0719  -57.4748 C.2       20 UNK         0.5000 
    113 O         -1.0503  -19.1539  -57.1552 O.2       20 UNK        -0.5000 
    114 N         -2.7213  -18.1951  -58.3653 N.am      21 UNK        -0.5000 
    115 CA        -2.0141  -17.1482  -59.1183 C.3       21 UNK         0.1400 
    116 CB        -0.8985  -17.7396  -60.0016 C.3       21 UNK        -0.1800 
    117 C         -1.4863  -15.9765  -58.2626 C.2       21 UNK         0.5000 
    118 O         -1.5398  -14.8331  -58.7178 O.2       21 UNK        -0.5000 
    119 N         -0.9946  -16.2642  -57.0535 N.am      22 UNK        -0.5000 
    120 CA        -0.4863  -15.2864  -56.0804 C.3       22 UNK         0.1400 
    121 C         -1.5742  -14.4265  -55.3717 C.2       22 UNK         0.5000 
    122 N         -2.8448  -14.8108  -55.3782 N.am      22 UNK        -0.7600 
    123 O         -1.2580  -13.3759  -54.8203 O.2       22 UNK        -0.5000 
    124 C124        0.4864  -15.9472  -55.0705 C.3       23 UNK        -0.0398 
    125 S125       -0.2589  -17.3301  -54.1382 S.3       23 UNK        -0.2404 
    126 C126        0.3203  -16.9815  -52.4530 C.3       23 UNK        -0.0205 
    127 H127       -4.3175  -18.3345  -44.7976 H         1 UNK         0.0600 
    128 H128       -4.6691  -18.3861  -43.0801 H         1 UNK         0.0600 
    129 H129       -5.0598  -16.9383  -44.0090 H         1 UNK         0.0600 
    130 H130       -1.3102  -16.2134  -44.2781 H         1 UNK         0.3000 
    131 H131       -3.5672  -16.4579  -46.0861 H         1 UNK         0.0600 
    132 H132       -1.2664  -17.6712  -47.4825 H         1 UNK         0.0800 
    133 H133       -1.5359  -18.5669  -46.0410 H         1 UNK         0.0800 
    134 H134       -3.5327  -17.2013  -49.2847 H         1 UNK         0.0800 
    135 H135       -4.1413  -18.7603  -49.7700 H         1 UNK         0.0800 
    136 H136       -1.8857  -16.7052  -50.9000 H         1 UNK         0.1150 
    137 H137        1.2194  -19.4884  -51.8656 H         1 UNK         0.1150 
    138 H138       -1.8936  -20.6190  -49.1451 H         1 UNK         0.1150 
    139 H139       -0.3453  -22.2792  -49.9198 H         1 UNK         0.0800 
    140 H140        0.6001  -21.9460  -51.3383 H         1 UNK         0.0800 
    141 H141        0.5283  -20.4999  -47.6670 H         1 UNK         0.0800 
    142 H142        2.1347  -20.8291  -47.1209 H         1 UNK         0.0800 
    143 H143        1.2699  -23.4360  -47.4382 H         1 UNK         0.0600 
    144 H144        1.5130  -21.7500  -45.1072 H         1 UNK         0.3000 
    145 H145        1.1455  -24.3385  -42.7104 H         1 UNK         0.0600 
    146 H146        3.4132  -23.5968  -42.0319 H         1 UNK         0.0600 
    147 H147        3.5131  -24.6123  -43.4615 H         1 UNK         0.0600 
    148 H148        3.6812  -22.8673  -43.6152 H         1 UNK         0.0600 
    149 H149        1.8703  -21.5555  -42.5631 H         1 UNK         0.3000 
    150 H150       -1.3973  -20.2093  -42.6460 H         1 UNK         0.0600 
    151 H151       -1.2709  -21.0196  -40.2710 H         1 UNK         0.0600 
    152 H152       -0.9120  -19.3075  -40.4196 H         1 UNK         0.0600 
    153 H153        0.3981  -20.4649  -40.1804 H         1 UNK         0.0600 
    154 H154        1.0185  -18.9190  -42.0332 H         1 UNK         0.3000 
    155 H155        2.7804  -18.8926  -44.7474 H         1 UNK         0.0600 
    156 H156        0.6262  -16.8042  -45.3114 H         1 UNK         0.0600 
    157 H157        1.1940  -18.0270  -46.4386 H         1 UNK         0.0600 
    158 H158        2.2876  -16.7690  -45.8959 H         1 UNK         0.0600 
    159 H159        1.7309  -16.6634  -43.0920 H         1 UNK         0.3000 
    160 H160        3.8697  -17.3326  -40.4179 H         1 UNK         0.0600 
    161 H161        4.9950  -15.1394  -40.7626 H         1 UNK         0.0600 
    162 H162        4.5907  -15.1848  -42.4774 H         1 UNK         0.0600 
    163 H163        5.6932  -16.3734  -41.8000 H         1 UNK         0.0600 
    164 H164        2.4265  -14.9715  -41.2725 H         1 UNK         0.3000 
    165 H165       -0.7812  -16.0744  -40.4044 H         1 UNK         0.0600 
    166 H166       -0.8624  -14.3438  -38.6329 H         1 UNK         0.0600 
    167 H167        0.0306  -15.7422  -38.0590 H         1 UNK         0.0600 
    168 H168        0.9000  -14.2957  -38.5570 H         1 UNK         0.0600 
    169 H169        0.0730  -13.4278  -40.7551 H         1 UNK         0.3000 
    170 H170       -0.9873  -13.1380  -43.7795 H         1 UNK         0.0600 
    171 H171       -0.6420  -11.7468  -41.7831 H         1 UNK         0.0600 
    172 H172        1.1095  -11.8306  -41.9568 H         1 UNK         0.0600 
    173 H173        0.1374  -10.9857  -43.1544 H         1 UNK         0.0600 
    174 H174        0.5343  -13.3280  -45.3444 H         1 UNK         0.3000 
    175 H175        3.4621  -12.5611  -45.9073 H         1 UNK         0.0600 
    176 H176        4.0284  -15.4459  -45.0237 H         1 UNK         0.0600 
    177 H177        4.9053  -14.6057  -46.3001 H         1 UNK         0.0600 
    178 H178        4.9992  -14.0284  -44.6521 H         1 UNK         0.0600 
    179 H179        1.4480  -14.5863  -46.4856 H         1 UNK         0.3000 
    180 H180        1.9253  -14.2088  -50.0250 H         1 UNK         0.0600 
    181 H181        3.2941  -16.2166  -49.4282 H         1 UNK         0.0600 
    182 H182        1.7041  -16.6672  -50.0104 H         1 UNK         0.0600 
    183 H183        2.0566  -16.7313  -48.2919 H         1 UNK         0.0600 
    184 H184       -0.1105  -15.5485  -48.5631 H         1 UNK         0.3000 
    185 H185       -2.1943  -12.8717  -47.8272 H         1 UNK         0.0600 
    186 H186       -2.5321  -12.6918  -50.2987 H         1 UNK         0.0600 
    187 H187       -2.5459  -14.4439  -50.4364 H         1 UNK         0.0600 
    188 H188       -3.8217  -13.6128  -49.5459 H         1 UNK         0.0600 
    189 H189       -3.0545  -15.4702  -48.1876 H         1 UNK         0.3000 
    190 H190       -0.8963  -21.3871  -45.4812 H         1 UNK         0.3000 
    191 H191       -3.2891  -21.7691  -46.8673 H         1 UNK         0.0600 
    192 H192       -3.1210  -21.5315  -43.8187 H         1 UNK         0.0600 
    193 H193       -4.3772  -20.9417  -44.8907 H         1 UNK         0.0600 
    194 H194       -2.7951  -20.1746  -44.8826 H         1 UNK         0.0600 
    195 H195       -1.9440  -23.7353  -44.1771 H         1 UNK         0.3000 
    196 H196       -3.9904  -25.6834  -44.0745 H         1 UNK         0.0600 
    197 H197       -2.2824  -27.0134  -42.8193 H         1 UNK         0.0600 
    198 H198       -2.3271  -25.3444  -42.2701 H         1 UNK         0.0600 
    199 H199       -1.0248  -25.8899  -43.3240 H         1 UNK         0.0600 
    200 H200       -0.9768  -25.5925  -46.0178 H         1 UNK         0.3000 
    201 H201       -1.2401  -28.2314  -47.0940 H         1 UNK         0.0600 
    202 H202        0.3918  -25.8230  -48.0543 H         1 UNK         0.0600 
    203 H203        0.9362  -27.0772  -46.9435 H         1 UNK         0.0600 
    204 H204        0.5914  -27.4776  -48.6191 H         1 UNK         0.0600 
    205 H205       -2.0137  -24.9863  -48.4521 H         1 UNK         0.3000 
    206 H206       -2.9710  -26.1319  -50.9671 H         1 UNK         0.0600 
    207 H207       -2.8753  -23.2420  -49.9496 H         1 UNK         0.0600 
    208 H208       -1.6145  -24.0489  -50.8850 H         1 UNK         0.0600 
    209 H209       -3.1833  -23.7451  -51.6058 H         1 UNK         0.0600 
    210 H210       -4.4713  -25.5822  -47.9731 H         1 UNK         0.3000 
    211 H211       -6.5298  -25.3864  -47.1782 H         1 UNK         0.0600 
    212 H212       -7.6205  -26.2242  -49.9179 H         1 UNK         0.0600 
    213 H213       -8.4864  -26.2393  -48.3901 H         1 UNK         0.0600 
    214 H214       -7.1352  -27.3341  -48.6367 H         1 UNK         0.0600 
    215 H215       -5.2280  -23.2108  -47.7994 H         1 UNK         0.3000 
    216 H216       -5.1948  -21.0345  -48.1036 H         1 UNK         0.0600 
    217 H217       -8.2332  -21.1155  -47.7730 H         1 UNK         0.0600 
    218 H218       -7.1853  -19.7316  -47.4892 H         1 UNK         0.0600 
    219 H219       -7.0633  -21.1415  -46.4527 H         1 UNK         0.0600 
    220 H220       -5.7143  -22.7418  -50.6201 H         1 UNK         0.3000 
    221 H221       -6.9362  -20.8779  -52.4916 H         1 UNK         0.0600 
    222 H222       -5.3287  -23.4390  -52.9697 H         1 UNK         0.0600 
    223 H223       -7.0804  -23.3370  -52.8144 H         1 UNK         0.0600 
    224 H224       -6.2687  -22.5630  -54.1684 H         1 UNK         0.0600 
    225 H225       -5.8468  -18.9599  -52.6451 H         1 UNK         0.3000 
    226 H226       -2.9431  -18.7558  -52.8863 H         1 UNK         0.0600 
    227 H227       -4.3320  -17.0292  -51.6977 H         1 UNK         0.0600 
    228 H228       -3.4189  -16.3428  -53.0295 H         1 UNK         0.0600 
    229 H229       -5.1450  -16.6438  -53.2096 H         1 UNK         0.0600 
    230 H230       -3.2330  -20.4333  -54.7186 H         1 UNK         0.3000 
    231 H231       -4.2482  -19.8225  -57.2581 H         1 UNK         0.0600 
    232 H232       -3.6805  -22.1085  -56.5244 H         1 UNK         0.0600 
    233 H233       -1.9665  -21.7021  -56.4527 H         1 UNK         0.0600 
    234 H234       -2.8042  -21.7308  -58.0003 H         1 UNK         0.0600 
    235 H235       -3.7234  -18.1873  -58.4970 H         1 UNK         0.3000 
    236 H236       -2.7626  -16.7224  -59.7884 H         1 UNK         0.0600 
    237 H237       -0.4696  -16.9728  -60.6479 H         1 UNK         0.0600 
    238 H238       -0.0831  -18.1546  -59.4088 H         1 UNK         0.0600 
    239 H239       -1.2824  -18.5302  -60.6462 H         1 UNK         0.0600 
    240 H240       -0.9694  -17.2382  -56.7686 H         1 UNK         0.3000 
    241 H241        0.1094  -14.5695  -56.6489 H         1 UNK         0.0600 
    242 H242       -3.5338  -14.2308  -54.9285 H         1 UNK         0.3800 
    243 H243       -3.1207  -15.7144  -55.7469 H         1 UNK         0.3800 
    244 H244        0.8833  -15.2003  -54.3808 H         1 UNK         0.0800 
    245 H245        1.3522  -16.3394  -55.6055 H         1 UNK         0.0800 
    246 H246        1.4100  -17.0261  -52.4278 H         1 UNK         0.0800 
    247 H247        0.0390  -15.9660  -52.1684 H         1 UNK         0.0800 
@<TRIPOS>BOND
     1    1    2 1    
     2    1  127 1    
     3    1  128 1    
     4    1  129 1    
     5    2    3 2    
     6    2    4 am   BACKBONE|DICT|INTERRES
     7    4    5 1    
     8    4  130 1    
     9    5    6 1    
    10    5   65 1    
    11    5  131 1    
    12    6    7 1    
    13    6  132 1    
    14    6  133 1    
    15    7    8 1    
    16    8    9 1    
    17    8  134 1    
    18    8  135 1    
    19    9   10 ar   
    20    9   14 ar   
    21   10   11 ar   
    22   10  136 1    
    23   11   12 ar   
    24   11  126 1    
    25   12   13 ar   
    26   12  137 1    
    27   13   14 ar   
    28   13   15 1    
    29   14  138 1    
    30   15   16 1    
    31   15  139 1    
    32   15  140 1    
    33   16   17 1    
    34   17   18 1    
    35   17  141 1    
    36   17  142 1    
    37   18   19 1    
    38   18   67 1    
    39   18  143 1    
    40   19   20 am   BACKBONE|DICT|INTERRES
    41   19  144 1    
    42   20   21 2    
    43   20   22 1    
    44   22   23 1    
    45   22   24 1    
    46   22  145 1    
    47   23  146 1    
    48   23  147 1    
    49   23  148 1    
    50   24   25 am   BACKBONE|DICT|INTERRES
    51   24  149 1    
    52   25   26 2    
    53   25   27 1    
    54   27   28 1    
    55   27   29 1    
    56   27  150 1    
    57   28  151 1    
    58   28  152 1    
    59   28  153 1    
    60   29   30 am   BACKBONE|DICT|INTERRES
    61   29  154 1    
    62   30   31 2    
    63   30   32 1    
    64   32   33 1    
    65   32   34 1    
    66   32  155 1    
    67   33  156 1    
    68   33  157 1    
    69   33  158 1    
    70   34   35 am   BACKBONE|DICT|INTERRES
    71   34  159 1    
    72   35   36 2    
    73   35   37 1    
    74   37   38 1    
    75   37   39 1    
    76   37  160 1    
    77   38  161 1    
    78   38  162 1    
    79   38  163 1    
    80   39   40 am   BACKBONE|DICT|INTERRES
    81   39  164 1    
    82   40   41 2    
    83   40   42 1    
    84   42   43 1    
    85   42   44 1    
    86   42  165 1    
    87   43  166 1    
    88   43  167 1    
    89   43  168 1    
    90   44   45 am   BACKBONE|DICT|INTERRES
    91   44  169 1    
    92   45   46 2    
    93   45   47 1    
    94   47   48 1    
    95   47   49 1    
    96   47  170 1    
    97   48  171 1    
    98   48  172 1    
    99   48  173 1    
   100   49   50 am   BACKBONE|DICT|INTERRES
   101   49  174 1    
   102   50   51 2    
   103   50   52 1    
   104   52   53 1    
   105   52   54 1    
   106   52  175 1    
   107   53  176 1    
   108   53  177 1    
   109   53  178 1    
   110   54   55 am   BACKBONE|DICT|INTERRES
   111   54  179 1    
   112   55   56 2    
   113   55   57 1    
   114   57   58 1    
   115   57   59 1    
   116   57  180 1    
   117   58  181 1    
   118   58  182 1    
   119   58  183 1    
   120   59   60 am   BACKBONE|DICT|INTERRES
   121   59  184 1    
   122   60   61 2    
   123   60   62 1    
   124   62   63 1    
   125   62   64 1    
   126   62  185 1    
   127   63  186 1    
   128   63  187 1    
   129   63  188 1    
   130   64   65 am   BACKBONE|DICT|INTERRES
   131   64  189 1    
   132   65   66 2    
   133   67   68 2    
   134   67   69 am   BACKBONE|DICT|INTERRES
   135   69   70 1    
   136   69  190 1    
   137   70   71 1    
   138   70   72 1    
   139   70  191 1    
   140   71  192 1    
   141   71  193 1    
   142   71  194 1    
   143   72   73 2    
   144   72   74 am   BACKBONE|DICT|INTERRES
   145   74   75 1    
   146   74  195 1    
   147   75   76 1    
   148   75   77 1    
   149   75  196 1    
   150   76  197 1    
   151   76  198 1    
   152   76  199 1    
   153   77   78 2    
   154   77   79 am   BACKBONE|DICT|INTERRES
   155   79   80 1    
   156   79  200 1    
   157   80   81 1    
   158   80   82 1    
   159   80  201 1    
   160   81  202 1    
   161   81  203 1    
   162   81  204 1    
   163   82   83 2    
   164   82   84 am   BACKBONE|DICT|INTERRES
   165   84   85 1    
   166   84  205 1    
   167   85   86 1    
   168   85   87 1    
   169   85  206 1    
   170   86  207 1    
   171   86  208 1    
   172   86  209 1    
   173   87   88 2    
   174   87   89 am   BACKBONE|DICT|INTERRES
   175   89   90 1    
   176   89  210 1    
   177   90   91 1    
   178   90   92 1    
   179   90  211 1    
   180   91  212 1    
   181   91  213 1    
   182   91  214 1    
   183   92   93 2    
   184   92   94 am   BACKBONE|DICT|INTERRES
   185   94   95 1    
   186   94  215 1    
   187   95   96 1    
   188   95   97 1    
   189   95  216 1    
   190   96  217 1    
   191   96  218 1    
   192   96  219 1    
   193   97   98 2    
   194   97   99 am   BACKBONE|DICT|INTERRES
   195   99  100 1    
   196   99  220 1    
   197  100  101 1    
   198  100  102 1    
   199  100  221 1    
   200  101  222 1    
   201  101  223 1    
   202  101  224 1    
   203  102  103 2    
   204  102  104 am   BACKBONE|DICT|INTERRES
   205  104  105 1    
   206  104  225 1    
   207  105  106 1    
   208  105  107 1    
   209  105  226 1    
   210  106  227 1    
   211  106  228 1    
   212  106  229 1    
   213  107  108 2    
   214  107  109 am   BACKBONE|DICT|INTERRES
   215  109  110 1    
   216  109  230 1    
   217  110  111 1    
   218  110  112 1    
   219  110  231 1    
   220  111  232 1    
   221  111  233 1    
   222  111  234 1    
   223  112  113 2    
   224  112  114 am   BACKBONE|DICT|INTERRES
   225  114  115 1    
   226  114  235 1    
   227  115  116 1    
   228  115  117 1    
   229  115  236 1    
   230  116  237 1    
   231  116  238 1    
   232  116  239 1    
   233  117  118 2    
   234  117  119 am   BACKBONE|DICT|INTERRES
   235  119  120 1    
   236  119  240 1    
   237  120  121 1    
   238  120  124 1    
   239  120  241 1    
   240  121  122 am   BACKBONE|DICT|INTERRES
   241  121  123 2    
   242  122  242 1    
   243  122  243 1    
   244  124  125 1    
   245  124  244 1    
   246  124  245 1    
   247  125  126 1    
   248  126  246 1    
   249  126  247 1    
@<TRIPOS>SUBSTRUCTURE
     1 UNK         1 GROUP             0       ****    0 ROOT    
