@<TRIPOS>MOLECULE
3R540
247   249    1
SMALL
USER_CHARGES


@<TRIPOS>ATOM
      1 CA         -1.4061  -16.2929  -48.0648 C.3       0 UNK        -0.1800 
      2 C          -0.2895  -15.2599  -48.0200 C.2       0 UNK         0.5000 
      3 O          -0.4851  -14.1752  -47.4725 O.2       0 UNK        -0.5000 
      4 N           0.8710  -15.5863  -48.5990 N.am      1 UNK        -0.5000 
      5 CA          2.0798  -14.7557  -48.5655 C.3       1 UNK         0.1400 
      6 C6          3.0234  -15.0665  -49.7533 C.3       23 UNK        -0.0398 
      7 S7          2.2848  -14.5383  -51.3375 S.3       23 UNK        -0.2404 
      8 C8          2.2686  -16.0810  -52.3016 C.3       23 UNK        -0.0205 
      9 C9          1.3456  -17.1353  -51.7092 C.ar      23 UNK        -0.0193 
     10 C10        -0.0410  -16.9707  -51.7580 C.ar      23 UNK        -0.1150 
     11 C11        -0.8960  -17.9611  -51.2626 C.ar      23 UNK        -0.0193 
     12 C12        -0.3477  -19.1172  -50.6938 C.ar      23 UNK        -0.1150 
     13 C13         1.0400  -19.2883  -50.6333 C.ar      23 UNK        -0.0193 
     14 C14         1.8786  -18.2953  -51.1441 C.ar      23 UNK        -0.1150 
     15 C15         1.6445  -20.5684  -50.0770 C.3       23 UNK        -0.0205 
     16 S16         2.6038  -20.3077  -48.5479 S.3       23 UNK        -0.2404 
     17 C17         1.3183  -20.0063  -47.2888 C.3       23 UNK        -0.0398 
     18 CA          0.6957  -21.3228  -46.7426 C.3       11 UNK         0.1400 
     19 N           0.5131  -21.3227  -45.2868 N.am      11 UNK        -0.5000 
     20 C           0.1055  -22.3838  -44.5716 C.2       10 UNK         0.5000 
     21 O          -0.1156  -23.4930  -45.0555 O.2       10 UNK        -0.5000 
     22 CA         -0.1570  -22.1663  -43.0720 C.3       10 UNK         0.1400 
     23 CB          1.1532  -22.2079  -42.2723 C.3       10 UNK        -0.1800 
     24 N          -0.8787  -20.9232  -42.8013 N.am      10 UNK        -0.5000 
     25 C          -2.1159  -20.6570  -43.2465 C.2       9 UNK         0.5000 
     26 O          -2.7958  -21.4519  -43.8947 O.2       9 UNK        -0.5000 
     27 CA         -2.6736  -19.2522  -42.9635 C.3       9 UNK         0.1400 
     28 CB         -3.2135  -19.1604  -41.5288 C.3       9 UNK        -0.1800 
     29 N          -1.6882  -18.1957  -43.1909 N.am      9 UNK        -0.5000 
     30 C          -1.1069  -17.9352  -44.3712 C.2       8 UNK         0.5000 
     31 O          -1.3611  -18.5431  -45.4130 O.2       8 UNK        -0.5000 
     32 CA         -0.0122  -16.8539  -44.3711 C.3       8 UNK         0.1400 
     33 CB         -0.6161  -15.4461  -44.2607 C.3       8 UNK        -0.1800 
     34 N           0.9627  -17.0472  -43.2985 N.am      8 UNK        -0.5000 
     35 C           1.7375  -18.1311  -43.1555 C.2       7 UNK         0.5000 
     36 O           1.7495  -19.0784  -43.9404 O.2       7 UNK        -0.5000 
     37 CA          2.5997  -18.1957  -41.8849 C.3       7 UNK         0.1400 
     38 CB          3.8811  -17.3647  -42.0455 C.3       7 UNK        -0.1800 
     39 N           1.8588  -17.7525  -40.7031 N.am      7 UNK        -0.5000 
     40 C           0.8372  -18.4294  -40.1579 C.2       6 UNK         0.5000 
     41 O           0.4326  -19.5126  -40.5774 O.2       6 UNK        -0.5000 
     42 CA          0.1211  -17.7655  -38.9686 C.3       6 UNK         0.1400 
     43 CB          0.8912  -18.0134  -37.6630 C.3       6 UNK        -0.1800 
     44 N          -0.0642  -16.3273  -39.1587 N.am      6 UNK        -0.5000 
     45 C          -0.8485  -15.7822  -40.0993 C.2       5 UNK         0.5000 
     46 O          -1.5318  -16.4367  -40.8855 O.2       5 UNK        -0.5000 
     47 CA         -0.8270  -14.2471  -40.2092 C.3       5 UNK         0.1400 
     48 CB         -1.8563  -13.6229  -39.2556 C.3       5 UNK        -0.1800 
     49 N           0.4934  -13.6665  -39.9490 N.am      5 UNK        -0.5000 
     50 C           1.5875  -13.9080  -40.6825 C.2       4 UNK         0.5000 
     51 O           1.6164  -14.6866  -41.6383 O.2       4 UNK        -0.5000 
     52 CA          2.8754  -13.1883  -40.2538 C.3       4 UNK         0.1400 
     53 CB          3.8838  -14.1789  -39.6515 C.3       4 UNK        -0.1800 
     54 N           3.4824  -12.5103  -41.3954 N.am      4 UNK        -0.5000 
     55 C           3.0329  -11.3586  -41.9106 C.2       3 UNK         0.5000 
     56 O           2.0984  -10.7146  -41.4311 O.2       3 UNK        -0.5000 
     57 CA          3.7523  -10.8249  -43.1624 C.3       3 UNK         0.1400 
     58 CB          4.8655   -9.8438  -42.7623 C.3       3 UNK        -0.1800 
     59 N           4.3250  -11.8782  -44.0047 N.am      3 UNK        -0.5000 
     60 C           3.6092  -12.6810  -44.8027 C.2       2 UNK         0.5000 
     61 O           2.3786  -12.6582  -44.8686 O.2       2 UNK        -0.5000 
     62 CA          4.4251  -13.6301  -45.6987 C.3       2 UNK         0.1400 
     63 CB          4.8986  -14.8822  -44.9313 C.3       2 UNK        -0.1800 
     64 N           3.7095  -13.9293  -46.9478 N.am      2 UNK        -0.5000 
     65 C           2.8089  -14.8891  -47.2097 C.2       1 UNK         0.5000 
     66 O           2.5606  -15.8414  -46.4680 O.2       1 UNK        -0.5000 
     67 C          -0.6225  -21.6471  -47.4674 C.2       11 UNK         0.5000 
     68 O          -0.6574  -22.5655  -48.2868 O.2       11 UNK        -0.5000 
     69 N          -1.6890  -20.9120  -47.1207 N.am      12 UNK        -0.5000 
     70 CA         -3.0290  -21.0888  -47.6759 C.3       12 UNK         0.1400 
     71 CB         -3.9652  -20.0068  -47.1203 C.3       12 UNK        -0.1800 
     72 C          -3.6008  -22.4980  -47.4374 C.2       12 UNK         0.5000 
     73 O          -4.1748  -23.0736  -48.3608 O.2       12 UNK        -0.5000 
     74 N          -3.3981  -23.0446  -46.2318 N.am      13 UNK        -0.5000 
     75 CA         -3.7865  -24.4061  -45.8702 C.3       13 UNK         0.1400 
     76 CB         -3.6399  -24.5995  -44.3530 C.3       13 UNK        -0.1800 
     77 C          -2.9915  -25.4776  -46.6387 C.2       13 UNK         0.5000 
     78 O          -3.5975  -26.3900  -47.2016 O.2       13 UNK        -0.5000 
     79 N          -1.6570  -25.3500  -46.6536 N.am      14 UNK        -0.5000 
     80 CA         -0.7420  -26.3161  -47.2643 C.3       14 UNK         0.1400 
     81 CB          0.6992  -26.0086  -46.8301 C.3       14 UNK        -0.1800 
     82 C          -0.8375  -26.3656  -48.7978 C.2       14 UNK         0.5000 
     83 O          -0.8234  -27.4561  -49.3704 O.2       14 UNK        -0.5000 
     84 N          -0.9312  -25.1915  -49.4341 N.am      15 UNK        -0.5000 
     85 CA         -0.9670  -25.0478  -50.8900 C.3       15 UNK         0.1400 
     86 CB         -0.2700  -23.7321  -51.2716 C.3       15 UNK        -0.1800 
     87 C          -2.3924  -25.1024  -51.4720 C.2       15 UNK         0.5000 
     88 O          -2.5365  -24.9865  -52.6895 O.2       15 UNK        -0.5000 
     89 N          -3.4164  -25.2345  -50.6133 N.am      16 UNK        -0.5000 
     90 CA         -4.8494  -25.2293  -50.9380 C.3       16 UNK         0.1400 
     91 CB         -5.2344  -26.4983  -51.7263 C.3       16 UNK        -0.1800 
     92 C          -5.2611  -23.9268  -51.6539 C.2       16 UNK         0.5000 
     93 O          -5.7999  -23.9597  -52.7621 O.2       16 UNK        -0.5000 
     94 N          -4.9169  -22.7966  -51.0204 N.am      17 UNK        -0.5000 
     95 CA         -5.0409  -21.4234  -51.5186 C.3       17 UNK         0.1400 
     96 CB         -6.5252  -21.0057  -51.5778 C.3       17 UNK        -0.1800 
     97 C          -4.2855  -21.2104  -52.8483 C.2       17 UNK         0.5000 
     98 O          -4.7993  -20.5445  -53.7458 O.2       17 UNK        -0.5000 
     99 N          -3.0935  -21.8197  -52.9501 N.am      18 UNK        -0.5000 
    100 CA        -2.2286  -21.8940  -54.1344 C.3       18 UNK         0.1400 
    101 CB        -1.6262  -20.5136  -54.4609 C.3       18 UNK        -0.1800 
    102 C         -2.9511  -22.5417  -55.3327 C.2       18 UNK         0.5000 
    103 O         -2.9993  -21.9622  -56.4173 O.2       18 UNK        -0.5000 
    104 N         -3.5486  -23.7173  -55.0889 N.am      19 UNK        -0.5000 
    105 CA        -4.4417  -24.4540  -55.9915 C.3       19 UNK         0.1400 
    106 CB        -3.6526  -25.0445  -57.1782 C.3       19 UNK        -0.1800 
    107 C         -5.6537  -23.6001  -56.4277 C.2       19 UNK         0.5000 
    108 O         -5.9731  -23.5223  -57.6151 O.2       19 UNK        -0.5000 
    109 N         -6.2734  -22.9450  -55.4368 N.am      20 UNK        -0.5000 
    110 CA        -7.3999  -22.0097  -55.5172 C.3       20 UNK         0.1400 
    111 CB        -8.6479  -22.6962  -56.1092 C.3       20 UNK        -0.1800 
    112 C         -7.1022  -20.6583  -56.2057 C.2       20 UNK         0.5000 
    113 O         -8.0201  -19.8433  -56.3202 O.2       20 UNK        -0.5000 
    114 N         -5.8518  -20.3985  -56.6188 N.am      21 UNK        -0.5000 
    115 CA        -5.4388  -19.1510  -57.2724 C.3       21 UNK         0.1400 
    116 CB        -4.0134  -19.2949  -57.8229 C.3       21 UNK        -0.1800 
    117 C         -5.5406  -17.9084  -56.3659 C.2       21 UNK         0.5000 
    118 O         -5.7763  -16.8121  -56.8764 O.2       21 UNK        -0.5000 
    119 N         -5.3922  -18.0971  -55.0487 N.am      22 UNK        -0.5000 
    120 CA        -5.6044  -17.0600  -54.0258 C.3       22 UNK         0.1400 
    121 C         -7.1058  -16.8024  -53.6924 C.2       22 UNK         0.5000 
    122 N         -8.0621  -17.5333  -54.2560 N.am      22 UNK        -0.7600 
    123 O         -7.4140  -15.9086  -52.9087 O.2       22 UNK        -0.5000 
    124 C124       -4.7896  -17.3322  -52.7332 C.3       23 UNK        -0.0398 
    125 S125       -2.9983  -17.4967  -53.0291 S.3       23 UNK        -0.2404 
    126 C126       -2.4072  -17.7721  -51.3293 C.3       23 UNK        -0.0205 
    127 H127       -1.0587  -17.2531  -48.4453 H         1 UNK         0.0600 
    128 H128       -2.2160  -15.9352  -48.6985 H         1 UNK         0.0600 
    129 H129       -1.8120  -16.4559  -47.0680 H         1 UNK         0.0600 
    130 H130        0.9734  -16.4881  -49.0413 H         1 UNK         0.3000 
    131 H131        1.7735  -13.7104  -48.6507 H         1 UNK         0.0600 
    132 H132        3.9700  -14.5328  -49.6541 H         1 UNK         0.0800 
    133 H133        3.2785  -16.1268  -49.7790 H         1 UNK         0.0800 
    134 H134        1.9407  -15.8555  -53.3172 H         1 UNK         0.0800 
    135 H135        3.2884  -16.4591  -52.3894 H         1 UNK         0.0800 
    136 H136       -0.4564  -16.0742  -52.1967 H         1 UNK         0.1150 
    137 H137       -0.9992  -19.8900  -50.3108 H         1 UNK         0.1150 
    138 H138        2.9500  -18.4370  -51.1130 H         1 UNK         0.1150 
    139 H139        0.8780  -21.3224  -49.9146 H         1 UNK         0.0800 
    140 H140        2.3120  -20.9887  -50.8305 H         1 UNK         0.0800 
    141 H141        0.5734  -19.3069  -47.6740 H         1 UNK         0.0800 
    142 H142        1.8178  -19.4659  -46.4853 H         1 UNK         0.0800 
    143 H143        1.3830  -22.1463  -46.9487 H         1 UNK         0.0600 
    144 H144        0.7149  -20.4532  -44.8000 H         1 UNK         0.3000 
    145 H145       -0.7846  -22.9904  -42.7265 H         1 UNK         0.0600 
    146 H146        0.9619  -22.1548  -41.2006 H         1 UNK         0.0600 
    147 H147        1.6948  -23.1360  -42.4592 H         1 UNK         0.0600 
    148 H148        1.8150  -21.3834  -42.5359 H         1 UNK         0.0600 
    149 H149       -0.3979  -20.2341  -42.2313 H         1 UNK         0.3000 
    150 H150       -3.5046  -19.0817  -43.6509 H         1 UNK         0.0600 
    151 H151       -3.6969  -18.1997  -41.3512 H         1 UNK         0.0600 
    152 H152       -3.9550  -19.9376  -41.3391 H         1 UNK         0.0600 
    153 H153       -2.4185  -19.2758  -40.7913 H         1 UNK         0.0600 
    154 H154       -1.4448  -17.6256  -42.3852 H         1 UNK         0.3000 
    155 H155        0.5151  -16.9283  -45.3228 H         1 UNK         0.0600 
    156 H156       -1.3723  -15.2780  -45.0270 H         1 UNK         0.0600 
    157 H157        0.1516  -14.6819  -44.3883 H         1 UNK         0.0600 
    158 H158       -1.0924  -15.2841  -43.2949 H         1 UNK         0.0600 
    159 H159        1.0567  -16.2915  -42.6262 H         1 UNK         0.3000 
    160 H160        2.8917  -19.2365  -41.7303 H         1 UNK         0.0600 
    161 H161        3.6603  -16.3129  -42.2244 H         1 UNK         0.0600 
    162 H162        4.4701  -17.7207  -42.8917 H         1 UNK         0.0600 
    163 H163        4.5112  -17.4324  -41.1587 H         1 UNK         0.0600 
    164 H164        2.0888  -16.8410  -40.3375 H         1 UNK         0.3000 
    165 H165       -0.8655  -18.2248  -38.8756 H         1 UNK         0.0600 
    166 H166        0.3506  -17.6140  -36.8047 H         1 UNK         0.0600 
    167 H167        1.0304  -19.0814  -37.4897 H         1 UNK         0.0600 
    168 H168        1.8795  -17.5522  -37.6821 H         1 UNK         0.0600 
    169 H169        0.4609  -15.7128  -38.5546 H         1 UNK         0.3000 
    170 H170       -1.1083  -13.9853  -41.2310 H         1 UNK         0.0600 
    171 H171       -2.8536  -14.0240  -39.4415 H         1 UNK         0.0600 
    172 H172       -1.6120  -13.8214  -38.2113 H         1 UNK         0.0600 
    173 H173       -1.9128  -12.5423  -39.3884 H         1 UNK         0.0600 
    174 H174        0.5525  -13.0130  -39.1813 H         1 UNK         0.3000 
    175 H175        2.6347  -12.4459  -39.4895 H         1 UNK         0.0600 
    176 H176        4.2156  -14.9159  -40.3820 H         1 UNK         0.0600 
    177 H177        4.7674  -13.6600  -39.2793 H         1 UNK         0.0600 
    178 H178        3.4480  -14.7203  -38.8109 H         1 UNK         0.0600 
    179 H179        4.2231  -12.9979  -41.8762 H         1 UNK         0.3000 
    180 H180        3.0159  -10.2755  -43.7532 H         1 UNK         0.0600 
    181 H181        5.6471  -10.3355  -42.1818 H         1 UNK         0.0600 
    182 H182        4.4687   -9.0295  -42.1545 H         1 UNK         0.0600 
    183 H183        5.3302   -9.3945  -43.6402 H         1 UNK         0.0600 
    184 H184        5.3325  -11.9504  -44.0091 H         1 UNK         0.3000 
    185 H185        5.3186  -13.0877  -46.0122 H         1 UNK         0.0600 
    186 H186        5.5988  -14.6114  -44.1406 H         1 UNK         0.0600 
    187 H187        4.0683  -15.4042  -44.4553 H         1 UNK         0.0600 
    188 H188        5.4084  -15.5849  -45.5904 H         1 UNK         0.0600 
    189 H189        3.8129  -13.2059  -47.6457 H         1 UNK         0.3000 
    190 H190       -1.5762  -20.1741  -46.4296 H         1 UNK         0.3000 
    191 H191       -2.9524  -20.9459  -48.7555 H         1 UNK         0.0600 
    192 H192       -3.6007  -19.0084  -47.3639 H         1 UNK         0.0600 
    193 H193       -4.9666  -20.1011  -47.5421 H         1 UNK         0.0600 
    194 H194       -4.0557  -20.0728  -46.0356 H         1 UNK         0.0600 
    195 H195       -2.9585  -22.4867  -45.5044 H         1 UNK         0.3000 
    196 H196       -4.8414  -24.5311  -46.1235 H         1 UNK         0.0600 
    197 H197       -3.9270  -25.6092  -44.0569 H         1 UNK         0.0600 
    198 H198       -4.2780  -23.9059  -43.8052 H         1 UNK         0.0600 
    199 H199       -2.6131  -24.4383  -44.0228 H         1 UNK         0.0600 
    200 H200       -1.2255  -24.5720  -46.1600 H         1 UNK         0.3000 
    201 H201       -1.0020  -27.3068  -46.8855 H         1 UNK         0.0600 
    202 H202        0.8044  -26.0650  -45.7466 H         1 UNK         0.0600 
    203 H203        1.0091  -25.0111  -47.1451 H         1 UNK         0.0600 
    204 H204        1.4005  -26.7235  -47.2622 H         1 UNK         0.0600 
    205 H205       -0.9188  -24.3278  -48.8945 H         1 UNK         0.3000 
    206 H206       -0.4021  -25.8632  -51.3464 H         1 UNK         0.0600 
    207 H207        0.7101  -23.6556  -50.8005 H         1 UNK         0.0600 
    208 H208       -0.1092  -23.6752  -52.3476 H         1 UNK         0.0600 
    209 H209       -0.8546  -22.8611  -50.9737 H         1 UNK         0.0600 
    210 H210       -3.1936  -25.2904  -49.6286 H         1 UNK         0.3000 
    211 H211       -5.3866  -25.2497  -49.9885 H         1 UNK         0.0600 
    212 H212       -4.7547  -26.5330  -52.7050 H         1 UNK         0.0600 
    213 H213       -6.3117  -26.5420  -51.8899 H         1 UNK         0.0600 
    214 H214       -4.9512  -27.3994  -51.1825 H         1 UNK         0.0600 
    215 H215       -4.5224  -22.8953  -50.0850 H         1 UNK         0.3000 
    216 H216       -4.5484  -20.7801  -50.7886 H         1 UNK         0.0600 
    217 H217       -6.6435  -19.9789  -51.9229 H         1 UNK         0.0600 
    218 H218       -6.9851  -21.0680  -50.5917 H         1 UNK         0.0600 
    219 H219       -7.0993  -21.6425  -52.2489 H         1 UNK         0.0600 
    220 H220       -2.8010  -22.3865  -52.1691 H         1 UNK         0.3000 
    221 H221       -1.4034  -22.5589  -53.8831 H         1 UNK         0.0600 
    222 H222       -2.3914  -19.8056  -54.7780 H         1 UNK         0.0600 
    223 H223       -1.1147  -20.0905  -53.5963 H         1 UNK         0.0600 
    224 H224       -0.8965  -20.5870  -55.2678 H         1 UNK         0.0600 
    225 H225       -3.4203  -24.1292  -54.1676 H         1 UNK         0.3000 
    226 H226       -4.8439  -25.2868  -55.4127 H         1 UNK         0.0600 
    227 H227       -2.8198  -25.6559  -56.8309 H         1 UNK         0.0600 
    228 H228       -4.2903  -25.6825  -57.7910 H         1 UNK         0.0600 
    229 H229       -3.2497  -24.2659  -57.8265 H         1 UNK         0.0600 
    230 H230       -5.9358  -23.1181  -54.4928 H         1 UNK         0.3000 
    231 H231       -7.6356  -21.7574  -54.4840 H         1 UNK         0.0600 
    232 H232       -8.5256  -22.9185  -57.1694 H         1 UNK         0.0600 
    233 H233       -9.5281  -22.0598  -56.0117 H         1 UNK         0.0600 
    234 H234       -8.8671  -23.6302  -55.5919 H         1 UNK         0.0600 
    235 H235       -5.1267  -21.0845  -56.4488 H         1 UNK         0.3000 
    236 H236       -6.1089  -18.9917  -58.1196 H         1 UNK         0.0600 
    237 H237       -3.9237  -20.1664  -58.4717 H         1 UNK         0.0600 
    238 H238       -3.7334  -18.4200  -58.4108 H         1 UNK         0.0600 
    239 H239       -3.2826  -19.3940  -57.0203 H         1 UNK         0.0600 
    240 H240       -5.1853  -19.0314  -54.6992 H         1 UNK         0.3000 
    241 H241       -5.2356  -16.1173  -54.4342 H         1 UNK         0.0600 
    242 H242       -9.0248  -17.3419  -54.0283 H         1 UNK         0.3800 
    243 H243       -7.8448  -18.2574  -54.9295 H         1 UNK         0.3800 
    244 H244       -4.9320  -16.5201  -52.0180 H         1 UNK         0.0800 
    245 H245       -5.1451  -18.2370  -52.2421 H         1 UNK         0.0800 
    246 H246       -2.9216  -18.6376  -50.9096 H         1 UNK         0.0800 
    247 H247       -2.6869  -16.9142  -50.7194 H         1 UNK         0.0800 
@<TRIPOS>BOND
     1    1    2 1    
     2    1  127 1    
     3    1  128 1    
     4    1  129 1    
     5    2    3 2    
     6    2    4 am   BACKBONE|DICT|INTERRES
     7    4    5 1    
     8    4  130 1    
     9    5    6 1    
    10    5   65 1    
    11    5  131 1    
    12    6    7 1    
    13    6  132 1    
    14    6  133 1    
    15    7    8 1    
    16    8    9 1    
    17    8  134 1    
    18    8  135 1    
    19    9   10 ar   
    20    9   14 ar   
    21   10   11 ar   
    22   10  136 1    
    23   11   12 ar   
    24   11  126 1    
    25   12   13 ar   
    26   12  137 1    
    27   13   14 ar   
    28   13   15 1    
    29   14  138 1    
    30   15   16 1    
    31   15  139 1    
    32   15  140 1    
    33   16   17 1    
    34   17   18 1    
    35   17  141 1    
    36   17  142 1    
    37   18   19 1    
    38   18   67 1    
    39   18  143 1    
    40   19   20 am   BACKBONE|DICT|INTERRES
    41   19  144 1    
    42   20   21 2    
    43   20   22 1    
    44   22   23 1    
    45   22   24 1    
    46   22  145 1    
    47   23  146 1    
    48   23  147 1    
    49   23  148 1    
    50   24   25 am   BACKBONE|DICT|INTERRES
    51   24  149 1    
    52   25   26 2    
    53   25   27 1    
    54   27   28 1    
    55   27   29 1    
    56   27  150 1    
    57   28  151 1    
    58   28  152 1    
    59   28  153 1    
    60   29   30 am   BACKBONE|DICT|INTERRES
    61   29  154 1    
    62   30   31 2    
    63   30   32 1    
    64   32   33 1    
    65   32   34 1    
    66   32  155 1    
    67   33  156 1    
    68   33  157 1    
    69   33  158 1    
    70   34   35 am   BACKBONE|DICT|INTERRES
    71   34  159 1    
    72   35   36 2    
    73   35   37 1    
    74   37   38 1    
    75   37   39 1    
    76   37  160 1    
    77   38  161 1    
    78   38  162 1    
    79   38  163 1    
    80   39   40 am   BACKBONE|DICT|INTERRES
    81   39  164 1    
    82   40   41 2    
    83   40   42 1    
    84   42   43 1    
    85   42   44 1    
    86   42  165 1    
    87   43  166 1    
    88   43  167 1    
    89   43  168 1    
    90   44   45 am   BACKBONE|DICT|INTERRES
    91   44  169 1    
    92   45   46 2    
    93   45   47 1    
    94   47   48 1    
    95   47   49 1    
    96   47  170 1    
    97   48  171 1    
    98   48  172 1    
    99   48  173 1    
   100   49   50 am   BACKBONE|DICT|INTERRES
   101   49  174 1    
   102   50   51 2    
   103   50   52 1    
   104   52   53 1    
   105   52   54 1    
   106   52  175 1    
   107   53  176 1    
   108   53  177 1    
   109   53  178 1    
   110   54   55 am   BACKBONE|DICT|INTERRES
   111   54  179 1    
   112   55   56 2    
   113   55   57 1    
   114   57   58 1    
   115   57   59 1    
   116   57  180 1    
   117   58  181 1    
   118   58  182 1    
   119   58  183 1    
   120   59   60 am   BACKBONE|DICT|INTERRES
   121   59  184 1    
   122   60   61 2    
   123   60   62 1    
   124   62   63 1    
   125   62   64 1    
   126   62  185 1    
   127   63  186 1    
   128   63  187 1    
   129   63  188 1    
   130   64   65 am   BACKBONE|DICT|INTERRES
   131   64  189 1    
   132   65   66 2    
   133   67   68 2    
   134   67   69 am   BACKBONE|DICT|INTERRES
   135   69   70 1    
   136   69  190 1    
   137   70   71 1    
   138   70   72 1    
   139   70  191 1    
   140   71  192 1    
   141   71  193 1    
   142   71  194 1    
   143   72   73 2    
   144   72   74 am   BACKBONE|DICT|INTERRES
   145   74   75 1    
   146   74  195 1    
   147   75   76 1    
   148   75   77 1    
   149   75  196 1    
   150   76  197 1    
   151   76  198 1    
   152   76  199 1    
   153   77   78 2    
   154   77   79 am   BACKBONE|DICT|INTERRES
   155   79   80 1    
   156   79  200 1    
   157   80   81 1    
   158   80   82 1    
   159   80  201 1    
   160   81  202 1    
   161   81  203 1    
   162   81  204 1    
   163   82   83 2    
   164   82   84 am   BACKBONE|DICT|INTERRES
   165   84   85 1    
   166   84  205 1    
   167   85   86 1    
   168   85   87 1    
   169   85  206 1    
   170   86  207 1    
   171   86  208 1    
   172   86  209 1    
   173   87   88 2    
   174   87   89 am   BACKBONE|DICT|INTERRES
   175   89   90 1    
   176   89  210 1    
   177   90   91 1    
   178   90   92 1    
   179   90  211 1    
   180   91  212 1    
   181   91  213 1    
   182   91  214 1    
   183   92   93 2    
   184   92   94 am   BACKBONE|DICT|INTERRES
   185   94   95 1    
   186   94  215 1    
   187   95   96 1    
   188   95   97 1    
   189   95  216 1    
   190   96  217 1    
   191   96  218 1    
   192   96  219 1    
   193   97   98 2    
   194   97   99 am   BACKBONE|DICT|INTERRES
   195   99  100 1    
   196   99  220 1    
   197  100  101 1    
   198  100  102 1    
   199  100  221 1    
   200  101  222 1    
   201  101  223 1    
   202  101  224 1    
   203  102  103 2    
   204  102  104 am   BACKBONE|DICT|INTERRES
   205  104  105 1    
   206  104  225 1    
   207  105  106 1    
   208  105  107 1    
   209  105  226 1    
   210  106  227 1    
   211  106  228 1    
   212  106  229 1    
   213  107  108 2    
   214  107  109 am   BACKBONE|DICT|INTERRES
   215  109  110 1    
   216  109  230 1    
   217  110  111 1    
   218  110  112 1    
   219  110  231 1    
   220  111  232 1    
   221  111  233 1    
   222  111  234 1    
   223  112  113 2    
   224  112  114 am   BACKBONE|DICT|INTERRES
   225  114  115 1    
   226  114  235 1    
   227  115  116 1    
   228  115  117 1    
   229  115  236 1    
   230  116  237 1    
   231  116  238 1    
   232  116  239 1    
   233  117  118 2    
   234  117  119 am   BACKBONE|DICT|INTERRES
   235  119  120 1    
   236  119  240 1    
   237  120  121 1    
   238  120  124 1    
   239  120  241 1    
   240  121  122 am   BACKBONE|DICT|INTERRES
   241  121  123 2    
   242  122  242 1    
   243  122  243 1    
   244  124  125 1    
   245  124  244 1    
   246  124  245 1    
   247  125  126 1    
   248  126  246 1    
   249  126  247 1    
@<TRIPOS>SUBSTRUCTURE
     1 UNK         1 GROUP             0       ****    0 ROOT    
