@<TRIPOS>MOLECULE
3R540
247   249    1
SMALL
USER_CHARGES


@<TRIPOS>ATOM
      1 CA          2.3633  -10.4929  -51.6077 C.3       0 UNK        -0.1800 
      2 C           2.3460  -11.8627  -50.9440 C.2       0 UNK         0.5000 
      3 O           2.7935  -12.8376  -51.5472 O.2       0 UNK        -0.5000 
      4 N           1.8251  -11.9318  -49.7122 N.am      1 UNK        -0.5000 
      5 CA          1.7367  -13.1347  -48.8755 C.3       1 UNK         0.1400 
      6 C6          0.9721  -12.8867  -47.5538 C.3       23 UNK        -0.0398 
      7 S7         -0.7814  -12.4597  -47.8070 S.3       23 UNK        -0.2404 
      8 C8         -1.6160  -13.8988  -47.0643 C.3       23 UNK        -0.0205 
      9 C9         -1.9285  -14.9833  -48.0846 C.ar      23 UNK        -0.0193 
     10 C10        -3.2463  -15.1725  -48.5108 C.ar      23 UNK        -0.1150 
     11 C11        -3.5610  -16.1782  -49.4278 C.ar      23 UNK        -0.0193 
     12 C12        -2.5425  -16.9859  -49.9345 C.ar      23 UNK        -0.1150 
     13 C13        -1.2189  -16.8067  -49.5235 C.ar      23 UNK        -0.0193 
     14 C14        -0.9188  -15.8124  -48.5864 C.ar      23 UNK        -0.1150 
     15 C15        -0.1168  -17.6755  -50.1140 C.3       23 UNK        -0.0205 
     16 S16         0.4136  -19.0031  -48.9894 S.3       23 UNK        -0.2404 
     17 C17        -1.1573  -19.8649  -48.6449 C.3       23 UNK        -0.0398 
     18 CA         -0.9358  -21.2493  -47.9935 C.3       11 UNK         0.1400 
     19 N          -0.2826  -21.1743  -46.6849 N.am      11 UNK        -0.5000 
     20 C           0.1957  -22.2284  -46.0104 C.2       10 UNK         0.5000 
     21 O           0.1640  -23.3829  -46.4375 O.2       10 UNK        -0.5000 
     22 CA          0.7531  -21.9577  -44.6010 C.3       10 UNK         0.1400 
     23 CB          2.1771  -21.3863  -44.6681 C.3       10 UNK        -0.1800 
     24 N          -0.1070  -21.0657  -43.8211 N.am      10 UNK        -0.5000 
     25 C          -1.3530  -21.3736  -43.4329 C.2       9 UNK         0.5000 
     26 O          -1.8874  -22.4595  -43.6575 O.2       9 UNK        -0.5000 
     27 CA         -2.1527  -20.2776  -42.7055 C.3       9 UNK         0.1400 
     28 CB         -1.7546  -20.2043  -41.2240 C.3       9 UNK        -0.1800 
     29 N          -2.0005  -18.9595  -43.3200 N.am      9 UNK        -0.5000 
     30 C          -2.3956  -18.6458  -44.5625 C.2       8 UNK         0.5000 
     31 O          -2.9742  -19.4269  -45.3167 O.2       8 UNK        -0.5000 
     32 CA         -2.0303  -17.2378  -45.0679 C.3       8 UNK         0.1400 
     33 CB         -3.0087  -16.1977  -44.5013 C.3       8 UNK        -0.1800 
     34 N          -0.6479  -16.8607  -44.7520 N.am      8 UNK        -0.5000 
     35 C           0.4283  -17.5626  -45.1392 C.2       7 UNK         0.5000 
     36 O           0.3658  -18.5936  -45.8013 O.2       7 UNK        -0.5000 
     37 CA          1.8050  -17.0789  -44.6607 C.3       7 UNK         0.1400 
     38 CB          2.3049  -15.9105  -45.5167 C.3       7 UNK        -0.1800 
     39 N           1.7982  -16.7151  -43.2458 N.am      7 UNK        -0.5000 
     40 C           1.6004  -17.5931  -42.2522 C.2       6 UNK         0.5000 
     41 O           1.5016  -18.8096  -42.4188 O.2       6 UNK        -0.5000 
     42 CA          1.4141  -17.0007  -40.8457 C.3       6 UNK         0.1400 
     43 CB          2.7668  -16.6724  -40.1959 C.3       6 UNK        -0.1800 
     44 N           0.5654  -15.8076  -40.8726 N.am      6 UNK        -0.5000 
     45 C          -0.7480  -15.8364  -41.1429 C.2       5 UNK         0.5000 
     46 O          -1.3750  -16.8741  -41.3551 O.2       5 UNK        -0.5000 
     47 CA         -1.4889  -14.4885  -41.2135 C.3       5 UNK         0.1400 
     48 CB         -2.0786  -14.1297  -39.8416 C.3       5 UNK        -0.1800 
     49 N          -0.6620  -13.3776  -41.6848 N.am      5 UNK        -0.5000 
     50 C          -0.1169  -13.2764  -42.9047 C.2       4 UNK         0.5000 
     51 O          -0.2321  -14.1433  -43.7728 O.2       4 UNK        -0.5000 
     52 CA          0.6971  -11.9967  -43.2088 C.3       4 UNK         0.1400 
     53 CB          0.7934  -11.0187  -42.0168 C.3       4 UNK        -0.1800 
     54 N           2.0469  -12.2519  -43.7234 N.am      4 UNK        -0.5000 
     55 C           2.9650  -13.1092  -43.2562 C.2       3 UNK         0.5000 
     56 O           2.7437  -13.9311  -42.3650 O.2       3 UNK        -0.5000 
     57 CA          4.3694  -13.0286  -43.8987 C.3       3 UNK         0.1400 
     58 CB          5.2733  -14.2106  -43.5002 C.3       3 UNK        -0.1800 
     59 N           4.3460  -12.9076  -45.3633 N.am      3 UNK        -0.5000 
     60 C           4.1283  -11.7720  -46.0433 C.2       2 UNK         0.5000 
     61 O           3.8180  -10.7136  -45.4976 O.2       2 UNK        -0.5000 
     62 CA          4.2357  -11.8121  -47.5800 C.3       2 UNK         0.1400 
     63 CB          5.5657  -11.1907  -48.0315 C.3       2 UNK        -0.1800 
     64 N           4.1552  -13.1745  -48.1171 N.am      2 UNK        -0.5000 
     65 C           3.0980  -13.8354  -48.6199 C.2       1 UNK         0.5000 
     66 O           3.1963  -15.0251  -48.9129 O.2       1 UNK        -0.5000 
     67 C          -2.2558  -22.0398  -47.9280 C.2       11 UNK         0.5000 
     68 O          -2.5205  -22.8280  -48.8313 O.2       11 UNK        -0.5000 
     69 N          -3.0380  -21.8618  -46.8541 N.am      12 UNK        -0.5000 
     70 CA         -4.2600  -22.6247  -46.5978 C.3       12 UNK         0.1400 
     71 CB         -5.0415  -21.9867  -45.4402 C.3       12 UNK        -0.1800 
     72 C          -3.9967  -24.1182  -46.3323 C.2       12 UNK         0.5000 
     73 O          -4.7597  -24.9577  -46.8107 O.2       12 UNK        -0.5000 
     74 N          -2.9163  -24.4263  -45.6007 N.am      13 UNK        -0.5000 
     75 CA         -2.4658  -25.7915  -45.3251 C.3       13 UNK         0.1400 
     76 CB         -1.3903  -25.7695  -44.2281 C.3       13 UNK        -0.1800 
     77 C          -1.9531  -26.5128  -46.5861 C.2       13 UNK         0.5000 
     78 O          -2.2800  -27.6826  -46.7909 O.2       13 UNK        -0.5000 
     79 N          -1.1764  -25.8007  -47.4141 N.am      14 UNK        -0.5000 
     80 CA         -0.6788  -26.2801  -48.7060 C.3       14 UNK         0.1400 
     81 CB          0.4489  -25.3522  -49.1757 C.3       14 UNK        -0.1800 
     82 C          -1.7791  -26.3762  -49.7814 C.2       14 UNK         0.5000 
     83 O          -1.6901  -27.2265  -50.6681 O.2       14 UNK        -0.5000 
     84 N          -2.7890  -25.5031  -49.6802 N.am      15 UNK        -0.5000 
     85 CA         -3.9242  -25.3353  -50.5830 C.3       15 UNK         0.1400 
     86 CB         -4.8456  -26.5751  -50.5488 C.3       15 UNK        -0.1800 
     87 C          -3.4596  -24.9108  -51.9899 C.2       15 UNK         0.5000 
     88 O          -2.6232  -24.0120  -52.1048 O.2       15 UNK        -0.5000 
     89 N          -3.9876  -25.5611  -53.0357 N.am      16 UNK        -0.5000 
     90 CA         -3.7201  -25.2786  -54.4496 C.3       16 UNK         0.1400 
     91 CB         -4.6170  -26.1772  -55.3138 C.3       16 UNK        -0.1800 
     92 C          -2.2435  -25.4050  -54.8785 C.2       16 UNK         0.5000 
     93 O          -1.8728  -24.8467  -55.9114 O.2       16 UNK        -0.5000 
     94 N          -1.4221  -26.1010  -54.0787 N.am      17 UNK        -0.5000 
     95 CA          0.0301  -26.1745  -54.2476 C.3       17 UNK         0.1400 
     96 CB          0.5890  -27.2857  -53.3464 C.3       17 UNK        -0.1800 
     97 C           0.7421  -24.8363  -53.9583 C.2       17 UNK         0.5000 
     98 O           1.8282  -24.6121  -54.4944 O.2       17 UNK        -0.5000 
     99 N           0.1262  -23.9774  -53.1336 N.am      18 UNK        -0.5000 
    100 CA         0.5980  -22.6287  -52.8327 C.3       18 UNK         0.1400 
    101 CB         0.5734  -22.3976  -51.3149 C.3       18 UNK        -0.1800 
    102 C         -0.2695  -21.5908  -53.5560 C.2       18 UNK         0.5000 
    103 O          0.2599  -20.8010  -54.3388 O.2       18 UNK        -0.5000 
    104 N         -1.5815  -21.6136  -53.2907 N.am      19 UNK        -0.5000 
    105 CA        -2.5603  -20.6757  -53.8245 C.3       19 UNK         0.1400 
    106 CB        -2.3657  -19.2775  -53.2086 C.3       19 UNK        -0.1800 
    107 C         -3.9636  -21.2021  -53.5118 C.2       19 UNK         0.5000 
    108 O         -4.3518  -21.2507  -52.3419 O.2       19 UNK        -0.5000 
    109 N         -4.7236  -21.5453  -54.5589 N.am      20 UNK        -0.5000 
    110 CA        -6.1010  -22.0465  -54.4688 C.3       20 UNK         0.1400 
    111 CB        -6.5346  -22.5557  -55.8521 C.3       20 UNK        -0.1800 
    112 C         -7.1151  -21.0180  -53.9212 C.2       20 UNK         0.5000 
    113 O         -8.2136  -21.4059  -53.5230 O.2       20 UNK        -0.5000 
    114 N         -6.7256  -19.7349  -53.8933 N.am      21 UNK        -0.5000 
    115 CA        -7.4714  -18.6311  -53.2876 C.3       21 UNK         0.1400 
    116 CB        -6.7855  -17.3065  -53.6574 C.3       21 UNK        -0.1800 
    117 C         -7.6144  -18.7515  -51.7564 C.2       21 UNK         0.5000 
    118 O         -8.6019  -18.2555  -51.2121 O.2       21 UNK        -0.5000 
    119 N         -6.6464  -19.4074  -51.1015 N.am      22 UNK        -0.5000 
    120 CA        -6.6727  -19.7245  -49.6643 C.3       22 UNK         0.1400 
    121 C         -6.6234  -21.2516  -49.3969 C.2       22 UNK         0.5000 
    122 N         -5.9848  -22.0650  -50.2282 N.am      22 UNK        -0.7600 
    123 O         -7.2044  -21.7169  -48.4211 O.2       22 UNK        -0.5000 
    124 C124       -5.5621  -18.9785  -48.8787 C.3       23 UNK        -0.0398 
    125 S125       -5.9941  -17.2237  -48.6181 S.3       23 UNK        -0.2404 
    126 C126       -4.9982  -16.3760  -49.8822 C.3       23 UNK        -0.0205 
    127 H127        1.7969  -10.5195  -52.5386 H         1 UNK         0.0600 
    128 H128        3.3880  -10.2016  -51.8387 H         1 UNK         0.0600 
    129 H129        1.9284   -9.7253  -50.9671 H         1 UNK         0.0600 
    130 H130        1.4384  -11.0937  -49.3027 H         1 UNK         0.3000 
    131 H131        1.1446  -13.8457  -49.4555 H         1 UNK         0.0600 
    132 H132        1.0292  -13.7645  -46.9150 H         1 UNK         0.0800 
    133 H133        1.4222  -12.0754  -46.9840 H         1 UNK         0.0800 
    134 H134       -2.5376  -13.5468  -46.5988 H         1 UNK         0.0800 
    135 H135       -1.0204  -14.3186  -46.2549 H         1 UNK         0.0800 
    136 H136       -4.0347  -14.5430  -48.1224 H         1 UNK         0.1150 
    137 H137       -2.7848  -17.7529  -50.6527 H         1 UNK         0.1150 
    138 H138        0.1010  -15.6852  -48.2540 H         1 UNK         0.1150 
    139 H139       -0.4375  -18.1157  -51.0589 H         1 UNK         0.0800 
    140 H140        0.7467  -17.0514  -50.3492 H         1 UNK         0.0800 
    141 H141       -1.7707  -19.2326  -48.0001 H         1 UNK         0.0800 
    142 H142       -1.6968  -19.9710  -49.5882 H         1 UNK         0.0800 
    143 H143       -0.2654  -21.8154  -48.6417 H         1 UNK         0.0600 
    144 H144       -0.1643  -20.2412  -46.2914 H         1 UNK         0.3000 
    145 H145        0.8007  -22.9140  -44.0760 H         1 UNK         0.0600 
    146 H146        2.5922  -21.2447  -43.6701 H         1 UNK         0.0600 
    147 H147        2.8425  -22.0630  -45.2055 H         1 UNK         0.0600 
    148 H148        2.2051  -20.4249  -45.1805 H         1 UNK         0.0600 
    149 H149        0.2710  -20.1548  -43.5871 H         1 UNK         0.3000 
    150 H150       -3.2090  -20.5481  -42.7594 H         1 UNK         0.0600 
    151 H151       -1.8683  -21.1749  -40.7396 H         1 UNK         0.0600 
    152 H152       -2.3815  -19.4951  -40.6831 H         1 UNK         0.0600 
    153 H153       -0.7168  -19.8933  -41.1004 H         1 UNK         0.0600 
    154 H154       -1.5679  -18.2396  -42.7483 H         1 UNK         0.3000 
    155 H155       -2.1241  -17.2389  -46.1557 H         1 UNK         0.0600 
    156 H156       -2.7245  -15.1823  -44.7707 H         1 UNK         0.0600 
    157 H157       -3.0666  -16.2489  -43.4148 H         1 UNK         0.0600 
    158 H158       -4.0143  -16.3678  -44.8877 H         1 UNK         0.0600 
    159 H159       -0.5089  -15.9971  -44.2348 H         1 UNK         0.3000 
    160 H160        2.5030  -17.9083  -44.7936 H         1 UNK         0.0600 
    161 H161        1.8136  -14.9798  -45.2420 H         1 UNK         0.0600 
    162 H162        2.1171  -16.0914  -46.5758 H         1 UNK         0.0600 
    163 H163        3.3781  -15.7742  -45.4046 H         1 UNK         0.0600 
    164 H164        1.8647  -15.7298  -43.0153 H         1 UNK         0.3000 
    165 H165        0.9203  -17.7554  -40.2296 H         1 UNK         0.0600 
    166 H166        3.3254  -15.9310  -40.7670 H         1 UNK         0.0600 
    167 H167        2.6352  -16.2874  -39.1847 H         1 UNK         0.0600 
    168 H168        3.3891  -17.5653  -40.1254 H         1 UNK         0.0600 
    169 H169        1.0267  -14.9139  -40.7720 H         1 UNK         0.3000 
    170 H170       -2.3156  -14.6028  -41.9162 H         1 UNK         0.0600 
    171 H171       -2.7241  -14.9283  -39.4732 H         1 UNK         0.0600 
    172 H172       -1.2978  -13.9689  -39.0972 H         1 UNK         0.0600 
    173 H173       -2.6838  -13.2245  -39.8960 H         1 UNK         0.0600 
    174 H174       -0.5053  -12.6262  -41.0292 H         1 UNK         0.3000 
    175 H175        0.1580  -11.4892  -44.0099 H         1 UNK         0.0600 
    176 H176        1.3251  -10.1110  -42.3029 H         1 UNK         0.0600 
    177 H177       -0.1934  -10.7079  -41.6711 H         1 UNK         0.0600 
    178 H178        1.3277  -11.4575  -41.1729 H         1 UNK         0.0600 
    179 H179        2.3624  -11.6185  -44.4494 H         1 UNK         0.3000 
    180 H180        4.8340  -12.1274  -43.4930 H         1 UNK         0.0600 
    181 H181        6.2647  -14.1170  -43.9438 H         1 UNK         0.0600 
    182 H182        5.4094  -14.2488  -42.4186 H         1 UNK         0.0600 
    183 H183        4.8570  -15.1693  -43.8062 H         1 UNK         0.0600 
    184 H184        4.5523  -13.7468  -45.8835 H         1 UNK         0.3000 
    185 H185        3.4405  -11.1786  -47.9645 H         1 UNK         0.0600 
    186 H186        5.6311  -11.1521  -49.1191 H         1 UNK         0.0600 
    187 H187        5.6658  -10.1679  -47.6655 H         1 UNK         0.0600 
    188 H188        6.4227  -11.7565  -47.6636 H         1 UNK         0.0600 
    189 H189        5.0192  -13.6927  -48.0570 H         1 UNK         0.3000 
    190 H190       -2.7947  -21.1474  -46.1732 H         1 UNK         0.3000 
    191 H191       -4.8762  -22.5659  -47.4942 H         1 UNK         0.0600 
    192 H192       -5.9666  -22.5313  -45.2479 H         1 UNK         0.0600 
    193 H193       -5.3144  -20.9570  -45.6713 H         1 UNK         0.0600 
    194 H194       -4.4627  -21.9818  -44.5166 H         1 UNK         0.0600 
    195 H195       -2.3751  -23.6741  -45.1861 H         1 UNK         0.3000 
    196 H196       -3.3202  -26.3556  -44.9454 H         1 UNK         0.0600 
    197 H197       -1.0558  -26.7796  -43.9890 H         1 UNK         0.0600 
    198 H198       -1.7753  -25.3278  -43.3088 H         1 UNK         0.0600 
    199 H199       -0.5141  -25.1964  -44.5315 H         1 UNK         0.0600 
    200 H200       -0.8995  -24.8626  -47.1374 H         1 UNK         0.3000 
    201 H201       -0.2637  -27.2807  -48.5687 H         1 UNK         0.0600 
    202 H202        1.2972  -25.3859  -48.4920 H         1 UNK         0.0600 
    203 H203        0.1058  -24.3195  -49.2271 H         1 UNK         0.0600 
    204 H204        0.8123  -25.6336  -50.1650 H         1 UNK         0.0600 
    205 H205       -2.6913  -24.7559  -49.0001 H         1 UNK         0.3000 
    206 H206       -4.4905  -24.4927  -50.1877 H         1 UNK         0.0600 
    207 H207       -5.1313  -26.8136  -49.5239 H         1 UNK         0.0600 
    208 H208       -5.7689  -26.3985  -51.1017 H         1 UNK         0.0600 
    209 H209       -4.3654  -27.4591  -50.9696 H         1 UNK         0.0600 
    210 H210       -4.6439  -26.3051  -52.8485 H         1 UNK         0.3000 
    211 H211       -4.0064  -24.2425  -54.6306 H         1 UNK         0.0600 
    212 H212       -4.4025  -27.2340  -55.1505 H         1 UNK         0.0600 
    213 H213       -4.4715  -25.9724  -56.3753 H         1 UNK         0.0600 
    214 H214       -5.6719  -26.0090  -55.0956 H         1 UNK         0.0600 
    215 H215       -1.8036  -26.5240  -53.2435 H         1 UNK         0.3000 
    216 H216        0.2376  -26.4423  -55.2857 H         1 UNK         0.0600 
    217 H217        1.6599  -27.4157  -53.5077 H         1 UNK         0.0600 
    218 H218        0.1106  -28.2431  -53.5534 H         1 UNK         0.0600 
    219 H219        0.4441  -27.0582  -52.2903 H         1 UNK         0.0600 
    220 H220       -0.7919  -24.2174  -52.7725 H         1 UNK         0.3000 
    221 H221        1.6276  -22.4930  -53.1704 H         1 UNK         0.0600 
    222 H222       -0.4085  -22.6118  -50.8912 H         1 UNK         0.0600 
    223 H223        1.3060  -23.0304  -50.8151 H         1 UNK         0.0600 
    224 H224        0.8211  -21.3638  -51.0707 H         1 UNK         0.0600 
    225 H225       -1.9608  -22.3312  -52.6748 H         1 UNK         0.3000 
    226 H226       -2.4353  -20.6091  -54.9072 H         1 UNK         0.0600 
    227 H227       -1.4289  -18.8223  -53.5290 H         1 UNK         0.0600 
    228 H228       -3.1696  -18.5993  -53.4974 H         1 UNK         0.0600 
    229 H229       -2.3533  -19.3365  -52.1214 H         1 UNK         0.0600 
    230 H230       -4.3418  -21.4600  -55.4902 H         1 UNK         0.3000 
    231 H231       -6.1025  -22.8931  -53.7786 H         1 UNK         0.0600 
    232 H232       -7.5406  -22.9759  -55.8170 H         1 UNK         0.0600 
    233 H233       -5.8702  -23.3416  -56.2117 H         1 UNK         0.0600 
    234 H234       -6.5393  -21.7541  -56.5916 H         1 UNK         0.0600 
    235 H235       -5.8163  -19.5115  -54.2678 H         1 UNK         0.3000 
    236 H236       -8.4766  -18.6294  -53.7142 H         1 UNK         0.0600 
    237 H237       -5.7601  -17.2668  -53.2880 H         1 UNK         0.0600 
    238 H238       -6.7596  -17.1636  -54.7378 H         1 UNK         0.0600 
    239 H239       -7.3208  -16.4568  -53.2313 H         1 UNK         0.0600 
    240 H240       -5.8924  -19.8207  -51.6336 H         1 UNK         0.3000 
    241 H241       -7.6307  -19.4110  -49.2445 H         1 UNK         0.0600 
    242 H242       -6.0089  -23.0495  -50.0300 H         1 UNK         0.3800 
    243 H243       -5.4213  -21.7243  -51.0051 H         1 UNK         0.3800 
    244 H244       -4.5979  -19.0695  -49.3805 H         1 UNK         0.0800 
    245 H245       -5.4252  -19.4144  -47.8869 H         1 UNK         0.0800 
    246 H246       -5.0408  -16.9307  -50.8204 H         1 UNK         0.0800 
    247 H247       -5.4461  -15.4024  -50.0855 H         1 UNK         0.0800 
@<TRIPOS>BOND
     1    1    2 1    
     2    1  127 1    
     3    1  128 1    
     4    1  129 1    
     5    2    3 2    
     6    2    4 am   BACKBONE|DICT|INTERRES
     7    4    5 1    
     8    4  130 1    
     9    5    6 1    
    10    5   65 1    
    11    5  131 1    
    12    6    7 1    
    13    6  132 1    
    14    6  133 1    
    15    7    8 1    
    16    8    9 1    
    17    8  134 1    
    18    8  135 1    
    19    9   10 ar   
    20    9   14 ar   
    21   10   11 ar   
    22   10  136 1    
    23   11   12 ar   
    24   11  126 1    
    25   12   13 ar   
    26   12  137 1    
    27   13   14 ar   
    28   13   15 1    
    29   14  138 1    
    30   15   16 1    
    31   15  139 1    
    32   15  140 1    
    33   16   17 1    
    34   17   18 1    
    35   17  141 1    
    36   17  142 1    
    37   18   19 1    
    38   18   67 1    
    39   18  143 1    
    40   19   20 am   BACKBONE|DICT|INTERRES
    41   19  144 1    
    42   20   21 2    
    43   20   22 1    
    44   22   23 1    
    45   22   24 1    
    46   22  145 1    
    47   23  146 1    
    48   23  147 1    
    49   23  148 1    
    50   24   25 am   BACKBONE|DICT|INTERRES
    51   24  149 1    
    52   25   26 2    
    53   25   27 1    
    54   27   28 1    
    55   27   29 1    
    56   27  150 1    
    57   28  151 1    
    58   28  152 1    
    59   28  153 1    
    60   29   30 am   BACKBONE|DICT|INTERRES
    61   29  154 1    
    62   30   31 2    
    63   30   32 1    
    64   32   33 1    
    65   32   34 1    
    66   32  155 1    
    67   33  156 1    
    68   33  157 1    
    69   33  158 1    
    70   34   35 am   BACKBONE|DICT|INTERRES
    71   34  159 1    
    72   35   36 2    
    73   35   37 1    
    74   37   38 1    
    75   37   39 1    
    76   37  160 1    
    77   38  161 1    
    78   38  162 1    
    79   38  163 1    
    80   39   40 am   BACKBONE|DICT|INTERRES
    81   39  164 1    
    82   40   41 2    
    83   40   42 1    
    84   42   43 1    
    85   42   44 1    
    86   42  165 1    
    87   43  166 1    
    88   43  167 1    
    89   43  168 1    
    90   44   45 am   BACKBONE|DICT|INTERRES
    91   44  169 1    
    92   45   46 2    
    93   45   47 1    
    94   47   48 1    
    95   47   49 1    
    96   47  170 1    
    97   48  171 1    
    98   48  172 1    
    99   48  173 1    
   100   49   50 am   BACKBONE|DICT|INTERRES
   101   49  174 1    
   102   50   51 2    
   103   50   52 1    
   104   52   53 1    
   105   52   54 1    
   106   52  175 1    
   107   53  176 1    
   108   53  177 1    
   109   53  178 1    
   110   54   55 am   BACKBONE|DICT|INTERRES
   111   54  179 1    
   112   55   56 2    
   113   55   57 1    
   114   57   58 1    
   115   57   59 1    
   116   57  180 1    
   117   58  181 1    
   118   58  182 1    
   119   58  183 1    
   120   59   60 am   BACKBONE|DICT|INTERRES
   121   59  184 1    
   122   60   61 2    
   123   60   62 1    
   124   62   63 1    
   125   62   64 1    
   126   62  185 1    
   127   63  186 1    
   128   63  187 1    
   129   63  188 1    
   130   64   65 am   BACKBONE|DICT|INTERRES
   131   64  189 1    
   132   65   66 2    
   133   67   68 2    
   134   67   69 am   BACKBONE|DICT|INTERRES
   135   69   70 1    
   136   69  190 1    
   137   70   71 1    
   138   70   72 1    
   139   70  191 1    
   140   71  192 1    
   141   71  193 1    
   142   71  194 1    
   143   72   73 2    
   144   72   74 am   BACKBONE|DICT|INTERRES
   145   74   75 1    
   146   74  195 1    
   147   75   76 1    
   148   75   77 1    
   149   75  196 1    
   150   76  197 1    
   151   76  198 1    
   152   76  199 1    
   153   77   78 2    
   154   77   79 am   BACKBONE|DICT|INTERRES
   155   79   80 1    
   156   79  200 1    
   157   80   81 1    
   158   80   82 1    
   159   80  201 1    
   160   81  202 1    
   161   81  203 1    
   162   81  204 1    
   163   82   83 2    
   164   82   84 am   BACKBONE|DICT|INTERRES
   165   84   85 1    
   166   84  205 1    
   167   85   86 1    
   168   85   87 1    
   169   85  206 1    
   170   86  207 1    
   171   86  208 1    
   172   86  209 1    
   173   87   88 2    
   174   87   89 am   BACKBONE|DICT|INTERRES
   175   89   90 1    
   176   89  210 1    
   177   90   91 1    
   178   90   92 1    
   179   90  211 1    
   180   91  212 1    
   181   91  213 1    
   182   91  214 1    
   183   92   93 2    
   184   92   94 am   BACKBONE|DICT|INTERRES
   185   94   95 1    
   186   94  215 1    
   187   95   96 1    
   188   95   97 1    
   189   95  216 1    
   190   96  217 1    
   191   96  218 1    
   192   96  219 1    
   193   97   98 2    
   194   97   99 am   BACKBONE|DICT|INTERRES
   195   99  100 1    
   196   99  220 1    
   197  100  101 1    
   198  100  102 1    
   199  100  221 1    
   200  101  222 1    
   201  101  223 1    
   202  101  224 1    
   203  102  103 2    
   204  102  104 am   BACKBONE|DICT|INTERRES
   205  104  105 1    
   206  104  225 1    
   207  105  106 1    
   208  105  107 1    
   209  105  226 1    
   210  106  227 1    
   211  106  228 1    
   212  106  229 1    
   213  107  108 2    
   214  107  109 am   BACKBONE|DICT|INTERRES
   215  109  110 1    
   216  109  230 1    
   217  110  111 1    
   218  110  112 1    
   219  110  231 1    
   220  111  232 1    
   221  111  233 1    
   222  111  234 1    
   223  112  113 2    
   224  112  114 am   BACKBONE|DICT|INTERRES
   225  114  115 1    
   226  114  235 1    
   227  115  116 1    
   228  115  117 1    
   229  115  236 1    
   230  116  237 1    
   231  116  238 1    
   232  116  239 1    
   233  117  118 2    
   234  117  119 am   BACKBONE|DICT|INTERRES
   235  119  120 1    
   236  119  240 1    
   237  120  121 1    
   238  120  124 1    
   239  120  241 1    
   240  121  122 am   BACKBONE|DICT|INTERRES
   241  121  123 2    
   242  122  242 1    
   243  122  243 1    
   244  124  125 1    
   245  124  244 1    
   246  124  245 1    
   247  125  126 1    
   248  126  246 1    
   249  126  247 1    
@<TRIPOS>SUBSTRUCTURE
     1 UNK         1 GROUP             0       ****    0 ROOT    
