@<TRIPOS>MOLECULE
3R540
247   249    1
SMALL
USER_CHARGES


@<TRIPOS>ATOM
      1 CA          0.2438  -10.0089  -52.5286 C.3       0 UNK        -0.1800 
      2 C           0.6867  -11.3510  -51.9625 C.2       0 UNK         0.5000 
      3 O           1.1014  -12.2282  -52.7206 O.2       0 UNK        -0.5000 
      4 N           0.5921  -11.5150  -50.6377 N.am      1 UNK        -0.5000 
      5 CA          1.0115  -12.7148  -49.9077 C.3       1 UNK         0.1400 
      6 C6          0.4932  -12.7078  -48.4503 C.3       23 UNK        -0.0398 
      7 S7         -1.2945  -13.0502  -48.3725 S.3       23 UNK        -0.2404 
      8 C8         -1.2893  -14.7623  -47.7409 C.3       23 UNK        -0.0205 
      9 C9         -0.4953  -15.7181  -48.6239 C.ar      23 UNK        -0.0193 
     10 C10        -0.8773  -15.9231  -49.9525 C.ar      23 UNK        -0.1150 
     11 C11        -0.1452  -16.7753  -50.7826 C.ar      23 UNK        -0.0193 
     12 C12         0.9667  -17.4439  -50.2636 C.ar      23 UNK        -0.1150 
     13 C13         1.3389  -17.2811  -48.9270 C.ar      23 UNK        -0.0193 
     14 C14         0.6174  -16.3987  -48.1159 C.ar      23 UNK        -0.1150 
     15 C15         2.5125  -18.0789  -48.3715 C.3       23 UNK        -0.0205 
     16 S16         2.0340  -19.2254  -47.0360 S.3       23 UNK        -0.2404 
     17 C17         0.5345  -20.0275  -47.7081 C.3       23 UNK        -0.0398 
     18 CA          0.3763  -21.5147  -47.3032 C.3       11 UNK         0.1400 
     19 N           0.5518  -21.7534  -45.8650 N.am      11 UNK        -0.5000 
     20 C           0.6084  -22.9665  -45.2952 C.2       10 UNK         0.5000 
     21 O           0.5804  -24.0197  -45.9296 O.2       10 UNK        -0.5000 
     22 CA          0.6463  -23.0184  -43.7591 C.3       10 UNK         0.1400 
     23 CB          2.0906  -22.9480  -43.2409 C.3       10 UNK        -0.1800 
     24 N          -0.1562  -21.9491  -43.1660 N.am      10 UNK        -0.5000 
     25 C          -1.4970  -21.9507  -43.1324 C.2       9 UNK         0.5000 
     26 O          -2.1845  -22.8811  -43.5525 O.2       9 UNK        -0.5000 
     27 CA         -2.1898  -20.6887  -42.5804 C.3       9 UNK         0.1400 
     28 CB         -2.3172  -20.7666  -41.0521 C.3       9 UNK        -0.1800 
     29 N          -1.4980  -19.4513  -42.9409 N.am      9 UNK        -0.5000 
     30 C          -1.3220  -19.0128  -44.1949 C.2       8 UNK         0.5000 
     31 O          -1.8010  -19.5688  -45.1821 O.2       8 UNK        -0.5000 
     32 CA         -0.4155  -17.7819  -44.3863 C.3       8 UNK         0.1400 
     33 CB         -1.2599  -16.5027  -44.4393 C.3       8 UNK        -0.1800 
     34 N           0.6262  -17.6264  -43.3665 N.am      8 UNK        -0.5000 
     35 C           1.5444  -18.5404  -43.0200 C.2       7 UNK         0.5000 
     36 O           1.5999  -19.6670  -43.5096 O.2       7 UNK        -0.5000 
     37 CA          2.5450  -18.1520  -41.9181 C.3       7 UNK         0.1400 
     38 CB          3.8629  -17.6623  -42.5328 C.3       7 UNK        -0.1800 
     39 N           2.0193  -17.1124  -41.0336 N.am      7 UNK        -0.5000 
     40 C           1.2521  -17.3358  -39.9585 C.2       6 UNK         0.5000 
     41 O           0.9184  -18.4585  -39.5787 O.2       6 UNK        -0.5000 
     42 CA          0.7722  -16.0947  -39.1794 C.3       6 UNK         0.1400 
     43 CB          1.7866  -15.7217  -38.0876 C.3       6 UNK        -0.1800 
     44 N           0.5519  -14.9330  -40.0437 N.am      6 UNK        -0.5000 
     45 C          -0.4759  -14.8105  -40.8949 C.2       5 UNK         0.5000 
     46 O          -1.3877  -15.6326  -40.9816 O.2       5 UNK        -0.5000 
     47 CA         -0.4729  -13.5811  -41.8283 C.3       5 UNK         0.1400 
     48 CB         -1.2995  -12.4415  -41.2139 C.3       5 UNK        -0.1800 
     49 N           0.8615  -13.0729  -42.1737 N.am      5 UNK        -0.5000 
     50 C           1.8230  -13.7786  -42.7842 C.2       4 UNK         0.5000 
     51 O           1.7143  -14.9752  -43.0549 O.2       4 UNK        -0.5000 
     52 CA          3.1430  -13.0382  -43.0760 C.3       4 UNK         0.1400 
     53 CB          3.9684  -12.9049  -41.7859 C.3       4 UNK        -0.1800 
     54 N           3.9663  -13.7153  -44.0818 N.am      4 UNK        -0.5000 
     55 C           3.6382  -13.8727  -45.3701 C.2       3 UNK         0.5000 
     56 O           2.6127  -13.4134  -45.8795 O.2       3 UNK        -0.5000 
     57 CA          4.6303  -14.6725  -46.2303 C.3       3 UNK         0.1400 
     58 CB          4.7064  -16.1458  -45.7898 C.3       3 UNK        -0.1800 
     59 N           4.2201  -14.6017  -47.6292 N.am      3 UNK        -0.5000 
     60 C           5.0383  -14.6478  -48.6869 C.2       2 UNK         0.5000 
     61 O           6.2582  -14.7912  -48.5935 O.2       2 UNK        -0.5000 
     62 CA          4.4039  -14.5215  -50.0880 C.3       2 UNK         0.1400 
     63 CB          4.5386  -15.8383  -50.8697 C.3       2 UNK        -0.1800 
     64 N           2.9901  -14.1402  -50.0570 N.am      2 UNK        -0.5000 
     65 C           2.5431  -12.8845  -49.9313 C.2       1 UNK         0.5000 
     66 O           3.2768  -11.9008  -49.8078 O.2       1 UNK        -0.5000 
     67 C          -0.9846  -22.0585  -47.7890 C.2       11 UNK         0.5000 
     68 O          -1.0404  -22.7540  -48.8034 O.2       11 UNK        -0.5000 
     69 N          -2.0451  -21.7749  -47.0191 N.am      12 UNK        -0.5000 
     70 CA         -3.3996  -22.2779  -47.2395 C.3       12 UNK         0.1400 
     71 CB         -4.3718  -21.5712  -46.2840 C.3       12 UNK        -0.1800 
     72 C          -3.5002  -23.8048  -47.0894 C.2       12 UNK         0.5000 
     73 O          -4.1838  -24.4417  -47.8889 O.2       12 UNK        -0.5000 
     74 N          -2.7981  -24.3748  -46.0993 N.am      13 UNK        -0.5000 
     75 CA         -2.7048  -25.8210  -45.8878 C.3       13 UNK         0.1400 
     76 CB         -2.0375  -26.1103  -44.5354 C.3       13 UNK        -0.1800 
     77 C          -1.9639  -26.5436  -47.0287 C.2       13 UNK         0.5000 
     78 O          -2.3906  -27.6253  -47.4326 O.2       13 UNK        -0.5000 
     79 N          -0.8909  -25.9253  -47.5431 N.am      14 UNK        -0.5000 
     80 CA         -0.1209  -26.4084  -48.6901 C.3       14 UNK         0.1400 
     81 CB          1.1868  -25.6107  -48.8087 C.3       14 UNK        -0.1800 
     82 C          -0.9203  -26.3534  -50.0049 C.2       14 UNK         0.5000 
     83 O          -0.8520  -27.2972  -50.7935 O.2       14 UNK        -0.5000 
     84 N          -1.6802  -25.2670  -50.2066 N.am      15 UNK        -0.5000 
     85 CA         -2.6110  -25.1039  -51.3262 C.3       15 UNK         0.1400 
     86 CB         -3.0733  -23.6404  -51.3896 C.3       15 UNK        -0.1800 
     87 C          -3.8247  -26.0501  -51.2331 C.2       15 UNK         0.5000 
     88 O          -4.3202  -26.5044  -52.2647 O.2       15 UNK        -0.5000 
     89 N          -4.2691  -26.3204  -49.9965 N.am      16 UNK        -0.5000 
     90 CA         -5.4026  -27.1598  -49.5931 C.3       16 UNK         0.1400 
     91 CB         -5.1766  -28.6282  -50.0077 C.3       16 UNK        -0.1800 
     92 C          -6.7701  -26.6077  -50.0509 C.2       16 UNK         0.5000 
     93 O          -7.7392  -27.3635  -50.1420 O.2       16 UNK        -0.5000 
     94 N          -6.8240  -25.2993  -50.3214 N.am      17 UNK        -0.5000 
     95 CA         -7.9436  -24.5426  -50.8698 C.3       17 UNK         0.1400 
     96 CB         -8.2895  -25.0490  -52.2898 C.3       17 UNK        -0.1800 
     97 C          -7.5352  -23.0594  -50.9035 C.2       17 UNK         0.5000 
     98 O          -6.4261  -22.7143  -50.4869 O.2       17 UNK        -0.5000 
     99 N          -8.4108  -22.2125  -51.4588 N.am      18 UNK        -0.5000 
    100 CA        -8.1492  -20.8017  -51.7720 C.3       18 UNK         0.1400 
    101 CB        -9.4849  -20.0393  -51.7446 C.3       18 UNK        -0.1800 
    102 C         -7.4188  -20.6087  -53.1239 C.2       18 UNK         0.5000 
    103 O         -7.3606  -19.4866  -53.6311 O.2       18 UNK        -0.5000 
    104 N         -6.8938  -21.7036  -53.6952 N.am      19 UNK        -0.5000 
    105 CA        -6.1656  -21.7724  -54.9620 C.3       19 UNK         0.1400 
    106 CB        -5.7264  -23.2250  -55.1997 C.3       19 UNK        -0.1800 
    107 C         -4.9485  -20.8316  -55.0015 C.2       19 UNK         0.5000 
    108 O         -4.2380  -20.7101  -53.9992 O.2       19 UNK        -0.5000 
    109 N         -4.7605  -20.1662  -56.1511 N.am      20 UNK        -0.5000 
    110 CA        -3.7241  -19.1639  -56.4477 C.3       20 UNK         0.1400 
    111 CB        -2.3258  -19.8168  -56.4308 C.3       20 UNK        -0.1800 
    112 C         -3.7862  -17.9044  -55.5516 C.2       20 UNK         0.5000 
    113 O         -2.8038  -17.1669  -55.4727 O.2       20 UNK        -0.5000 
    114 N         -4.9271  -17.7037  -54.8716 N.am      21 UNK        -0.5000 
    115 CA        -5.1779  -16.7542  -53.7795 C.3       21 UNK         0.1400 
    116 CB        -4.9705  -15.2945  -54.2341 C.3       21 UNK        -0.1800 
    117 C         -4.4027  -17.0836  -52.4826 C.2       21 UNK         0.5000 
    118 O         -4.4407  -16.2910  -51.5404 O.2       21 UNK        -0.5000 
    119 N         -3.7296  -18.2396  -52.4455 N.am      22 UNK        -0.5000 
    120 CA        -3.0129  -18.7745  -51.2843 C.3       22 UNK         0.1400 
    121 C         -3.9371  -19.7110  -50.4679 C.2       22 UNK         0.5000 
    122 N         -4.6093  -20.6494  -51.1239 N.am      22 UNK        -0.7600 
    123 O         -4.0471  -19.5804  -49.2536 O.2       22 UNK        -0.5000 
    124 C124       -1.7226  -19.5380  -51.6914 C.3       23 UNK        -0.0398 
    125 S125       -0.5620  -18.6769  -52.8146 S.3       23 UNK        -0.2404 
    126 C126       -0.5522  -16.9431  -52.2419 C.3       23 UNK        -0.0205 
    127 H127        1.0741   -9.5275  -53.0453 H         1 UNK         0.0600 
    128 H128       -0.1071   -9.3346  -51.7470 H         1 UNK         0.0600 
    129 H129       -0.5670  -10.1521  -53.2430 H         1 UNK         0.0600 
    130 H130        0.2532  -10.7535  -50.0680 H         1 UNK         0.3000 
    131 H131        0.5819  -13.5737  -50.4269 H         1 UNK         0.0600 
    132 H132        1.0055  -13.4580  -47.8489 H         1 UNK         0.0800 
    133 H133        0.6976  -11.7515  -47.9660 H         1 UNK         0.0800 
    134 H134       -0.8863  -14.7496  -46.7288 H         1 UNK         0.0800 
    135 H135       -2.3174  -15.1184  -47.6627 H         1 UNK         0.0800 
    136 H136       -1.7394  -15.4002  -50.3440 H         1 UNK         0.1150 
    137 H137        1.5328  -18.1090  -50.9006 H         1 UNK         0.1150 
    138 H138        0.9138  -16.2595  -47.0853 H         1 UNK         0.1150 
    139 H139        2.9939  -18.6577  -49.1611 H         1 UNK         0.0800 
    140 H140        3.2686  -17.3903  -47.9963 H         1 UNK         0.0800 
    141 H141        0.5555  -19.9578  -48.7967 H         1 UNK         0.0800 
    142 H142       -0.3247  -19.4369  -47.3867 H         1 UNK         0.0800 
    143 H143        1.1561  -22.0812  -47.8168 H         1 UNK         0.0600 
    144 H144        0.6193  -20.9354  -45.2739 H         1 UNK         0.3000 
    145 H145        0.2282  -23.9759  -43.4429 H         1 UNK         0.0600 
    146 H146        2.1214  -22.9582  -42.1514 H         1 UNK         0.0600 
    147 H147        2.6670  -23.8051  -43.5910 H         1 UNK         0.0600 
    148 H148        2.6058  -22.0511  -43.5843 H         1 UNK         0.0600 
    149 H149        0.3465  -21.1101  -42.8981 H         1 UNK         0.3000 
    150 H150       -3.1939  -20.6482  -43.0076 H         1 UNK         0.0600 
    151 H151       -2.8414  -21.6742  -40.7496 H         1 UNK         0.0600 
    152 H152       -2.8813  -19.9202  -40.6598 H         1 UNK         0.0600 
    153 H153       -1.3404  -20.7728  -40.5662 H         1 UNK         0.0600 
    154 H154       -1.0661  -18.9325  -42.1900 H         1 UNK         0.3000 
    155 H155        0.0888  -17.8923  -45.3458 H         1 UNK         0.0600 
    156 H156       -1.8343  -16.3629  -43.5236 H         1 UNK         0.0600 
    157 H157       -0.6327  -15.6226  -44.5794 H         1 UNK         0.0600 
    158 H158       -1.9691  -16.5394  -45.2671 H         1 UNK         0.0600 
    159 H159        0.7324  -16.6963  -42.9767 H         1 UNK         0.3000 
    160 H160        2.7579  -19.0509  -41.3356 H         1 UNK         0.0600 
    161 H161        3.7224  -16.7297  -43.0773 H         1 UNK         0.0600 
    162 H162        4.2692  -18.3958  -43.2307 H         1 UNK         0.0600 
    163 H163        4.6160  -17.4902  -41.7639 H         1 UNK         0.0600 
    164 H164        2.1792  -16.1582  -41.3286 H         1 UNK         0.3000 
    165 H165       -0.1721  -16.3507  -38.6938 H         1 UNK         0.0600 
    166 H166        1.4277  -14.8878  -37.4842 H         1 UNK         0.0600 
    167 H167        1.9581  -16.5605  -37.4115 H         1 UNK         0.0600 
    168 H168        2.7510  -15.4395  -38.5120 H         1 UNK         0.0600 
    169 H169        1.2507  -14.2053  -40.0232 H         1 UNK         0.3000 
    170 H170       -0.9554  -13.8840  -42.7595 H         1 UNK         0.0600 
    171 H171       -2.3082  -12.7775  -40.9691 H         1 UNK         0.0600 
    172 H172       -0.8465  -12.0662  -40.2954 H         1 UNK         0.0600 
    173 H173       -1.3974  -11.6059  -41.9072 H         1 UNK         0.0600 
    174 H174        1.0340  -12.1008  -41.9612 H         1 UNK         0.3000 
    175 H175        2.9016  -12.0409  -43.4492 H         1 UNK         0.0600 
    176 H176        4.2337  -13.8804  -41.3755 H         1 UNK         0.0600 
    177 H177        4.8922  -12.3541  -41.9640 H         1 UNK         0.0600 
    178 H178        3.4168  -12.3641  -41.0158 H         1 UNK         0.0600 
    179 H179        4.8154  -14.1422  -43.7429 H         1 UNK         0.3000 
    180 H180        5.6130  -14.2092  -46.1200 H         1 UNK         0.0600 
    181 H181        3.7155  -16.5958  -45.7105 H         1 UNK         0.0600 
    182 H182        5.1913  -16.2345  -44.8182 H         1 UNK         0.0600 
    183 H183        5.2913  -16.7434  -46.4890 H         1 UNK         0.0600 
    184 H184        3.2391  -14.4023  -47.7672 H         1 UNK         0.3000 
    185 H185        4.9644  -13.7546  -50.6269 H         1 UNK         0.0600 
    186 H186        5.5840  -16.1361  -50.9591 H         1 UNK         0.0600 
    187 H187        4.0069  -16.6546  -50.3827 H         1 UNK         0.0600 
    188 H188        4.1441  -15.7384  -51.8811 H         1 UNK         0.0600 
    189 H189        2.3238  -14.8945  -50.1483 H         1 UNK         0.3000 
    190 H190       -1.9218  -21.1408  -46.2338 H         1 UNK         0.3000 
    191 H191       -3.6858  -22.0317  -48.2635 H         1 UNK         0.0600 
    192 H192       -4.1235  -21.7629  -45.2398 H         1 UNK         0.0600 
    193 H193       -5.3954  -21.9095  -46.4492 H         1 UNK         0.0600 
    194 H194       -4.3569  -20.4920  -46.4392 H         1 UNK         0.0600 
    195 H195       -2.3113  -23.7824  -45.4363 H         1 UNK         0.3000 
    196 H196       -3.7219  -26.2170  -45.8514 H         1 UNK         0.0600 
    197 H197       -2.0073  -27.1825  -44.3382 H         1 UNK         0.0600 
    198 H198       -2.5857  -25.6448  -43.7161 H         1 UNK         0.0600 
    199 H199       -1.0119  -25.7441  -44.5053 H         1 UNK         0.0600 
    200 H200       -0.5619  -25.0702  -47.1041 H         1 UNK         0.3000 
    201 H201        0.1380  -27.4527  -48.5032 H         1 UNK         0.0600 
    202 H202        1.7929  -25.7131  -47.9084 H         1 UNK         0.0600 
    203 H203        0.9997  -24.5482  -48.9653 H         1 UNK         0.0600 
    204 H204        1.7867  -25.9662  -49.6473 H         1 UNK         0.0600 
    205 H205       -1.6204  -24.4980  -49.5455 H         1 UNK         0.3000 
    206 H206       -2.0779  -25.3339  -52.2509 H         1 UNK         0.0600 
    207 H207       -2.2296  -22.9651  -51.5314 H         1 UNK         0.0600 
    208 H208       -3.7627  -23.4788  -52.2191 H         1 UNK         0.0600 
    209 H209       -3.5864  -23.3422  -50.4749 H         1 UNK         0.0600 
    210 H210       -3.8438  -25.8058  -49.2312 H         1 UNK         0.3000 
    211 H211       -5.4181  -27.1272  -48.5029 H         1 UNK         0.0600 
    212 H212       -5.2231  -28.7563  -51.0894 H         1 UNK         0.0600 
    213 H213       -5.9327  -29.2800  -49.5690 H         1 UNK         0.0600 
    214 H214       -4.2046  -28.9862  -49.6676 H         1 UNK         0.0600 
    215 H215       -5.9995  -24.7323  -50.1572 H         1 UNK         0.3000 
    216 H216       -8.8059  -24.6510  -50.2098 H         1 UNK         0.0600 
    217 H217       -7.4319  -24.9742  -52.9597 H         1 UNK         0.0600 
    218 H218       -9.1077  -24.4827  -52.7352 H         1 UNK         0.0600 
    219 H219       -8.6086  -26.0907  -52.2802 H         1 UNK         0.0600 
    220 H220       -9.2975  -22.5745  -51.7797 H         1 UNK         0.3000 
    221 H221       -7.5066  -20.3770  -50.9982 H         1 UNK         0.0600 
    222 H222       -9.9861  -20.1573  -50.7837 H         1 UNK         0.0600 
    223 H223      -10.1635  -20.3892  -52.5234 H         1 UNK         0.0600 
    224 H224       -9.3321  -18.9702  -51.8973 H         1 UNK         0.0600 
    225 H225       -6.9718  -22.5689  -53.1855 H         1 UNK         0.3000 
    226 H226       -6.8609  -21.4840  -55.7528 H         1 UNK         0.0600 
    227 H227       -6.5847  -23.8954  -55.2457 H         1 UNK         0.0600 
    228 H228       -5.1888  -23.3224  -56.1438 H         1 UNK         0.0600 
    229 H229       -5.0652  -23.5800  -54.4078 H         1 UNK         0.0600 
    230 H230       -5.4120  -20.3346  -56.9056 H         1 UNK         0.3000 
    231 H231       -3.9156  -18.8186  -57.4645 H         1 UNK         0.0600 
    232 H232       -2.0297  -20.1142  -55.4241 H         1 UNK         0.0600 
    233 H233       -1.5659  -19.1282  -56.8017 H         1 UNK         0.0600 
    234 H234       -2.2953  -20.7026  -57.0651 H         1 UNK         0.0600 
    235 H235       -5.6655  -18.3829  -55.0033 H         1 UNK         0.3000 
    236 H236       -6.2333  -16.8696  -53.5293 H         1 UNK         0.0600 
    237 H237       -5.3428  -14.5974  -53.4827 H         1 UNK         0.0600 
    238 H238       -3.9175  -15.0624  -54.3942 H         1 UNK         0.0600 
    239 H239       -5.5068  -15.0885  -55.1604 H         1 UNK         0.0600 
    240 H240       -3.7917  -18.8642  -53.2403 H         1 UNK         0.3000 
    241 H241       -2.7272  -17.9535  -50.6265 H         1 UNK         0.0600 
    242 H242       -5.2120  -21.3016  -50.6312 H         1 UNK         0.3800 
    243 H243       -4.4957  -20.7440  -52.1288 H         1 UNK         0.3800 
    244 H244       -1.9806  -20.4770  -52.1848 H         1 UNK         0.0800 
    245 H245       -1.1662  -19.8185  -50.7955 H         1 UNK         0.0800 
    246 H246       -1.5291  -16.4980  -52.4294 H         1 UNK         0.0800 
    247 H247        0.1524  -16.3839  -52.8584 H         1 UNK         0.0800 
@<TRIPOS>BOND
     1    1    2 1    
     2    1  127 1    
     3    1  128 1    
     4    1  129 1    
     5    2    3 2    
     6    2    4 am   BACKBONE|DICT|INTERRES
     7    4    5 1    
     8    4  130 1    
     9    5    6 1    
    10    5   65 1    
    11    5  131 1    
    12    6    7 1    
    13    6  132 1    
    14    6  133 1    
    15    7    8 1    
    16    8    9 1    
    17    8  134 1    
    18    8  135 1    
    19    9   10 ar   
    20    9   14 ar   
    21   10   11 ar   
    22   10  136 1    
    23   11   12 ar   
    24   11  126 1    
    25   12   13 ar   
    26   12  137 1    
    27   13   14 ar   
    28   13   15 1    
    29   14  138 1    
    30   15   16 1    
    31   15  139 1    
    32   15  140 1    
    33   16   17 1    
    34   17   18 1    
    35   17  141 1    
    36   17  142 1    
    37   18   19 1    
    38   18   67 1    
    39   18  143 1    
    40   19   20 am   BACKBONE|DICT|INTERRES
    41   19  144 1    
    42   20   21 2    
    43   20   22 1    
    44   22   23 1    
    45   22   24 1    
    46   22  145 1    
    47   23  146 1    
    48   23  147 1    
    49   23  148 1    
    50   24   25 am   BACKBONE|DICT|INTERRES
    51   24  149 1    
    52   25   26 2    
    53   25   27 1    
    54   27   28 1    
    55   27   29 1    
    56   27  150 1    
    57   28  151 1    
    58   28  152 1    
    59   28  153 1    
    60   29   30 am   BACKBONE|DICT|INTERRES
    61   29  154 1    
    62   30   31 2    
    63   30   32 1    
    64   32   33 1    
    65   32   34 1    
    66   32  155 1    
    67   33  156 1    
    68   33  157 1    
    69   33  158 1    
    70   34   35 am   BACKBONE|DICT|INTERRES
    71   34  159 1    
    72   35   36 2    
    73   35   37 1    
    74   37   38 1    
    75   37   39 1    
    76   37  160 1    
    77   38  161 1    
    78   38  162 1    
    79   38  163 1    
    80   39   40 am   BACKBONE|DICT|INTERRES
    81   39  164 1    
    82   40   41 2    
    83   40   42 1    
    84   42   43 1    
    85   42   44 1    
    86   42  165 1    
    87   43  166 1    
    88   43  167 1    
    89   43  168 1    
    90   44   45 am   BACKBONE|DICT|INTERRES
    91   44  169 1    
    92   45   46 2    
    93   45   47 1    
    94   47   48 1    
    95   47   49 1    
    96   47  170 1    
    97   48  171 1    
    98   48  172 1    
    99   48  173 1    
   100   49   50 am   BACKBONE|DICT|INTERRES
   101   49  174 1    
   102   50   51 2    
   103   50   52 1    
   104   52   53 1    
   105   52   54 1    
   106   52  175 1    
   107   53  176 1    
   108   53  177 1    
   109   53  178 1    
   110   54   55 am   BACKBONE|DICT|INTERRES
   111   54  179 1    
   112   55   56 2    
   113   55   57 1    
   114   57   58 1    
   115   57   59 1    
   116   57  180 1    
   117   58  181 1    
   118   58  182 1    
   119   58  183 1    
   120   59   60 am   BACKBONE|DICT|INTERRES
   121   59  184 1    
   122   60   61 2    
   123   60   62 1    
   124   62   63 1    
   125   62   64 1    
   126   62  185 1    
   127   63  186 1    
   128   63  187 1    
   129   63  188 1    
   130   64   65 am   BACKBONE|DICT|INTERRES
   131   64  189 1    
   132   65   66 2    
   133   67   68 2    
   134   67   69 am   BACKBONE|DICT|INTERRES
   135   69   70 1    
   136   69  190 1    
   137   70   71 1    
   138   70   72 1    
   139   70  191 1    
   140   71  192 1    
   141   71  193 1    
   142   71  194 1    
   143   72   73 2    
   144   72   74 am   BACKBONE|DICT|INTERRES
   145   74   75 1    
   146   74  195 1    
   147   75   76 1    
   148   75   77 1    
   149   75  196 1    
   150   76  197 1    
   151   76  198 1    
   152   76  199 1    
   153   77   78 2    
   154   77   79 am   BACKBONE|DICT|INTERRES
   155   79   80 1    
   156   79  200 1    
   157   80   81 1    
   158   80   82 1    
   159   80  201 1    
   160   81  202 1    
   161   81  203 1    
   162   81  204 1    
   163   82   83 2    
   164   82   84 am   BACKBONE|DICT|INTERRES
   165   84   85 1    
   166   84  205 1    
   167   85   86 1    
   168   85   87 1    
   169   85  206 1    
   170   86  207 1    
   171   86  208 1    
   172   86  209 1    
   173   87   88 2    
   174   87   89 am   BACKBONE|DICT|INTERRES
   175   89   90 1    
   176   89  210 1    
   177   90   91 1    
   178   90   92 1    
   179   90  211 1    
   180   91  212 1    
   181   91  213 1    
   182   91  214 1    
   183   92   93 2    
   184   92   94 am   BACKBONE|DICT|INTERRES
   185   94   95 1    
   186   94  215 1    
   187   95   96 1    
   188   95   97 1    
   189   95  216 1    
   190   96  217 1    
   191   96  218 1    
   192   96  219 1    
   193   97   98 2    
   194   97   99 am   BACKBONE|DICT|INTERRES
   195   99  100 1    
   196   99  220 1    
   197  100  101 1    
   198  100  102 1    
   199  100  221 1    
   200  101  222 1    
   201  101  223 1    
   202  101  224 1    
   203  102  103 2    
   204  102  104 am   BACKBONE|DICT|INTERRES
   205  104  105 1    
   206  104  225 1    
   207  105  106 1    
   208  105  107 1    
   209  105  226 1    
   210  106  227 1    
   211  106  228 1    
   212  106  229 1    
   213  107  108 2    
   214  107  109 am   BACKBONE|DICT|INTERRES
   215  109  110 1    
   216  109  230 1    
   217  110  111 1    
   218  110  112 1    
   219  110  231 1    
   220  111  232 1    
   221  111  233 1    
   222  111  234 1    
   223  112  113 2    
   224  112  114 am   BACKBONE|DICT|INTERRES
   225  114  115 1    
   226  114  235 1    
   227  115  116 1    
   228  115  117 1    
   229  115  236 1    
   230  116  237 1    
   231  116  238 1    
   232  116  239 1    
   233  117  118 2    
   234  117  119 am   BACKBONE|DICT|INTERRES
   235  119  120 1    
   236  119  240 1    
   237  120  121 1    
   238  120  124 1    
   239  120  241 1    
   240  121  122 am   BACKBONE|DICT|INTERRES
   241  121  123 2    
   242  122  242 1    
   243  122  243 1    
   244  124  125 1    
   245  124  244 1    
   246  124  245 1    
   247  125  126 1    
   248  126  246 1    
   249  126  247 1    
@<TRIPOS>SUBSTRUCTURE
     1 UNK         1 GROUP             0       ****    0 ROOT    
