@<TRIPOS>MOLECULE
3R540
247   249    1
SMALL
USER_CHARGES


@<TRIPOS>ATOM
      1 CA          0.2778  -14.0628  -51.4129 C.3       0 UNK        -0.1800 
      2 C           0.1707  -14.1441  -49.8980 C.2       0 UNK         0.5000 
      3 O           1.1944  -14.1790  -49.2161 O.2       0 UNK        -0.5000 
      4 N          -1.0614  -14.1475  -49.3724 N.am      1 UNK        -0.5000 
      5 CA         -1.4051  -14.3406  -47.9546 C.3       1 UNK         0.1400 
      6 C6         -2.9384  -14.3574  -47.7334 C.3       23 UNK        -0.0398 
      7 S7         -3.7735  -15.6502  -48.7103 S.3       23 UNK        -0.2404 
      8 C8         -5.3458  -15.8203  -47.8104 C.3       23 UNK        -0.0205 
      9 C9         -5.9902  -17.1693  -48.0878 C.ar      23 UNK        -0.0193 
     10 C10        -6.7005  -17.3868  -49.2717 C.ar      23 UNK        -0.1150 
     11 C11        -7.2779  -18.6331  -49.5369 C.ar      23 UNK        -0.0193 
     12 C12        -7.1457  -19.6625  -48.5970 C.ar      23 UNK        -0.1150 
     13 C13        -6.4171  -19.4646  -47.4200 C.ar      23 UNK        -0.0193 
     14 C14        -5.8589  -18.2095  -47.1640 C.ar      23 UNK        -0.1150 
     15 C15        -6.2121  -20.6059  -46.4334 C.3       23 UNK        -0.0205 
     16 S16        -5.1514  -21.9095  -47.1384 S.3       23 UNK        -0.2404 
     17 C17        -4.5613  -22.7742  -45.6445 C.3       23 UNK        -0.0398 
     18 CA         -3.0169  -22.6989  -45.4972 C.3       11 UNK         0.1400 
     19 N          -2.5452  -22.7834  -44.1129 N.am      11 UNK        -0.5000 
     20 C          -2.8126  -23.7209  -43.1938 C.2       10 UNK         0.5000 
     21 O          -3.5541  -24.6823  -43.3981 O.2       10 UNK        -0.5000 
     22 CA         -2.1072  -23.5780  -41.8335 C.3       10 UNK         0.1400 
     23 CB         -0.7765  -24.3452  -41.8499 C.3       10 UNK        -0.1800 
     24 N          -1.8384  -22.1757  -41.5097 N.am      10 UNK        -0.5000 
     25 C          -2.6006  -21.4135  -40.7134 C.2       9 UNK         0.5000 
     26 O          -3.5805  -21.8330  -40.0965 O.2       9 UNK        -0.5000 
     27 CA         -2.2141  -19.9239  -40.5943 C.3       9 UNK         0.1400 
     28 CB         -1.2129  -19.7162  -39.4479 C.3       9 UNK        -0.1800 
     29 N          -1.6434  -19.3756  -41.8251 N.am      9 UNK        -0.5000 
     30 C          -2.2982  -19.2518  -42.9878 C.2       8 UNK         0.5000 
     31 O          -3.4946  -19.5025  -43.1310 O.2       8 UNK        -0.5000 
     32 CA         -1.4718  -18.8150  -44.2116 C.3       8 UNK         0.1400 
     33 CB         -1.6571  -17.3125  -44.4745 C.3       8 UNK        -0.1800 
     34 N          -0.0407  -19.1202  -44.1289 N.am      8 UNK        -0.5000 
     35 C           0.4988  -20.3378  -43.9732 C.2       7 UNK         0.5000 
     36 O          -0.1645  -21.3645  -43.8357 O.2       7 UNK        -0.5000 
     37 CA          2.0315  -20.4212  -43.9293 C.3       7 UNK         0.1400 
     38 CB          2.6011  -20.5620  -45.3484 C.3       7 UNK        -0.1800 
     39 N           2.6143  -19.2523  -43.2718 N.am      7 UNK        -0.5000 
     40 C           2.6980  -19.1004  -41.9423 C.2       6 UNK         0.5000 
     41 O           2.3405  -19.9569  -41.1333 O.2       6 UNK        -0.5000 
     42 CA          3.2585  -17.7603  -41.4277 C.3       6 UNK         0.1400 
     43 CB          4.7894  -17.8222  -41.3190 C.3       6 UNK        -0.1800 
     44 N           2.8818  -16.6262  -42.2726 N.am      6 UNK        -0.5000 
     45 C           1.6379  -16.1374  -42.3740 C.2       5 UNK         0.5000 
     46 O           0.6841  -16.5565  -41.7177 O.2       5 UNK        -0.5000 
     47 CA          1.4149  -15.0172  -43.4096 C.3       5 UNK         0.1400 
     48 CB          1.5915  -13.6358  -42.7626 C.3       5 UNK        -0.1800 
     49 N           2.2770  -15.1029  -44.5929 N.am      5 UNK        -0.5000 
     50 C           2.3328  -16.1349  -45.4458 C.2       4 UNK         0.5000 
     51 O           1.7243  -17.1891  -45.2623 O.2       4 UNK        -0.5000 
     52 CA          3.2179  -15.9684  -46.6971 C.3       4 UNK         0.1400 
     53 CB          2.8230  -16.9416  -47.8212 C.3       4 UNK        -0.1800 
     54 N           3.1614  -14.6066  -47.2249 N.am      4 UNK        -0.5000 
     55 C           3.9795  -13.6020  -46.8903 C.2       3 UNK         0.5000 
     56 O           4.8754  -13.7002  -46.0519 O.2       3 UNK        -0.5000 
     57 CA          3.7209  -12.2548  -47.5804 C.3       3 UNK         0.1400 
     58 CB          4.2300  -12.2765  -49.0305 C.3       3 UNK        -0.1800 
     59 N           2.2950  -11.9326  -47.5716 N.am      3 UNK        -0.5000 
     60 C           1.6777  -11.2486  -46.5988 C.2       2 UNK         0.5000 
     61 O           2.2553  -10.7938  -45.6109 O.2       2 UNK        -0.5000 
     62 CA          0.1611  -11.0235  -46.7538 C.3       2 UNK         0.1400 
     63 CB         -0.1133   -9.6839  -47.4541 C.3       2 UNK        -0.1800 
     64 N          -0.5025  -12.0940  -47.4984 N.am      2 UNK        -0.5000 
     65 C          -0.7574  -13.3126  -47.0022 C.2       1 UNK         0.5000 
     66 O          -0.5047  -13.6399  -45.8436 O.2       1 UNK        -0.5000 
     67 C          -2.2774  -23.7040  -46.4047 C.2       11 UNK         0.5000 
     68 O          -1.6345  -23.2957  -47.3736 O.2       11 UNK        -0.5000 
     69 N          -2.3331  -24.9910  -46.0385 N.am      12 UNK        -0.5000 
     70 CA         -1.7279  -26.1241  -46.7447 C.3       12 UNK         0.1400 
     71 CB         -2.3339  -27.4211  -46.1859 C.3       12 UNK        -0.1800 
     72 C          -0.1864  -26.1728  -46.6804 C.2       12 UNK         0.5000 
     73 O           0.4207  -26.9851  -47.3789 O.2       12 UNK        -0.5000 
     74 N           0.4249  -25.3087  -45.8579 N.am      13 UNK        -0.5000 
     75 CA          1.8748  -25.1150  -45.7646 C.3       13 UNK         0.1400 
     76 CB          2.1846  -24.3402  -44.4751 C.3       13 UNK        -0.1800 
     77 C           2.4818  -24.4036  -46.9945 C.2       13 UNK         0.5000 
     78 O           3.7011  -24.4293  -47.1657 O.2       13 UNK        -0.5000 
     79 N           1.6298  -23.7940  -47.8253 N.am      14 UNK        -0.5000 
     80 CA          1.9582  -23.1993  -49.1159 C.3       14 UNK         0.1400 
     81 CB          2.0343  -21.6702  -48.9512 C.3       14 UNK        -0.1800 
     82 C           0.8911  -23.6332  -50.1382 C.2       14 UNK         0.5000 
     83 O           0.0351  -24.4638  -49.8197 O.2       14 UNK        -0.5000 
     84 N           0.9333  -23.0609  -51.3496 N.am      15 UNK        -0.5000 
     85 CA         -0.0366  -23.2827  -52.4303 C.3       15 UNK         0.1400 
     86 CB          0.5842  -22.8103  -53.7579 C.3       15 UNK        -0.1800 
     87 C          -1.3879  -22.5935  -52.1384 C.2       15 UNK         0.5000 
     88 O          -1.7719  -21.6625  -52.8508 O.2       15 UNK        -0.5000 
     89 N          -2.0423  -23.0367  -51.0556 N.am      16 UNK        -0.5000 
     90 CA         -3.2090  -22.4495  -50.3936 C.3       16 UNK         0.1400 
     91 CB         -4.4591  -22.5193  -51.2886 C.3       16 UNK        -0.1800 
     92 C          -2.8822  -21.0217  -49.9289 C.2       16 UNK         0.5000 
     93 O          -3.3225  -20.0545  -50.5464 O.2       16 UNK        -0.5000 
     94 N          -2.0174  -20.9245  -48.9073 N.am      17 UNK        -0.5000 
     95 CA         -1.5095  -19.6800  -48.3097 C.3       17 UNK         0.1400 
     96 CB         -2.6639  -18.9094  -47.6477 C.3       17 UNK        -0.1800 
     97 C          -0.7226  -18.7881  -49.2966 C.2       17 UNK         0.5000 
     98 O          -0.6132  -17.5828  -49.0813 O.2       17 UNK        -0.5000 
     99 N          -0.2049  -19.4053  -50.3689 N.am      18 UNK        -0.5000 
    100 CA         0.4407  -18.7849  -51.5283 C.3       18 UNK         0.1400 
    101 CB         1.7116  -18.0081  -51.1249 C.3       18 UNK        -0.1800 
    102 C         -0.5259  -17.9503  -52.3984 C.2       18 UNK         0.5000 
    103 O         -0.0686  -17.1119  -53.1757 O.2       18 UNK        -0.5000 
    104 N         -1.8371  -18.2255  -52.3104 N.am      19 UNK        -0.5000 
    105 CA        -2.8745  -17.6295  -53.1581 C.3       19 UNK         0.1400 
    106 CB        -4.2227  -17.6682  -52.4173 C.3       19 UNK        -0.1800 
    107 C         -2.9853  -18.3102  -54.5404 C.2       19 UNK         0.5000 
    108 O         -3.8637  -17.9380  -55.3183 O.2       19 UNK        -0.5000 
    109 N         -2.1169  -19.2977  -54.8130 N.am      20 UNK        -0.5000 
    110 CA        -2.0201  -20.1118  -56.0280 C.3       20 UNK         0.1400 
    111 CB        -1.6965  -19.2457  -57.2634 C.3       20 UNK        -0.1800 
    112 C         -3.2718  -20.9873  -56.2005 C.2       20 UNK         0.5000 
    113 O         -3.9998  -20.8611  -57.1877 O.2       20 UNK        -0.5000 
    114 N         -3.5261  -21.8167  -55.1770 N.am      21 UNK        -0.5000 
    115 CA        -4.6907  -22.6999  -55.0243 C.3       21 UNK         0.1400 
    116 CB        -4.7074  -23.7859  -56.1202 C.3       21 UNK        -0.1800 
    117 C         -6.0276  -21.9302  -54.9245 C.2       21 UNK         0.5000 
    118 O         -7.0857  -22.4996  -55.1964 O.2       21 UNK        -0.5000 
    119 N         -5.9443  -20.6470  -54.5458 N.am      22 UNK        -0.5000 
    120 CA        -7.0436  -19.6697  -54.4753 C.3       22 UNK         0.1400 
    121 C         -7.6436  -19.2882  -55.8642 C.2       22 UNK         0.5000 
    122 N         -6.9511  -19.5275  -56.9731 N.am      22 UNK        -0.7600 
    123 O         -8.7403  -18.7408  -55.9434 O.2       22 UNK        -0.5000 
    124 C124       -8.1259  -20.0369  -53.4194 C.3       23 UNK        -0.0398 
    125 S125       -7.4050  -20.2958  -51.7614 S.3       23 UNK        -0.2404 
    126 C126       -8.0381  -18.8588  -50.8389 C.3       23 UNK        -0.0205 
    127 H127        0.9459  -14.8410  -51.7818 H         1 UNK         0.0600 
    128 H128       -0.6911  -14.1946  -51.8953 H         1 UNK         0.0600 
    129 H129        0.6831  -13.0957  -51.7096 H         1 UNK         0.0600 
    130 H130       -1.8550  -14.1298  -49.9964 H         1 UNK         0.3000 
    131 H131       -1.0110  -15.3175  -47.6664 H         1 UNK         0.0600 
    132 H132       -3.3793  -13.3924  -47.9896 H         1 UNK         0.0800 
    133 H133       -3.1586  -14.5291  -46.6780 H         1 UNK         0.0800 
    134 H134       -6.0206  -15.0150  -48.1044 H         1 UNK         0.0800 
    135 H135       -5.1772  -15.7065  -46.7387 H         1 UNK         0.0800 
    136 H136       -6.7896  -16.5853  -49.9914 H         1 UNK         0.1150 
    137 H137       -7.5802  -20.6316  -48.7981 H         1 UNK         0.1150 
    138 H138       -5.2934  -18.0490  -46.2568 H         1 UNK         0.1150 
    139 H139       -5.7619  -20.2276  -45.5140 H         1 UNK         0.0800 
    140 H140       -7.1774  -21.0321  -46.1570 H         1 UNK         0.0800 
    141 H141       -4.9147  -23.8064  -45.6678 H         1 UNK         0.0800 
    142 H142       -5.0360  -22.3246  -44.7714 H         1 UNK         0.0800 
    143 H143       -2.7017  -21.7051  -45.8188 H         1 UNK         0.0600 
    144 H144       -1.8222  -22.1080  -43.8794 H         1 UNK         0.3000 
    145 H145       -2.7505  -24.0281  -41.0746 H         1 UNK         0.0600 
    146 H146       -0.2956  -24.3177  -40.8721 H         1 UNK         0.0600 
    147 H147       -0.9290  -25.3940  -42.1084 H         1 UNK         0.0600 
    148 H148       -0.0808  -23.9237  -42.5752 H         1 UNK         0.0600 
    149 H149       -1.0696  -21.7411  -42.0058 H         1 UNK         0.3000 
    150 H150       -3.1219  -19.3622  -40.3649 H         1 UNK         0.0600 
    151 H151       -1.6140  -20.0912  -38.5054 H         1 UNK         0.0600 
    152 H152       -0.9878  -18.6586  -39.3078 H         1 UNK         0.0600 
    153 H153       -0.2725  -20.2363  -39.6360 H         1 UNK         0.0600 
    154 H154       -0.6672  -19.1164  -41.7996 H         1 UNK         0.3000 
    155 H155       -1.8581  -19.3705  -45.0644 H         1 UNK         0.0600 
    156 H156       -1.3573  -16.7181  -43.6118 H         1 UNK         0.0600 
    157 H157       -2.7020  -17.0796  -44.6836 H         1 UNK         0.0600 
    158 H158       -1.0717  -16.9781  -45.3315 H         1 UNK         0.0600 
    159 H159        0.5918  -18.3447  -44.3094 H         1 UNK         0.3000 
    160 H160        2.3035  -21.3162  -43.3660 H         1 UNK         0.0600 
    161 H161        3.6866  -20.6590  -45.3317 H         1 UNK         0.0600 
    162 H162        2.3484  -19.7065  -45.9740 H         1 UNK         0.0600 
    163 H163        2.2030  -21.4500  -45.8396 H         1 UNK         0.0600 
    164 H164        2.8551  -18.4733  -43.8695 H         1 UNK         0.3000 
    165 H165        2.8521  -17.5922  -40.4279 H         1 UNK         0.0600 
    166 H166        5.1916  -16.9053  -40.8877 H         1 UNK         0.0600 
    167 H167        5.1018  -18.6465  -40.6763 H         1 UNK         0.0600 
    168 H168        5.2578  -17.9696  -42.2929 H         1 UNK         0.0600 
    169 H169        3.6062  -16.2186  -42.8452 H         1 UNK         0.3000 
    170 H170        0.3835  -15.0984  -43.7547 H         1 UNK         0.0600 
    171 H171        0.9452  -13.5264  -41.8907 H         1 UNK         0.0600 
    172 H172        2.6189  -13.4728  -42.4348 H         1 UNK         0.0600 
    173 H173        1.3304  -12.8397  -43.4607 H         1 UNK         0.0600 
    174 H174        2.8217  -14.2818  -44.8136 H         1 UNK         0.3000 
    175 H175        4.2419  -16.2021  -46.3996 H         1 UNK         0.0600 
    176 H176        1.7816  -16.8054  -48.1141 H         1 UNK         0.0600 
    177 H177        3.4407  -16.7940  -48.7070 H         1 UNK         0.0600 
    178 H178        2.9459  -17.9793  -47.5118 H         1 UNK         0.0600 
    179 H179        2.4321  -14.4320  -47.9147 H         1 UNK         0.3000 
    180 H180        4.2779  -11.4848  -47.0421 H         1 UNK         0.0600 
    181 H181        3.7105  -13.0221  -49.6337 H         1 UNK         0.0600 
    182 H182        5.2950  -12.5093  -49.0662 H         1 UNK         0.0600 
    183 H183        4.0932  -11.3065  -49.5088 H         1 UNK         0.0600 
    184 H184        1.7363  -12.3468  -48.3075 H         1 UNK         0.3000 
    185 H185       -0.2709  -10.9776  -45.7517 H         1 UNK         0.0600 
    186 H186        0.3471   -8.8578  -46.9106 H         1 UNK         0.0600 
    187 H187        0.2844   -9.6708  -48.4697 H         1 UNK         0.0600 
    188 H188       -1.1827   -9.4791  -47.5088 H         1 UNK         0.0600 
    189 H189       -0.7425  -11.9054  -48.4608 H         1 UNK         0.3000 
    190 H190       -2.8490  -25.2100  -45.1916 H         1 UNK         0.3000 
    191 H191       -1.9985  -26.0442  -47.7997 H         1 UNK         0.0600 
    192 H192       -2.1078  -27.5447  -45.1260 H         1 UNK         0.0600 
    193 H193       -1.9453  -28.2956  -46.7096 H         1 UNK         0.0600 
    194 H194       -3.4179  -27.4318  -46.3014 H         1 UNK         0.0600 
    195 H195       -0.1522  -24.6806  -45.3197 H         1 UNK         0.3000 
    196 H196        2.3508  -26.0953  -45.6947 H         1 UNK         0.0600 
    197 H197        1.6365  -23.4000  -44.4347 H         1 UNK         0.0600 
    198 H198        3.2475  -24.1080  -44.3959 H         1 UNK         0.0600 
    199 H199        1.9162  -24.9237  -43.5946 H         1 UNK         0.0600 
    200 H200        0.6360  -23.8906  -47.6519 H         1 UNK         0.3000 
    201 H201        2.9188  -23.5736  -49.4754 H         1 UNK         0.0600 
    202 H202        2.2532  -21.1680  -49.8935 H         1 UNK         0.0600 
    203 H203        2.8282  -21.3948  -48.2572 H         1 UNK         0.0600 
    204 H204        1.1011  -21.2647  -48.5623 H         1 UNK         0.0600 
    205 H205        1.6725  -22.4030  -51.5490 H         1 UNK         0.3000 
    206 H206       -0.2290  -24.3543  -52.5155 H         1 UNK         0.0600 
    207 H207        1.5044  -23.3521  -53.9769 H         1 UNK         0.0600 
    208 H208       -0.0976  -22.9834  -54.5917 H         1 UNK         0.0600 
    209 H209        0.8185  -21.7453  -53.7404 H         1 UNK         0.0600 
    210 H210       -1.5687  -23.7630  -50.5228 H         1 UNK         0.3000 
    211 H211       -3.4050  -23.0503  -49.5045 H         1 UNK         0.0600 
    212 H212       -4.3807  -21.8590  -52.1517 H         1 UNK         0.0600 
    213 H213       -5.3415  -22.2122  -50.7268 H         1 UNK         0.0600 
    214 H214       -4.6365  -23.5336  -51.6446 H         1 UNK         0.0600 
    215 H215       -1.7173  -21.7871  -48.4575 H         1 UNK         0.3000 
    216 H216       -0.8075  -19.9699  -47.5266 H         1 UNK         0.0600 
    217 H217       -2.3056  -18.0276  -47.1190 H         1 UNK         0.0600 
    218 H218       -3.2041  -19.5307  -46.9355 H         1 UNK         0.0600 
    219 H219       -3.3798  -18.5633  -48.3919 H         1 UNK         0.0600 
    220 H220       -0.3973  -20.3917  -50.4540 H         1 UNK         0.3000 
    221 H221        0.7594  -19.6143  -52.1608 H         1 UNK         0.0600 
    222 H222        1.4725  -17.0882  -50.5913 H         1 UNK         0.0600 
    223 H223        2.3584  -18.6091  -50.4860 H         1 UNK         0.0600 
    224 H224        2.2933  -17.7280  -52.0036 H         1 UNK         0.0600 
    225 H225       -2.1635  -18.9232  -51.6459 H         1 UNK         0.3000 
    226 H226       -2.6222  -16.5816  -53.3317 H         1 UNK         0.0600 
    227 H227       -4.6115  -18.6837  -52.3374 H         1 UNK         0.0600 
    228 H228       -4.1350  -17.2654  -51.4080 H         1 UNK         0.0600 
    229 H229       -4.9734  -17.0740  -52.9391 H         1 UNK         0.0600 
    230 H230       -1.5068  -19.5799  -54.0585 H         1 UNK         0.3000 
    231 H231       -1.1812  -20.7932  -55.8782 H         1 UNK         0.0600 
    232 H232       -0.7949  -18.6545  -57.1036 H         1 UNK         0.0600 
    233 H233       -2.5075  -18.5600  -57.5096 H         1 UNK         0.0600 
    234 H234       -1.5245  -19.8716  -58.1397 H         1 UNK         0.0600 
    235 H235       -2.8915  -21.7906  -54.3814 H         1 UNK         0.3000 
    236 H236       -4.5613  -23.2129  -54.0722 H         1 UNK         0.0600 
    237 H237       -5.4700  -24.5376  -55.9132 H         1 UNK         0.0600 
    238 H238       -4.9221  -23.3685  -57.1042 H         1 UNK         0.0600 
    239 H239       -3.7504  -24.3045  -56.1762 H         1 UNK         0.0600 
    240 H240       -5.0243  -20.2744  -54.3669 H         1 UNK         0.3000 
    241 H241       -6.5759  -18.7463  -54.1331 H         1 UNK         0.0600 
    242 H242       -6.0344  -19.9549  -56.9314 H         1 UNK         0.3800 
    243 H243       -7.3404  -19.2683  -57.8656 H         1 UNK         0.3800 
    244 H244       -8.8845  -19.2554  -53.3575 H         1 UNK         0.0800 
    245 H245       -8.6559  -20.9440  -53.7114 H         1 UNK         0.0800 
    246 H246       -7.9692  -17.9739  -51.4736 H         1 UNK         0.0800 
    247 H247       -9.0959  -19.0072  -50.6185 H         1 UNK         0.0800 
@<TRIPOS>BOND
     1    1    2 1    
     2    1  127 1    
     3    1  128 1    
     4    1  129 1    
     5    2    3 2    
     6    2    4 am   BACKBONE|DICT|INTERRES
     7    4    5 1    
     8    4  130 1    
     9    5    6 1    
    10    5   65 1    
    11    5  131 1    
    12    6    7 1    
    13    6  132 1    
    14    6  133 1    
    15    7    8 1    
    16    8    9 1    
    17    8  134 1    
    18    8  135 1    
    19    9   10 ar   
    20    9   14 ar   
    21   10   11 ar   
    22   10  136 1    
    23   11   12 ar   
    24   11  126 1    
    25   12   13 ar   
    26   12  137 1    
    27   13   14 ar   
    28   13   15 1    
    29   14  138 1    
    30   15   16 1    
    31   15  139 1    
    32   15  140 1    
    33   16   17 1    
    34   17   18 1    
    35   17  141 1    
    36   17  142 1    
    37   18   19 1    
    38   18   67 1    
    39   18  143 1    
    40   19   20 am   BACKBONE|DICT|INTERRES
    41   19  144 1    
    42   20   21 2    
    43   20   22 1    
    44   22   23 1    
    45   22   24 1    
    46   22  145 1    
    47   23  146 1    
    48   23  147 1    
    49   23  148 1    
    50   24   25 am   BACKBONE|DICT|INTERRES
    51   24  149 1    
    52   25   26 2    
    53   25   27 1    
    54   27   28 1    
    55   27   29 1    
    56   27  150 1    
    57   28  151 1    
    58   28  152 1    
    59   28  153 1    
    60   29   30 am   BACKBONE|DICT|INTERRES
    61   29  154 1    
    62   30   31 2    
    63   30   32 1    
    64   32   33 1    
    65   32   34 1    
    66   32  155 1    
    67   33  156 1    
    68   33  157 1    
    69   33  158 1    
    70   34   35 am   BACKBONE|DICT|INTERRES
    71   34  159 1    
    72   35   36 2    
    73   35   37 1    
    74   37   38 1    
    75   37   39 1    
    76   37  160 1    
    77   38  161 1    
    78   38  162 1    
    79   38  163 1    
    80   39   40 am   BACKBONE|DICT|INTERRES
    81   39  164 1    
    82   40   41 2    
    83   40   42 1    
    84   42   43 1    
    85   42   44 1    
    86   42  165 1    
    87   43  166 1    
    88   43  167 1    
    89   43  168 1    
    90   44   45 am   BACKBONE|DICT|INTERRES
    91   44  169 1    
    92   45   46 2    
    93   45   47 1    
    94   47   48 1    
    95   47   49 1    
    96   47  170 1    
    97   48  171 1    
    98   48  172 1    
    99   48  173 1    
   100   49   50 am   BACKBONE|DICT|INTERRES
   101   49  174 1    
   102   50   51 2    
   103   50   52 1    
   104   52   53 1    
   105   52   54 1    
   106   52  175 1    
   107   53  176 1    
   108   53  177 1    
   109   53  178 1    
   110   54   55 am   BACKBONE|DICT|INTERRES
   111   54  179 1    
   112   55   56 2    
   113   55   57 1    
   114   57   58 1    
   115   57   59 1    
   116   57  180 1    
   117   58  181 1    
   118   58  182 1    
   119   58  183 1    
   120   59   60 am   BACKBONE|DICT|INTERRES
   121   59  184 1    
   122   60   61 2    
   123   60   62 1    
   124   62   63 1    
   125   62   64 1    
   126   62  185 1    
   127   63  186 1    
   128   63  187 1    
   129   63  188 1    
   130   64   65 am   BACKBONE|DICT|INTERRES
   131   64  189 1    
   132   65   66 2    
   133   67   68 2    
   134   67   69 am   BACKBONE|DICT|INTERRES
   135   69   70 1    
   136   69  190 1    
   137   70   71 1    
   138   70   72 1    
   139   70  191 1    
   140   71  192 1    
   141   71  193 1    
   142   71  194 1    
   143   72   73 2    
   144   72   74 am   BACKBONE|DICT|INTERRES
   145   74   75 1    
   146   74  195 1    
   147   75   76 1    
   148   75   77 1    
   149   75  196 1    
   150   76  197 1    
   151   76  198 1    
   152   76  199 1    
   153   77   78 2    
   154   77   79 am   BACKBONE|DICT|INTERRES
   155   79   80 1    
   156   79  200 1    
   157   80   81 1    
   158   80   82 1    
   159   80  201 1    
   160   81  202 1    
   161   81  203 1    
   162   81  204 1    
   163   82   83 2    
   164   82   84 am   BACKBONE|DICT|INTERRES
   165   84   85 1    
   166   84  205 1    
   167   85   86 1    
   168   85   87 1    
   169   85  206 1    
   170   86  207 1    
   171   86  208 1    
   172   86  209 1    
   173   87   88 2    
   174   87   89 am   BACKBONE|DICT|INTERRES
   175   89   90 1    
   176   89  210 1    
   177   90   91 1    
   178   90   92 1    
   179   90  211 1    
   180   91  212 1    
   181   91  213 1    
   182   91  214 1    
   183   92   93 2    
   184   92   94 am   BACKBONE|DICT|INTERRES
   185   94   95 1    
   186   94  215 1    
   187   95   96 1    
   188   95   97 1    
   189   95  216 1    
   190   96  217 1    
   191   96  218 1    
   192   96  219 1    
   193   97   98 2    
   194   97   99 am   BACKBONE|DICT|INTERRES
   195   99  100 1    
   196   99  220 1    
   197  100  101 1    
   198  100  102 1    
   199  100  221 1    
   200  101  222 1    
   201  101  223 1    
   202  101  224 1    
   203  102  103 2    
   204  102  104 am   BACKBONE|DICT|INTERRES
   205  104  105 1    
   206  104  225 1    
   207  105  106 1    
   208  105  107 1    
   209  105  226 1    
   210  106  227 1    
   211  106  228 1    
   212  106  229 1    
   213  107  108 2    
   214  107  109 am   BACKBONE|DICT|INTERRES
   215  109  110 1    
   216  109  230 1    
   217  110  111 1    
   218  110  112 1    
   219  110  231 1    
   220  111  232 1    
   221  111  233 1    
   222  111  234 1    
   223  112  113 2    
   224  112  114 am   BACKBONE|DICT|INTERRES
   225  114  115 1    
   226  114  235 1    
   227  115  116 1    
   228  115  117 1    
   229  115  236 1    
   230  116  237 1    
   231  116  238 1    
   232  116  239 1    
   233  117  118 2    
   234  117  119 am   BACKBONE|DICT|INTERRES
   235  119  120 1    
   236  119  240 1    
   237  120  121 1    
   238  120  124 1    
   239  120  241 1    
   240  121  122 am   BACKBONE|DICT|INTERRES
   241  121  123 2    
   242  122  242 1    
   243  122  243 1    
   244  124  125 1    
   245  124  244 1    
   246  124  245 1    
   247  125  126 1    
   248  126  246 1    
   249  126  247 1    
@<TRIPOS>SUBSTRUCTURE
     1 UNK         1 GROUP             0       ****    0 ROOT    
