@<TRIPOS>MOLECULE
3R540
247   249    1
SMALL
USER_CHARGES


@<TRIPOS>ATOM
      1 CA          6.2457  -14.0328  -44.8944 C.3       0 UNK        -0.1800 
      2 C           4.8234  -13.6723  -45.2973 C.2       0 UNK         0.5000 
      3 O           3.9118  -13.7737  -44.4786 O.2       0 UNK        -0.5000 
      4 N           4.6301  -13.2566  -46.5556 N.am      1 UNK        -0.5000 
      5 CA          3.3255  -12.8790  -47.1158 C.3       1 UNK         0.1400 
      6 C6          3.3400  -12.8466  -48.6643 C.3       23 UNK        -0.0398 
      7 S7          3.7792  -14.4495  -49.4210 S.3       23 UNK        -0.2404 
      8 C8          2.1276  -15.1930  -49.5915 C.3       23 UNK        -0.0205 
      9 C9          2.1460  -16.4888  -50.3860 C.ar      23 UNK        -0.0193 
     10 C10         1.4729  -16.5614  -51.6070 C.ar      23 UNK        -0.1150 
     11 C11         1.4438  -17.7524  -52.3345 C.ar      23 UNK        -0.0193 
     12 C12         2.1064  -18.8793  -51.8372 C.ar      23 UNK        -0.1150 
     13 C13         2.7862  -18.8214  -50.6163 C.ar      23 UNK        -0.0193 
     14 C14         2.7983  -17.6235  -49.8931 C.ar      23 UNK        -0.1150 
     15 C15         3.5462  -20.0364  -50.1006 C.3       23 UNK        -0.0205 
     16 S16         2.8167  -20.7356  -48.5864 S.3       23 UNK        -0.2404 
     17 C17         1.3349  -21.5896  -49.2232 C.3       23 UNK        -0.0398 
     18 CA          0.7845  -22.6178  -48.2024 C.3       11 UNK         0.1400 
     19 N           0.3638  -21.9930  -46.9433 N.am      11 UNK        -0.5000 
     20 C          -0.0464  -22.6561  -45.8525 C.2       10 UNK         0.5000 
     21 O          -0.0354  -23.8832  -45.7504 O.2       10 UNK        -0.5000 
     22 CA         -0.6322  -21.8063  -44.7126 C.3       10 UNK         0.1400 
     23 CB          0.4772  -21.2318  -43.8183 C.3       10 UNK        -0.1800 
     24 N          -1.4723  -20.7245  -45.2317 N.am      10 UNK        -0.5000 
     25 C          -2.7020  -20.9064  -45.7342 C.2       9 UNK         0.5000 
     26 O          -3.2657  -21.9987  -45.7626 O.2       9 UNK        -0.5000 
     27 CA         -3.4155  -19.6780  -46.3314 C.3       9 UNK         0.1400 
     28 CB         -4.2203  -18.9403  -45.2519 C.3       9 UNK        -0.1800 
     29 N          -2.4977  -18.7388  -46.9732 N.am      9 UNK        -0.5000 
     30 C          -1.8278  -18.9844  -48.1076 C.2       8 UNK         0.5000 
     31 O          -1.9389  -20.0224  -48.7583 O.2       8 UNK        -0.5000 
     32 CA         -0.8201  -17.9093  -48.5523 C.3       8 UNK         0.1400 
     33 CB         -1.5259  -16.8272  -49.3823 C.3       8 UNK        -0.1800 
     34 N          -0.1031  -17.2806  -47.4367 N.am      8 UNK        -0.5000 
     35 C           0.6456  -17.9238  -46.5326 C.2       7 UNK         0.5000 
     36 O           0.7387  -19.1490  -46.4943 O.2       7 UNK        -0.5000 
     37 CA          1.3989  -17.0996  -45.4694 C.3       7 UNK         0.1400 
     38 CB          2.8155  -16.7458  -45.9498 C.3       7 UNK        -0.1800 
     39 N           0.7099  -15.9229  -44.9211 N.am      7 UNK        -0.5000 
     40 C           0.2319  -14.8215  -45.5133 C.2       6 UNK         0.5000 
     41 O           0.2433  -14.6375  -46.7291 O.2       6 UNK        -0.5000 
     42 CA         -0.3972  -13.7412  -44.6085 C.3       6 UNK         0.1400 
     43 CB         -1.8698  -14.0784  -44.3097 C.3       6 UNK        -0.1800 
     44 N           0.3265  -13.4257  -43.3682 N.am      6 UNK        -0.5000 
     45 C           0.5926  -14.2069  -42.3099 C.2       5 UNK         0.5000 
     46 O           0.3175  -15.4059  -42.2441 O.2       5 UNK        -0.5000 
     47 CA          1.2429  -13.5176  -41.0954 C.3       5 UNK         0.1400 
     48 CB          2.7690  -13.4514  -41.2502 C.3       5 UNK        -0.1800 
     49 N           0.7180  -12.1713  -40.8571 N.am      5 UNK        -0.5000 
     50 C          -0.5459  -11.8984  -40.4983 C.2       4 UNK         0.5000 
     51 O          -1.3945  -12.7661  -40.2878 O.2       4 UNK        -0.5000 
     52 CA         -0.9388  -10.4168  -40.3292 C.3       4 UNK         0.1400 
     53 CB         -1.1479  -10.0822  -38.8434 C.3       4 UNK        -0.1800 
     54 N           0.0272   -9.4684  -40.8882 N.am      4 UNK        -0.5000 
     55 C           0.2382   -9.2511  -42.1927 C.2       3 UNK         0.5000 
     56 O          -0.3542   -9.8608  -43.0861 O.2       3 UNK        -0.5000 
     57 CA          1.2591   -8.1478  -42.5542 C.3       3 UNK         0.1400 
     58 CB          2.2904   -7.8634  -41.4374 C.3       3 UNK        -0.1800 
     59 N           1.9481   -8.3900  -43.8254 N.am      3 UNK        -0.5000 
     60 C           2.7155   -9.4416  -44.1422 C.2       2 UNK         0.5000 
     61 O           2.9344  -10.3949  -43.3904 O.2       2 UNK        -0.5000 
     62 CA          3.4037   -9.3640  -45.5181 C.3       2 UNK         0.1400 
     63 CB          4.7140   -8.5670  -45.4146 C.3       2 UNK        -0.1800 
     64 N           3.7054  -10.6808  -46.0738 N.am      2 UNK        -0.5000 
     65 C           2.7980  -11.5365  -46.5616 C.2       1 UNK         0.5000 
     66 O           1.5919  -11.2923  -46.6122 O.2       1 UNK        -0.5000 
     67 C          -0.3597  -23.4552  -48.8103 C.2       11 UNK         0.5000 
     68 O          -0.1369  -24.6009  -49.2012 O.2       11 UNK        -0.5000 
     69 N          -1.5763  -22.8951  -48.8066 N.am      12 UNK        -0.5000 
     70 CA         -2.7982  -23.5621  -49.2424 C.3       12 UNK         0.1400 
     71 CB         -3.9296  -22.5388  -49.3144 C.3       12 UNK        -0.1800 
     72 C          -3.2016  -24.7527  -48.3620 C.2       12 UNK         0.5000 
     73 O          -3.6183  -25.7758  -48.9020 O.2       12 UNK        -0.5000 
     74 N          -3.0457  -24.6255  -47.0372 N.am      13 UNK        -0.5000 
     75 CA         -3.2871  -25.7037  -46.0768 C.3       13 UNK         0.1400 
     76 CB         -3.2136  -25.1572  -44.6434 C.3       13 UNK        -0.1800 
     77 C          -2.3195  -26.8861  -46.2650 C.2       13 UNK         0.5000 
     78 O          -2.7525  -28.0366  -46.1970 O.2       13 UNK        -0.5000 
     79 N          -1.0430  -26.5836  -46.5427 N.am      14 UNK        -0.5000 
     80 CA         -0.0116  -27.5678  -46.8743 C.3       14 UNK         0.1400 
     81 CB          1.3677  -26.8916  -46.8507 C.3       14 UNK        -0.1800 
     82 C          -0.2645  -28.2601  -48.2282 C.2       14 UNK         0.5000 
     83 O          -0.0651  -29.4705  -48.3377 O.2       14 UNK        -0.5000 
     84 N          -0.7190  -27.4882  -49.2252 N.am      15 UNK        -0.5000 
     85 CA         -1.0844  -27.9720  -50.5593 C.3       15 UNK         0.1400 
     86 CB         -1.1502  -26.7733  -51.5193 C.3       15 UNK        -0.1800 
     87 C          -2.4152  -28.7520  -50.5979 C.2       15 UNK         0.5000 
     88 O          -2.6426  -29.4949  -51.5536 O.2       15 UNK        -0.5000 
     89 N          -3.2670  -28.5503  -49.5816 N.am      16 UNK        -0.5000 
     90 CA         -4.6545  -29.0100  -49.4627 C.3       16 UNK         0.1400 
     91 CB         -4.7330  -30.5495  -49.3915 C.3       16 UNK        -0.1800 
     92 C          -5.5475  -28.3923  -50.5602 C.2       16 UNK         0.5000 
     93 O          -6.2693  -29.1064  -51.2596 O.2       16 UNK        -0.5000 
     94 N          -5.4490  -27.0663  -50.7014 N.am      17 UNK        -0.5000 
     95 CA         -6.1108  -26.2549  -51.7198 C.3       17 UNK         0.1400 
     96 CB         -5.0721  -25.9183  -52.8045 C.3       17 UNK        -0.1800 
     97 C          -6.7297  -24.9912  -51.0908 C.2       17 UNK         0.5000 
     98 O          -6.6686  -24.8110  -49.8723 O.2       17 UNK        -0.5000 
     99 N          -7.3427  -24.1463  -51.9304 N.am      18 UNK        -0.5000 
    100 CA        -7.9537  -22.8753  -51.5373 C.3       18 UNK         0.1400 
    101 CB        -8.9368  -22.4359  -52.6333 C.3       18 UNK        -0.1800 
    102 C         -6.8942  -21.7820  -51.3173 C.2       18 UNK         0.5000 
    103 O         -5.9275  -21.7102  -52.0813 O.2       18 UNK        -0.5000 
    104 N         -7.1188  -20.9219  -50.3132 N.am      19 UNK        -0.5000 
    105 CA        -6.2363  -19.8110  -49.9337 C.3       19 UNK         0.1400 
    106 CB        -6.7562  -19.1572  -48.6449 C.3       19 UNK        -0.1800 
    107 C         -6.0481  -18.7620  -51.0426 C.2       19 UNK         0.5000 
    108 O         -4.9431  -18.2479  -51.2112 O.2       19 UNK        -0.5000 
    109 N         -7.1160  -18.5044  -51.8098 N.am      20 UNK        -0.5000 
    110 CA        -7.1202  -17.5924  -52.9567 C.3       20 UNK         0.1400 
    111 CB        -8.5740  -17.3463  -53.3884 C.3       20 UNK        -0.1800 
    112 C         -6.2839  -18.0992  -54.1495 C.2       20 UNK         0.5000 
    113 O         -5.8380  -17.2886  -54.9622 O.2       20 UNK        -0.5000 
    114 N         -6.0873  -19.4213  -54.2303 N.am      21 UNK        -0.5000 
    115 CA        -5.2877  -20.0930  -55.2539 C.3       21 UNK         0.1400 
    116 CB        -6.0182  -21.3853  -55.6584 C.3       21 UNK        -0.1800 
    117 C         -3.8603  -20.4137  -54.7676 C.2       21 UNK         0.5000 
    118 O         -3.0661  -20.9245  -55.5588 O.2       21 UNK        -0.5000 
    119 N         -3.5681  -20.1465  -53.4853 N.am      22 UNK        -0.5000 
    120 CA        -2.3549  -20.5734  -52.7636 C.3       22 UNK         0.1400 
    121 C         -2.2440  -22.1223  -52.6115 C.2       22 UNK         0.5000 
    122 N         -3.3474  -22.8595  -52.6373 N.am      22 UNK        -0.7600 
    123 O         -1.1547  -22.6687  -52.4605 O.2       22 UNK        -0.5000 
    124 C124       -1.0431  -19.9538  -53.3189 C.3       23 UNK        -0.0398 
    125 S125       -1.0702  -18.1351  -53.4269 S.3       23 UNK        -0.2404 
    126 C126        0.7029  -17.8004  -53.6616 C.3       23 UNK        -0.0205 
    127 H127        6.9483  -13.8936  -45.7164 H         1 UNK         0.0600 
    128 H128        6.2920  -15.0754  -44.5799 H         1 UNK         0.0600 
    129 H129        6.5682  -13.4092  -44.0607 H         1 UNK         0.0600 
    130 H130        5.4111  -13.2179  -47.1951 H         1 UNK         0.3000 
    131 H131        2.6091  -13.6389  -46.8088 H         1 UNK         0.0600 
    132 H132        2.3688  -12.5328  -49.0517 H         1 UNK         0.0800 
    133 H133        4.0551  -12.1024  -49.0190 H         1 UNK         0.0800 
    134 H134        1.4530  -14.4727  -50.0563 H         1 UNK         0.0800 
    135 H135        1.7213  -15.3977  -48.6056 H         1 UNK         0.0800 
    136 H136        0.9578  -15.6918  -51.9908 H         1 UNK         0.1150 
    137 H137        2.1018  -19.7985  -52.4054 H         1 UNK         0.1150 
    138 H138        3.3200  -17.5730  -48.9479 H         1 UNK         0.1150 
    139 H139        3.6138  -20.8121  -50.8648 H         1 UNK         0.0800 
    140 H140        4.5724  -19.7374  -49.8831 H         1 UNK         0.0800 
    141 H141        1.5987  -22.0886  -50.1575 H         1 UNK         0.0800 
    142 H142        0.5804  -20.8427  -49.4739 H         1 UNK         0.0800 
    143 H143        1.5905  -23.3139  -47.9605 H         1 UNK         0.0600 
    144 H144        0.3864  -20.9768  -46.9130 H         1 UNK         0.3000 
    145 H145       -1.2531  -22.4575  -44.0938 H         1 UNK         0.0600 
    146 H146        0.0605  -20.6366  -43.0057 H         1 UNK         0.0600 
    147 H147        1.0620  -22.0341  -43.3668 H         1 UNK         0.0600 
    148 H148        1.1694  -20.6013  -44.3758 H         1 UNK         0.0600 
    149 H149       -1.0337  -19.8192  -45.3259 H         1 UNK         0.3000 
    150 H150       -4.1158  -20.0364  -47.0884 H         1 UNK         0.0600 
    151 H151       -4.9310  -19.6120  -44.7686 H         1 UNK         0.0600 
    152 H152       -4.7932  -18.1178  -45.6808 H         1 UNK         0.0600 
    153 H153       -3.5734  -18.5314  -44.4747 H         1 UNK         0.0600 
    154 H154       -2.3324  -17.8626  -46.5004 H         1 UNK         0.3000 
    155 H155       -0.0768  -18.3965  -49.1865 H         1 UNK         0.0600 
    156 H156       -2.0311  -17.2655  -50.2447 H         1 UNK         0.0600 
    157 H157       -2.2755  -16.2945  -48.7961 H         1 UNK         0.0600 
    158 H158       -0.8164  -16.0929  -49.7620 H         1 UNK         0.0600 
    159 H159       -0.1189  -16.2641  -47.3837 H         1 UNK         0.3000 
    160 H160        1.5175  -17.7707  -44.6172 H         1 UNK         0.0600 
    161 H161        3.4272  -16.3923  -45.1207 H         1 UNK         0.0600 
    162 H162        3.3184  -17.6179  -46.3700 H         1 UNK         0.0600 
    163 H163        2.8102  -15.9724  -46.7140 H         1 UNK         0.0600 
    164 H164        0.5974  -15.9389  -43.9082 H         1 UNK         0.3000 
    165 H165       -0.3875  -12.8156  -45.1865 H         1 UNK         0.0600 
    166 H166       -2.3520  -13.2733  -43.7548 H         1 UNK         0.0600 
    167 H167       -2.4328  -14.2196  -45.2332 H         1 UNK         0.0600 
    168 H168       -1.9679  -14.9933  -43.7247 H         1 UNK         0.0600 
    169 H169        0.6302  -12.4633  -43.3000 H         1 UNK         0.3000 
    170 H170        1.0196  -14.1249  -40.2156 H         1 UNK         0.0600 
    171 H171        3.2420  -13.0728  -40.3442 H         1 UNK         0.0600 
    172 H172        3.0609  -12.8027  -42.0765 H         1 UNK         0.0600 
    173 H173        3.1864  -14.4396  -41.4480 H         1 UNK         0.0600 
    174 H174        1.3490  -11.4001  -41.0204 H         1 UNK         0.3000 
    175 H175       -1.8903  -10.2763  -40.8464 H         1 UNK         0.0600 
    176 H176       -0.2252  -10.1937  -38.2726 H         1 UNK         0.0600 
    177 H177       -1.5022   -9.0592  -38.7147 H         1 UNK         0.0600 
    178 H178       -1.8931  -10.7399  -38.3939 H         1 UNK         0.0600 
    179 H179        0.5579   -8.9277  -40.2206 H         1 UNK         0.3000 
    180 H180        0.6742   -7.2386  -42.6996 H         1 UNK         0.0600 
    181 H181        2.8451   -8.7599  -41.1574 H         1 UNK         0.0600 
    182 H182        1.8119   -7.4716  -40.5393 H         1 UNK         0.0600 
    183 H183        3.0153   -7.1147  -41.7574 H         1 UNK         0.0600 
    184 H184        1.8143   -7.6734  -44.5248 H         1 UNK         0.3000 
    185 H185        2.7369   -8.8473  -46.2119 H         1 UNK         0.0600 
    186 H186        5.4244   -9.0480  -44.7408 H         1 UNK         0.0600 
    187 H187        5.1919   -8.4633  -46.3890 H         1 UNK         0.0600 
    188 H188        4.5331   -7.5605  -45.0350 H         1 UNK         0.0600 
    189 H189        4.6669  -10.9829  -46.0261 H         1 UNK         0.3000 
    190 H190       -1.6702  -21.9241  -48.5234 H         1 UNK         0.3000 
    191 H191       -2.6209  -23.9504  -50.2452 H         1 UNK         0.0600 
    192 H192       -4.1491  -22.1023  -48.3411 H         1 UNK         0.0600 
    193 H193       -4.8437  -22.9985  -49.6816 H         1 UNK         0.0600 
    194 H194       -3.6709  -21.7344  -50.0002 H         1 UNK         0.0600 
    195 H195       -2.7745  -23.7255  -46.6559 H         1 UNK         0.3000 
    196 H196       -4.3003  -26.0753  -46.2441 H         1 UNK         0.0600 
    197 H197       -3.4190  -25.9434  -43.9159 H         1 UNK         0.0600 
    198 H198       -3.9485  -24.3681  -44.4842 H         1 UNK         0.0600 
    199 H199       -2.2290  -24.7498  -44.4158 H         1 UNK         0.0600 
    200 H200       -0.7594  -25.6087  -46.5313 H         1 UNK         0.3000 
    201 H201       -0.0222  -28.3385  -46.1008 H         1 UNK         0.0600 
    202 H202        1.5766  -26.4583  -45.8723 H         1 UNK         0.0600 
    203 H203        1.4401  -26.0937  -47.5899 H         1 UNK         0.0600 
    204 H204        2.1590  -27.6110  -47.0648 H         1 UNK         0.0600 
    205 H205       -0.7809  -26.4856  -49.0748 H         1 UNK         0.3000 
    206 H206       -0.2984  -28.6449  -50.9079 H         1 UNK         0.0600 
    207 H207       -0.1984  -26.2430  -51.5571 H         1 UNK         0.0600 
    208 H208       -1.3841  -27.0947  -52.5349 H         1 UNK         0.0600 
    209 H209       -1.9174  -26.0606  -51.2166 H         1 UNK         0.0600 
    210 H210       -2.9921  -27.8572  -48.8967 H         1 UNK         0.3000 
    211 H211       -5.0218  -28.6195  -48.5125 H         1 UNK         0.0600 
    212 H212       -4.4328  -31.0195  -50.3282 H         1 UNK         0.0600 
    213 H213       -5.7509  -30.8758  -49.1760 H         1 UNK         0.0600 
    214 H214       -4.0925  -30.9389  -48.6001 H         1 UNK         0.0600 
    215 H215       -4.8701  -26.5485  -50.0418 H         1 UNK         0.3000 
    216 H216       -6.9314  -26.8130  -52.1748 H         1 UNK         0.0600 
    217 H217       -5.4763  -25.2598  -53.5738 H         1 UNK         0.0600 
    218 H218       -4.7291  -26.8239  -53.3056 H         1 UNK         0.0600 
    219 H219       -4.1975  -25.4350  -52.3721 H         1 UNK         0.0600 
    220 H220       -7.3321  -24.3458  -52.9195 H         1 UNK         0.3000 
    221 H221       -8.5108  -23.0249  -50.6099 H         1 UNK         0.0600 
    222 H222       -8.4333  -22.2760  -53.5878 H         1 UNK         0.0600 
    223 H223       -9.7155  -23.1832  -52.7866 H         1 UNK         0.0600 
    224 H224       -9.4331  -21.5025  -52.3644 H         1 UNK         0.0600 
    225 H225       -7.9434  -21.0470  -49.7437 H         1 UNK         0.3000 
    226 H226       -5.2506  -20.2162  -49.7168 H         1 UNK         0.0600 
    227 H227       -6.7912  -19.8753  -47.8253 H         1 UNK         0.0600 
    228 H228       -6.1034  -18.3415  -48.3304 H         1 UNK         0.0600 
    229 H229       -7.7576  -18.7458  -48.7761 H         1 UNK         0.0600 
    230 H230       -7.9834  -18.9766  -51.6012 H         1 UNK         0.3000 
    231 H231       -6.6912  -16.6407  -52.6358 H         1 UNK         0.0600 
    232 H232       -8.6205  -16.6478  -54.2250 H         1 UNK         0.0600 
    233 H233       -9.1601  -16.9165  -52.5758 H         1 UNK         0.0600 
    234 H234       -9.0617  -18.2695  -53.7042 H         1 UNK         0.0600 
    235 H235       -6.4542  -20.0146  -53.4982 H         1 UNK         0.3000 
    236 H236       -5.1988  -19.4605  -56.1394 H         1 UNK         0.0600 
    237 H237       -7.0269  -21.1742  -56.0138 H         1 UNK         0.0600 
    238 H238       -5.4916  -21.8974  -56.4646 H         1 UNK         0.0600 
    239 H239       -6.0952  -22.0829  -54.8236 H         1 UNK         0.0600 
    240 H240       -4.2762  -19.7048  -52.9158 H         1 UNK         0.3000 
    241 H241       -2.4765  -20.2024  -51.7450 H         1 UNK         0.0600 
    242 H242       -4.2636  -22.4196  -52.6555 H         1 UNK         0.3800 
    243 H243       -3.2640  -23.8582  -52.5794 H         1 UNK         0.3800 
    244 H244       -0.2117  -20.2374  -52.6738 H         1 UNK         0.0800 
    245 H245       -0.8116  -20.3562  -54.3059 H         1 UNK         0.0800 
    246 H246        1.1421  -18.5492  -54.3227 H         1 UNK         0.0800 
    247 H247        0.8129  -16.8440  -54.1750 H         1 UNK         0.0800 
@<TRIPOS>BOND
     1    1    2 1    
     2    1  127 1    
     3    1  128 1    
     4    1  129 1    
     5    2    3 2    
     6    2    4 am   BACKBONE|DICT|INTERRES
     7    4    5 1    
     8    4  130 1    
     9    5    6 1    
    10    5   65 1    
    11    5  131 1    
    12    6    7 1    
    13    6  132 1    
    14    6  133 1    
    15    7    8 1    
    16    8    9 1    
    17    8  134 1    
    18    8  135 1    
    19    9   10 ar   
    20    9   14 ar   
    21   10   11 ar   
    22   10  136 1    
    23   11   12 ar   
    24   11  126 1    
    25   12   13 ar   
    26   12  137 1    
    27   13   14 ar   
    28   13   15 1    
    29   14  138 1    
    30   15   16 1    
    31   15  139 1    
    32   15  140 1    
    33   16   17 1    
    34   17   18 1    
    35   17  141 1    
    36   17  142 1    
    37   18   19 1    
    38   18   67 1    
    39   18  143 1    
    40   19   20 am   BACKBONE|DICT|INTERRES
    41   19  144 1    
    42   20   21 2    
    43   20   22 1    
    44   22   23 1    
    45   22   24 1    
    46   22  145 1    
    47   23  146 1    
    48   23  147 1    
    49   23  148 1    
    50   24   25 am   BACKBONE|DICT|INTERRES
    51   24  149 1    
    52   25   26 2    
    53   25   27 1    
    54   27   28 1    
    55   27   29 1    
    56   27  150 1    
    57   28  151 1    
    58   28  152 1    
    59   28  153 1    
    60   29   30 am   BACKBONE|DICT|INTERRES
    61   29  154 1    
    62   30   31 2    
    63   30   32 1    
    64   32   33 1    
    65   32   34 1    
    66   32  155 1    
    67   33  156 1    
    68   33  157 1    
    69   33  158 1    
    70   34   35 am   BACKBONE|DICT|INTERRES
    71   34  159 1    
    72   35   36 2    
    73   35   37 1    
    74   37   38 1    
    75   37   39 1    
    76   37  160 1    
    77   38  161 1    
    78   38  162 1    
    79   38  163 1    
    80   39   40 am   BACKBONE|DICT|INTERRES
    81   39  164 1    
    82   40   41 2    
    83   40   42 1    
    84   42   43 1    
    85   42   44 1    
    86   42  165 1    
    87   43  166 1    
    88   43  167 1    
    89   43  168 1    
    90   44   45 am   BACKBONE|DICT|INTERRES
    91   44  169 1    
    92   45   46 2    
    93   45   47 1    
    94   47   48 1    
    95   47   49 1    
    96   47  170 1    
    97   48  171 1    
    98   48  172 1    
    99   48  173 1    
   100   49   50 am   BACKBONE|DICT|INTERRES
   101   49  174 1    
   102   50   51 2    
   103   50   52 1    
   104   52   53 1    
   105   52   54 1    
   106   52  175 1    
   107   53  176 1    
   108   53  177 1    
   109   53  178 1    
   110   54   55 am   BACKBONE|DICT|INTERRES
   111   54  179 1    
   112   55   56 2    
   113   55   57 1    
   114   57   58 1    
   115   57   59 1    
   116   57  180 1    
   117   58  181 1    
   118   58  182 1    
   119   58  183 1    
   120   59   60 am   BACKBONE|DICT|INTERRES
   121   59  184 1    
   122   60   61 2    
   123   60   62 1    
   124   62   63 1    
   125   62   64 1    
   126   62  185 1    
   127   63  186 1    
   128   63  187 1    
   129   63  188 1    
   130   64   65 am   BACKBONE|DICT|INTERRES
   131   64  189 1    
   132   65   66 2    
   133   67   68 2    
   134   67   69 am   BACKBONE|DICT|INTERRES
   135   69   70 1    
   136   69  190 1    
   137   70   71 1    
   138   70   72 1    
   139   70  191 1    
   140   71  192 1    
   141   71  193 1    
   142   71  194 1    
   143   72   73 2    
   144   72   74 am   BACKBONE|DICT|INTERRES
   145   74   75 1    
   146   74  195 1    
   147   75   76 1    
   148   75   77 1    
   149   75  196 1    
   150   76  197 1    
   151   76  198 1    
   152   76  199 1    
   153   77   78 2    
   154   77   79 am   BACKBONE|DICT|INTERRES
   155   79   80 1    
   156   79  200 1    
   157   80   81 1    
   158   80   82 1    
   159   80  201 1    
   160   81  202 1    
   161   81  203 1    
   162   81  204 1    
   163   82   83 2    
   164   82   84 am   BACKBONE|DICT|INTERRES
   165   84   85 1    
   166   84  205 1    
   167   85   86 1    
   168   85   87 1    
   169   85  206 1    
   170   86  207 1    
   171   86  208 1    
   172   86  209 1    
   173   87   88 2    
   174   87   89 am   BACKBONE|DICT|INTERRES
   175   89   90 1    
   176   89  210 1    
   177   90   91 1    
   178   90   92 1    
   179   90  211 1    
   180   91  212 1    
   181   91  213 1    
   182   91  214 1    
   183   92   93 2    
   184   92   94 am   BACKBONE|DICT|INTERRES
   185   94   95 1    
   186   94  215 1    
   187   95   96 1    
   188   95   97 1    
   189   95  216 1    
   190   96  217 1    
   191   96  218 1    
   192   96  219 1    
   193   97   98 2    
   194   97   99 am   BACKBONE|DICT|INTERRES
   195   99  100 1    
   196   99  220 1    
   197  100  101 1    
   198  100  102 1    
   199  100  221 1    
   200  101  222 1    
   201  101  223 1    
   202  101  224 1    
   203  102  103 2    
   204  102  104 am   BACKBONE|DICT|INTERRES
   205  104  105 1    
   206  104  225 1    
   207  105  106 1    
   208  105  107 1    
   209  105  226 1    
   210  106  227 1    
   211  106  228 1    
   212  106  229 1    
   213  107  108 2    
   214  107  109 am   BACKBONE|DICT|INTERRES
   215  109  110 1    
   216  109  230 1    
   217  110  111 1    
   218  110  112 1    
   219  110  231 1    
   220  111  232 1    
   221  111  233 1    
   222  111  234 1    
   223  112  113 2    
   224  112  114 am   BACKBONE|DICT|INTERRES
   225  114  115 1    
   226  114  235 1    
   227  115  116 1    
   228  115  117 1    
   229  115  236 1    
   230  116  237 1    
   231  116  238 1    
   232  116  239 1    
   233  117  118 2    
   234  117  119 am   BACKBONE|DICT|INTERRES
   235  119  120 1    
   236  119  240 1    
   237  120  121 1    
   238  120  124 1    
   239  120  241 1    
   240  121  122 am   BACKBONE|DICT|INTERRES
   241  121  123 2    
   242  122  242 1    
   243  122  243 1    
   244  124  125 1    
   245  124  244 1    
   246  124  245 1    
   247  125  126 1    
   248  126  246 1    
   249  126  247 1    
@<TRIPOS>SUBSTRUCTURE
     1 UNK         1 GROUP             0       ****    0 ROOT    
