@<TRIPOS>MOLECULE
3R540
247   249    1
SMALL
USER_CHARGES


@<TRIPOS>ATOM
      1 CA          2.4999  -10.7393  -48.4504 C.3       0 UNK        -0.1800 
      2 C           1.7888  -11.9658  -47.8993 C.2       0 UNK         0.5000 
      3 O           1.6352  -12.0868  -46.6824 O.2       0 UNK        -0.5000 
      4 N           1.3272  -12.8590  -48.7857 N.am      1 UNK        -0.5000 
      5 CA          0.6747  -14.1490  -48.4967 C.3       1 UNK         0.1400 
      6 C6          0.7241  -15.1139  -49.7149 C.3       23 UNK        -0.0398 
      7 S7          2.3906  -15.3027  -50.4322 S.3       23 UNK        -0.2404 
      8 C8          2.0338  -16.2730  -51.9420 C.3       23 UNK        -0.0205 
      9 C9          1.9648  -17.7888  -51.7454 C.ar      23 UNK        -0.0193 
     10 C10         1.2031  -18.5602  -52.6321 C.ar      23 UNK        -0.1150 
     11 C11         1.1779  -19.9556  -52.5292 C.ar      23 UNK        -0.0193 
     12 C12         1.8986  -20.5818  -51.5100 C.ar      23 UNK        -0.1150 
     13 C13         2.6627  -19.8280  -50.6155 C.ar      23 UNK        -0.0193 
     14 C14         2.7025  -18.4377  -50.7471 C.ar      23 UNK        -0.1150 
     15 C15         3.4516  -20.5182  -49.5104 C.3       23 UNK        -0.0205 
     16 S16         2.8804  -20.0464  -47.8451 S.3       23 UNK        -0.2404 
     17 C17         1.1339  -20.5679  -47.8918 C.3       23 UNK        -0.0398 
     18 CA          0.9049  -21.9388  -47.2163 C.3       11 UNK         0.1400 
     19 N           0.9905  -21.8675  -45.7563 N.am      11 UNK        -0.5000 
     20 C           0.8978  -22.9104  -44.9201 C.2       10 UNK         0.5000 
     21 O           0.7971  -24.0803  -45.2905 O.2       10 UNK        -0.5000 
     22 CA          0.8483  -22.5840  -43.4160 C.3       10 UNK         0.1400 
     23 CB          2.2519  -22.2962  -42.8625 C.3       10 UNK        -0.1800 
     24 N          -0.0431  -21.4606  -43.1181 N.am      10 UNK        -0.5000 
     25 C          -1.3699  -21.4783  -43.3143 C.2       9 UNK         0.5000 
     26 O          -1.9864  -22.4582  -43.7336 O.2       9 UNK        -0.5000 
     27 CA         -2.1329  -20.1711  -43.0342 C.3       9 UNK         0.1400 
     28 CB         -2.3676  -19.9884  -41.5274 C.3       9 UNK        -0.1800 
     29 N          -1.4534  -18.9926  -43.5714 N.am      9 UNK        -0.5000 
     30 C          -1.2242  -18.7739  -44.8742 C.2       8 UNK         0.5000 
     31 O          -1.6033  -19.5237  -45.7723 O.2       8 UNK        -0.5000 
     32 CA         -0.3813  -17.5378  -45.2329 C.3       8 UNK         0.1400 
     33 CB         -1.2395  -16.2663  -45.1881 C.3       8 UNK        -0.1800 
     34 N           0.7813  -17.3737  -44.3608 N.am      8 UNK        -0.5000 
     35 C           1.7579  -18.2765  -44.1941 C.2       7 UNK         0.5000 
     36 O           1.7950  -19.3598  -44.7712 O.2       7 UNK        -0.5000 
     37 CA          2.8429  -17.9392  -43.1612 C.3       7 UNK         0.1400 
     38 CB          3.8842  -16.9740  -43.7476 C.3       7 UNK        -0.1800 
     39 N           2.2595  -17.3717  -41.9474 N.am      7 UNK        -0.5000 
     40 C           1.5401  -18.0739  -41.0606 C.2       6 UNK         0.5000 
     41 O           1.3426  -19.2870  -41.1449 O.2       6 UNK        -0.5000 
     42 CA          0.9034  -17.2746  -39.9087 C.3       6 UNK         0.1400 
     43 CB          1.9187  -17.0455  -38.7791 C.3       6 UNK        -0.1800 
     44 N           0.3648  -15.9852  -40.3486 N.am      6 UNK        -0.5000 
     45 C          -0.6891  -15.8521  -41.1656 C.2       5 UNK         0.5000 
     46 O          -1.3279  -16.8037  -41.6143 O.2       5 UNK        -0.5000 
     47 CA         -1.0742  -14.4199  -41.5821 C.3       5 UNK         0.1400 
     48 CB         -2.0020  -13.7848  -40.5364 C.3       5 UNK        -0.1800 
     49 N           0.0586  -13.5222  -41.8291 N.am      5 UNK        -0.5000 
     50 C           1.0542  -13.7418  -42.6978 C.2       4 UNK         0.5000 
     51 O           1.2057  -14.7997  -43.3074 O.2       4 UNK        -0.5000 
     52 CA          1.9893  -12.5518  -42.9760 C.3       4 UNK         0.1400 
     53 CB          3.2774  -12.9700  -43.7070 C.3       4 UNK        -0.1800 
     54 N           1.2735  -11.5809  -43.7981 N.am      4 UNK        -0.5000 
     55 C           0.4298  -10.6532  -43.3265 C.2       3 UNK         0.5000 
     56 O           0.2713  -10.4194  -42.1273 O.2       3 UNK        -0.5000 
     57 CA         -0.4247   -9.9121  -44.3699 C.3       3 UNK         0.1400 
     58 CB          0.3922   -8.8095  -45.0612 C.3       3 UNK        -0.1800 
     59 N          -0.9662  -10.8209  -45.3821 N.am      3 UNK        -0.5000 
     60 C          -1.8684  -11.7884  -45.1493 C.2       2 UNK         0.5000 
     61 O          -2.4049  -11.9829  -44.0590 O.2       2 UNK        -0.5000 
     62 CA         -2.1939  -12.7131  -46.3302 C.3       2 UNK         0.1400 
     63 CB         -3.2124  -12.0538  -47.2792 C.3       2 UNK        -0.1800 
     64 N          -0.9561  -13.0461  -47.0287 N.am      2 UNK        -0.5000 
     65 C          -0.7705  -13.9873  -47.9560 C.2       1 UNK         0.5000 
     66 O          -1.6776  -14.7046  -48.3772 O.2       1 UNK        -0.5000 
     67 C          -0.4360  -22.5332  -47.6795 C.2       11 UNK         0.5000 
     68 O          -0.4315  -23.4428  -48.5068 O.2       11 UNK        -0.5000 
     69 N          -1.5507  -22.0349  -47.1271 N.am      12 UNK        -0.5000 
     70 CA         -2.8979  -22.4967  -47.4544 C.3       12 UNK         0.1400 
     71 CB         -3.9419  -21.5713  -46.8132 C.3       12 UNK        -0.1800 
     72 C          -3.1435  -23.9636  -47.0630 C.2       12 UNK         0.5000 
     73 O          -3.7567  -24.7021  -47.8339 O.2       12 UNK        -0.5000 
     74 N          -2.6235  -24.3729  -45.8974 N.am      13 UNK        -0.5000 
     75 CA         -2.6497  -25.7561  -45.4226 C.3       13 UNK         0.1400 
     76 CB         -2.1590  -25.8105  -43.9680 C.3       13 UNK        -0.1800 
     77 C          -1.8293  -26.7068  -46.3148 C.2       13 UNK         0.5000 
     78 O          -2.2816  -27.8195  -46.5862 O.2       13 UNK        -0.5000 
     79 N          -0.6549  -26.2479  -46.7699 N.am      14 UNK        -0.5000 
     80 CA          0.2232  -26.9816  -47.6813 C.3       14 UNK         0.1400 
     81 CB          1.6081  -26.3161  -47.7068 C.3       14 UNK        -0.1800 
     82 C          -0.3570  -27.0967  -49.1035 C.2       14 UNK         0.5000 
     83 O          -0.3055  -28.1766  -49.6938 O.2       14 UNK        -0.5000 
     84 N          -0.8987  -25.9881  -49.6258 N.am      15 UNK        -0.5000 
     85 CA         -1.5000  -25.9019  -50.9578 C.3       15 UNK         0.1400 
     86 CB         -1.6492  -24.4224  -51.3496 C.3       15 UNK        -0.1800 
     87 C          -2.8613  -26.6130  -51.0637 C.2       15 UNK         0.5000 
     88 O          -3.2207  -27.0560  -52.1552 O.2       15 UNK        -0.5000 
     89 N          -3.5956  -26.6810  -49.9424 N.am      16 UNK        -0.5000 
     90 CA         -4.9828  -27.1430  -49.8128 C.3       16 UNK         0.1400 
     91 CB         -5.1071  -28.6455  -50.1405 C.3       16 UNK        -0.1800 
     92 C          -5.9659  -26.2553  -50.6085 C.2       16 UNK         0.5000 
     93 O          -6.9459  -26.7497  -51.1693 O.2       16 UNK        -0.5000 
     94 N          -5.6701  -24.9524  -50.6445 N.am      17 UNK        -0.5000 
     95 CA         -6.3741  -23.9027  -51.3706 C.3       17 UNK         0.1400 
     96 CB         -6.0578  -24.0008  -52.8758 C.3       17 UNK        -0.1800 
     97 C          -5.9099  -22.5533  -50.8043 C.2       17 UNK         0.5000 
     98 O          -4.8996  -22.5054  -50.1007 O.2       17 UNK        -0.5000 
     99 N          -6.6381  -21.4770  -51.1213 N.am      18 UNK        -0.5000 
    100 CA        -6.2689  -20.1072  -50.7566 C.3       18 UNK         0.1400 
    101 CB        -7.4392  -19.1722  -51.1004 C.3       18 UNK        -0.1800 
    102 C         -4.9920  -19.6417  -51.4823 C.2       18 UNK         0.5000 
    103 O         -4.7331  -20.0834  -52.6040 O.2       18 UNK        -0.5000 
    104 N         -4.2554  -18.7049  -50.8693 N.am      19 UNK        -0.5000 
    105 CA        -3.0339  -18.1133  -51.4299 C.3       19 UNK         0.1400 
    106 CB        -2.4190  -17.1449  -50.4132 C.3       19 UNK        -0.1800 
    107 C         -3.2598  -17.4094  -52.7831 C.2       19 UNK         0.5000 
    108 O         -2.4211  -17.5045  -53.6796 O.2       19 UNK        -0.5000 
    109 N         -4.4233  -16.7591  -52.9181 N.am      20 UNK        -0.5000 
    110 CA        -4.8844  -16.1206  -54.1502 C.3       20 UNK         0.1400 
    111 CB        -6.0474  -15.1757  -53.8101 C.3       20 UNK        -0.1800 
    112 C         -5.3099  -17.1259  -55.2397 C.2       20 UNK         0.5000 
    113 O         -5.3296  -16.7575  -56.4147 O.2       20 UNK        -0.5000 
    114 N         -5.6512  -18.3609  -54.8438 N.am      21 UNK        -0.5000 
    115 CA        -6.0265  -19.4397  -55.7542 C.3       21 UNK         0.1400 
    116 CB        -7.0112  -20.3970  -55.0629 C.3       21 UNK        -0.1800 
    117 C         -4.7866  -20.1875  -56.2686 C.2       21 UNK         0.5000 
    118 O         -4.7070  -20.4503  -57.4698 O.2       21 UNK        -0.5000 
    119 N         -3.8406  -20.5073  -55.3716 N.am      22 UNK        -0.5000 
    120 CA        -2.5659  -21.1441  -55.7433 C.3       22 UNK         0.1400 
    121 C         -1.5570  -20.1905  -56.4461 C.2       22 UNK         0.5000 
    122 N         -1.5581  -18.8943  -56.1571 N.am      22 UNK        -0.7600 
    123 O         -0.7679  -20.6342  -57.2758 O.2       22 UNK        -0.5000 
    124 C124       -1.9211  -21.9475  -54.5824 C.3       23 UNK        -0.0398 
    125 S125       -1.3398  -20.9579  -53.1614 S.3       23 UNK        -0.2404 
    126 C126        0.4286  -20.7933  -53.5550 C.3       23 UNK        -0.0205 
    127 H127        1.9613   -9.8350  -48.1673 H         1 UNK         0.0600 
    128 H128        2.5731  -10.7673  -49.5378 H         1 UNK         0.0600 
    129 H129        3.5087  -10.6783  -48.0425 H         1 UNK         0.0600 
    130 H130        1.4755  -12.6786  -49.7684 H         1 UNK         0.3000 
    131 H131        1.2425  -14.6214  -47.6921 H         1 UNK         0.0600 
    132 H132        0.0534  -14.7623  -50.5009 H         1 UNK         0.0800 
    133 H133        0.3745  -16.1064  -49.4246 H         1 UNK         0.0800 
    134 H134        1.1085  -15.9085  -52.3912 H         1 UNK         0.0800 
    135 H135        2.8233  -16.0697  -52.6664 H         1 UNK         0.0800 
    136 H136        0.6473  -18.0780  -53.4249 H         1 UNK         0.1150 
    137 H137        1.8760  -21.6593  -51.4241 H         1 UNK         0.1150 
    138 H138        3.3154  -17.8686  -50.0633 H         1 UNK         0.1150 
    139 H139        3.3937  -21.6033  -49.6093 H         1 UNK         0.0800 
    140 H140        4.5058  -20.2566  -49.6096 H         1 UNK         0.0800 
    141 H141        0.7902  -20.5799  -48.9263 H         1 UNK         0.0800 
    142 H142        0.5383  -19.7975  -47.4020 H         1 UNK         0.0800 
    143 H143        1.6857  -22.6238  -47.5538 H         1 UNK         0.0600 
    144 H144        1.1356  -20.9391  -45.3626 H         1 UNK         0.3000 
    145 H145        0.4573  -23.4635  -42.9002 H         1 UNK         0.0600 
    146 H146        2.2226  -22.1214  -41.7868 H         1 UNK         0.0600 
    147 H147        2.9198  -23.1403  -43.0380 H         1 UNK         0.0600 
    148 H148        2.7015  -21.4202  -43.3299 H         1 UNK         0.0600 
    149 H149        0.3896  -20.6144  -42.7691 H         1 UNK         0.3000 
    150 H150       -3.1065  -20.2450  -43.5230 H         1 UNK         0.0600 
    151 H151       -2.8758  -20.8548  -41.1023 H         1 UNK         0.0600 
    152 H152       -2.9910  -19.1162  -41.3298 H         1 UNK         0.0600 
    153 H153       -1.4299  -19.8571  -40.9862 H         1 UNK         0.0600 
    154 H154       -1.1533  -18.2940  -42.8979 H         1 UNK         0.3000 
    155 H155       -0.0084  -17.6629  -46.2512 H         1 UNK         0.0600 
    156 H156       -0.6346  -15.3763  -45.3561 H         1 UNK         0.0600 
    157 H157       -2.0116  -16.2925  -45.9579 H         1 UNK         0.0600 
    158 H158       -1.7404  -16.1491  -44.2280 H         1 UNK         0.0600 
    159 H159        0.8589  -16.4865  -43.8672 H         1 UNK         0.3000 
    160 H160        3.3549  -18.8665  -42.8949 H         1 UNK         0.0600 
    161 H161        3.4345  -16.0344  -44.0676 H         1 UNK         0.0600 
    162 H162        4.3705  -17.4142  -44.6190 H         1 UNK         0.0600 
    163 H163        4.6636  -16.7439  -43.0213 H         1 UNK         0.0600 
    164 H164        2.3077  -16.3680  -41.8484 H         1 UNK         0.3000 
    165 H165        0.0785  -17.8689  -39.5095 H         1 UNK         0.0600 
    166 H166        1.4543  -16.5499  -37.9264 H         1 UNK         0.0600 
    167 H167        2.3243  -17.9930  -38.4218 H         1 UNK         0.0600 
    168 H168        2.7584  -16.4321  -39.1082 H         1 UNK         0.0600 
    169 H169        0.8375  -15.1526  -40.0289 H         1 UNK         0.3000 
    170 H170       -1.6295  -14.4929  -42.5187 H         1 UNK         0.0600 
    171 H171       -2.8685  -14.4193  -40.3449 H         1 UNK         0.0600 
    172 H172       -1.4908  -13.6289  -39.5857 H         1 UNK         0.0600 
    173 H173       -2.3773  -12.8201  -40.8793 H         1 UNK         0.0600 
    174 H174       -0.0065  -12.5996  -41.4184 H         1 UNK         0.3000 
    175 H175        2.2716  -12.1025  -42.0216 H         1 UNK         0.0600 
    176 H176        3.8437  -13.6912  -43.1167 H         1 UNK         0.0600 
    177 H177        3.0656  -13.4286  -44.6740 H         1 UNK         0.0600 
    178 H178        3.9258  -12.1115  -43.8820 H         1 UNK         0.0600 
    179 H179        1.3377  -11.7205  -44.8026 H         1 UNK         0.3000 
    180 H180       -1.2626   -9.4445  -43.8486 H         1 UNK         0.0600 
    181 H181        1.2330   -9.2205  -45.6217 H         1 UNK         0.0600 
    182 H182        0.7963   -8.1079  -44.3304 H         1 UNK         0.0600 
    183 H183       -0.2250   -8.2368  -45.7536 H         1 UNK         0.0600 
    184 H184       -0.6003  -10.7131  -46.3160 H         1 UNK         0.3000 
    185 H185       -2.6244  -13.6327  -45.9289 H         1 UNK         0.0600 
    186 H186       -4.1091  -11.7496  -46.7377 H         1 UNK         0.0600 
    187 H187       -2.7995  -11.1656  -47.7585 H         1 UNK         0.0600 
    188 H188       -3.5296  -12.7399  -48.0642 H         1 UNK         0.0600 
    189 H189       -0.1188  -12.5638  -46.7106 H         1 UNK         0.3000 
    190 H190       -1.4836  -21.2525  -46.4802 H         1 UNK         0.3000 
    191 H191       -2.9930  -22.4250  -48.5369 H         1 UNK         0.0600 
    192 H192       -3.8569  -21.5606  -45.7262 H         1 UNK         0.0600 
    193 H193       -4.9532  -21.8934  -47.0648 H         1 UNK         0.0600 
    194 H194       -3.8303  -20.5473  -47.1697 H         1 UNK         0.0600 
    195 H195       -2.1746  -23.6906  -45.2936 H         1 UNK         0.3000 
    196 H196       -3.6873  -26.0956  -45.4427 H         1 UNK         0.0600 
    197 H197       -2.1847  -26.8312  -43.5844 H         1 UNK         0.0600 
    198 H198       -2.7879  -25.2023  -43.3177 H         1 UNK         0.0600 
    199 H199       -1.1346  -25.4490  -43.8739 H         1 UNK         0.0600 
    200 H200       -0.3321  -25.3365  -46.4613 H         1 UNK         0.3000 
    201 H201        0.3456  -27.9938  -47.2900 H         1 UNK         0.0600 
    202 H202        2.0571  -26.3050  -46.7135 H         1 UNK         0.0600 
    203 H203        1.5557  -25.2857  -48.0593 H         1 UNK         0.0600 
    204 H204        2.2890  -26.8554  -48.3664 H         1 UNK         0.0600 
    205 H205       -0.8446  -25.1189  -49.0972 H         1 UNK         0.3000 
    206 H206       -0.8220  -26.3757  -51.6706 H         1 UNK         0.0600 
    207 H207       -0.6845  -23.9145  -51.3579 H         1 UNK         0.0600 
    208 H208       -2.0773  -24.3218  -52.3474 H         1 UNK         0.0600 
    209 H209       -2.3020  -23.8868  -50.6588 H         1 UNK         0.0600 
    210 H210       -3.2286  -26.2202  -49.1165 H         1 UNK         0.3000 
    211 H211       -5.2440  -27.0152  -48.7614 H         1 UNK         0.0600 
    212 H212       -4.9367  -28.8484  -51.1979 H         1 UNK         0.0600 
    213 H213       -6.1029  -29.0160  -49.8948 H         1 UNK         0.0600 
    214 H214       -4.3916  -29.2335  -49.5655 H         1 UNK         0.0600 
    215 H215       -4.8851  -24.6089  -50.1004 H         1 UNK         0.3000 
    216 H216       -7.4478  -24.0060  -51.2028 H         1 UNK         0.0600 
    217 H217       -4.9905  -23.8805  -53.0679 H         1 UNK         0.0600 
    218 H218       -6.5819  -23.2293  -53.4398 H         1 UNK         0.0600 
    219 H219       -6.3643  -24.9624  -53.2874 H         1 UNK         0.0600 
    220 H220       -7.4400  -21.5835  -51.7242 H         1 UNK         0.3000 
    221 H221       -6.0925  -20.0734  -49.6793 H         1 UNK         0.0600 
    222 H222       -8.3473  -19.4673  -50.5742 H         1 UNK         0.0600 
    223 H223       -7.6558  -19.1732  -52.1695 H         1 UNK         0.0600 
    224 H224       -7.2194  -18.1437  -50.8115 H         1 UNK         0.0600 
    225 H225       -4.5342  -18.3782  -49.9556 H         1 UNK         0.3000 
    226 H226       -2.3177  -18.9176  -51.5859 H         1 UNK         0.0600 
    227 H227       -2.1499  -17.6553  -49.4881 H         1 UNK         0.0600 
    228 H228       -1.5089  -16.6988  -50.8139 H         1 UNK         0.0600 
    229 H229       -3.1015  -16.3316  -50.1642 H         1 UNK         0.0600 
    230 H230       -5.0528  -16.7332  -52.1299 H         1 UNK         0.3000 
    231 H231       -4.0648  -15.5233  -54.5556 H         1 UNK         0.0600 
    232 H232       -6.8953  -15.7169  -53.3881 H         1 UNK         0.0600 
    233 H233       -6.4011  -14.6546  -54.7007 H         1 UNK         0.0600 
    234 H234       -5.7413  -14.4155  -53.0911 H         1 UNK         0.0600 
    235 H235       -5.5276  -18.6188  -53.8735 H         1 UNK         0.3000 
    236 H236       -6.5422  -19.0146  -56.6182 H         1 UNK         0.0600 
    237 H237       -7.8999  -19.8675  -54.7198 H         1 UNK         0.0600 
    238 H238       -7.3422  -21.1747  -55.7522 H         1 UNK         0.0600 
    239 H239       -6.5652  -20.8955  -54.2038 H         1 UNK         0.0600 
    240 H240       -3.9799  -20.2883  -54.3890 H         1 UNK         0.3000 
    241 H241       -2.8121  -21.8951  -56.4971 H         1 UNK         0.0600 
    242 H242       -0.9084  -18.2857  -56.6273 H         1 UNK         0.3800 
    243 H243       -2.1173  -18.5289  -55.3938 H         1 UNK         0.3800 
    244 H244       -1.0948  -22.5519  -54.9600 H         1 UNK         0.0800 
    245 H245       -2.6493  -22.6645  -54.2013 H         1 UNK         0.0800 
    246 H246        0.8730  -21.7874  -53.6231 H         1 UNK         0.0800 
    247 H247        0.5484  -20.3394  -54.5386 H         1 UNK         0.0800 
@<TRIPOS>BOND
     1    1    2 1    
     2    1  127 1    
     3    1  128 1    
     4    1  129 1    
     5    2    3 2    
     6    2    4 am   BACKBONE|DICT|INTERRES
     7    4    5 1    
     8    4  130 1    
     9    5    6 1    
    10    5   65 1    
    11    5  131 1    
    12    6    7 1    
    13    6  132 1    
    14    6  133 1    
    15    7    8 1    
    16    8    9 1    
    17    8  134 1    
    18    8  135 1    
    19    9   10 ar   
    20    9   14 ar   
    21   10   11 ar   
    22   10  136 1    
    23   11   12 ar   
    24   11  126 1    
    25   12   13 ar   
    26   12  137 1    
    27   13   14 ar   
    28   13   15 1    
    29   14  138 1    
    30   15   16 1    
    31   15  139 1    
    32   15  140 1    
    33   16   17 1    
    34   17   18 1    
    35   17  141 1    
    36   17  142 1    
    37   18   19 1    
    38   18   67 1    
    39   18  143 1    
    40   19   20 am   BACKBONE|DICT|INTERRES
    41   19  144 1    
    42   20   21 2    
    43   20   22 1    
    44   22   23 1    
    45   22   24 1    
    46   22  145 1    
    47   23  146 1    
    48   23  147 1    
    49   23  148 1    
    50   24   25 am   BACKBONE|DICT|INTERRES
    51   24  149 1    
    52   25   26 2    
    53   25   27 1    
    54   27   28 1    
    55   27   29 1    
    56   27  150 1    
    57   28  151 1    
    58   28  152 1    
    59   28  153 1    
    60   29   30 am   BACKBONE|DICT|INTERRES
    61   29  154 1    
    62   30   31 2    
    63   30   32 1    
    64   32   33 1    
    65   32   34 1    
    66   32  155 1    
    67   33  156 1    
    68   33  157 1    
    69   33  158 1    
    70   34   35 am   BACKBONE|DICT|INTERRES
    71   34  159 1    
    72   35   36 2    
    73   35   37 1    
    74   37   38 1    
    75   37   39 1    
    76   37  160 1    
    77   38  161 1    
    78   38  162 1    
    79   38  163 1    
    80   39   40 am   BACKBONE|DICT|INTERRES
    81   39  164 1    
    82   40   41 2    
    83   40   42 1    
    84   42   43 1    
    85   42   44 1    
    86   42  165 1    
    87   43  166 1    
    88   43  167 1    
    89   43  168 1    
    90   44   45 am   BACKBONE|DICT|INTERRES
    91   44  169 1    
    92   45   46 2    
    93   45   47 1    
    94   47   48 1    
    95   47   49 1    
    96   47  170 1    
    97   48  171 1    
    98   48  172 1    
    99   48  173 1    
   100   49   50 am   BACKBONE|DICT|INTERRES
   101   49  174 1    
   102   50   51 2    
   103   50   52 1    
   104   52   53 1    
   105   52   54 1    
   106   52  175 1    
   107   53  176 1    
   108   53  177 1    
   109   53  178 1    
   110   54   55 am   BACKBONE|DICT|INTERRES
   111   54  179 1    
   112   55   56 2    
   113   55   57 1    
   114   57   58 1    
   115   57   59 1    
   116   57  180 1    
   117   58  181 1    
   118   58  182 1    
   119   58  183 1    
   120   59   60 am   BACKBONE|DICT|INTERRES
   121   59  184 1    
   122   60   61 2    
   123   60   62 1    
   124   62   63 1    
   125   62   64 1    
   126   62  185 1    
   127   63  186 1    
   128   63  187 1    
   129   63  188 1    
   130   64   65 am   BACKBONE|DICT|INTERRES
   131   64  189 1    
   132   65   66 2    
   133   67   68 2    
   134   67   69 am   BACKBONE|DICT|INTERRES
   135   69   70 1    
   136   69  190 1    
   137   70   71 1    
   138   70   72 1    
   139   70  191 1    
   140   71  192 1    
   141   71  193 1    
   142   71  194 1    
   143   72   73 2    
   144   72   74 am   BACKBONE|DICT|INTERRES
   145   74   75 1    
   146   74  195 1    
   147   75   76 1    
   148   75   77 1    
   149   75  196 1    
   150   76  197 1    
   151   76  198 1    
   152   76  199 1    
   153   77   78 2    
   154   77   79 am   BACKBONE|DICT|INTERRES
   155   79   80 1    
   156   79  200 1    
   157   80   81 1    
   158   80   82 1    
   159   80  201 1    
   160   81  202 1    
   161   81  203 1    
   162   81  204 1    
   163   82   83 2    
   164   82   84 am   BACKBONE|DICT|INTERRES
   165   84   85 1    
   166   84  205 1    
   167   85   86 1    
   168   85   87 1    
   169   85  206 1    
   170   86  207 1    
   171   86  208 1    
   172   86  209 1    
   173   87   88 2    
   174   87   89 am   BACKBONE|DICT|INTERRES
   175   89   90 1    
   176   89  210 1    
   177   90   91 1    
   178   90   92 1    
   179   90  211 1    
   180   91  212 1    
   181   91  213 1    
   182   91  214 1    
   183   92   93 2    
   184   92   94 am   BACKBONE|DICT|INTERRES
   185   94   95 1    
   186   94  215 1    
   187   95   96 1    
   188   95   97 1    
   189   95  216 1    
   190   96  217 1    
   191   96  218 1    
   192   96  219 1    
   193   97   98 2    
   194   97   99 am   BACKBONE|DICT|INTERRES
   195   99  100 1    
   196   99  220 1    
   197  100  101 1    
   198  100  102 1    
   199  100  221 1    
   200  101  222 1    
   201  101  223 1    
   202  101  224 1    
   203  102  103 2    
   204  102  104 am   BACKBONE|DICT|INTERRES
   205  104  105 1    
   206  104  225 1    
   207  105  106 1    
   208  105  107 1    
   209  105  226 1    
   210  106  227 1    
   211  106  228 1    
   212  106  229 1    
   213  107  108 2    
   214  107  109 am   BACKBONE|DICT|INTERRES
   215  109  110 1    
   216  109  230 1    
   217  110  111 1    
   218  110  112 1    
   219  110  231 1    
   220  111  232 1    
   221  111  233 1    
   222  111  234 1    
   223  112  113 2    
   224  112  114 am   BACKBONE|DICT|INTERRES
   225  114  115 1    
   226  114  235 1    
   227  115  116 1    
   228  115  117 1    
   229  115  236 1    
   230  116  237 1    
   231  116  238 1    
   232  116  239 1    
   233  117  118 2    
   234  117  119 am   BACKBONE|DICT|INTERRES
   235  119  120 1    
   236  119  240 1    
   237  120  121 1    
   238  120  124 1    
   239  120  241 1    
   240  121  122 am   BACKBONE|DICT|INTERRES
   241  121  123 2    
   242  122  242 1    
   243  122  243 1    
   244  124  125 1    
   245  124  244 1    
   246  124  245 1    
   247  125  126 1    
   248  126  246 1    
   249  126  247 1    
@<TRIPOS>SUBSTRUCTURE
     1 UNK         1 GROUP             0       ****    0 ROOT    
