@<TRIPOS>MOLECULE
3R540
247   249    1
SMALL
USER_CHARGES


@<TRIPOS>ATOM
      1 CA          7.4417  -11.2207  -50.5108 C.3       0 UNK        -0.1800 
      2 C           6.7601  -12.2297  -49.5974 C.2       0 UNK         0.5000 
      3 O           7.3845  -13.2119  -49.1966 O.2       0 UNK        -0.5000 
      4 N           5.4838  -11.9905  -49.2669 N.am      1 UNK        -0.5000 
      5 CA          4.6710  -12.8418  -48.3864 C.3       1 UNK         0.1400 
      6 C6          3.1554  -12.5868  -48.6051 C.3       23 UNK        -0.0398 
      7 S7          2.1356  -14.0777  -48.3402 S.3       23 UNK        -0.2404 
      8 C8          1.8475  -14.6209  -50.0492 C.3       23 UNK        -0.0205 
      9 C9          0.9939  -15.8792  -50.1035 C.ar      23 UNK        -0.0193 
     10 C10        -0.3994  -15.7854  -50.0468 C.ar      23 UNK        -0.1150 
     11 C11        -1.2043  -16.9237  -50.1610 C.ar      23 UNK        -0.0193 
     12 C12        -0.5877  -18.1721  -50.3296 C.ar      23 UNK        -0.1150 
     13 C13         0.8045  -18.2827  -50.3747 C.ar      23 UNK        -0.0193 
     14 C14         1.5909  -17.1334  -50.2544 C.ar      23 UNK        -0.1150 
     15 C15         1.4583  -19.6389  -50.5955 C.3       23 UNK        -0.0205 
     16 S16         1.7138  -20.5348  -49.0337 S.3       23 UNK        -0.2404 
     17 C17         0.0367  -21.1709  -48.6996 C.3       23 UNK        -0.0398 
     18 CA          0.0717  -22.3936  -47.7546 C.3       11 UNK         0.1400 
     19 N           0.4446  -22.0348  -46.3851 N.am      11 UNK        -0.5000 
     20 C           0.7372  -22.9142  -45.4181 C.2       10 UNK         0.5000 
     21 O           0.8057  -24.1298  -45.5992 O.2       10 UNK        -0.5000 
     22 CA          0.9357  -22.3469  -44.0003 C.3       10 UNK         0.1400 
     23 CB          2.3611  -21.8052  -43.8164 C.3       10 UNK        -0.1800 
     24 N          -0.0384  -21.3040  -43.6717 N.am      10 UNK        -0.5000 
     25 C          -1.3597  -21.5070  -43.5703 C.2       9 UNK         0.5000 
     26 O          -1.8897  -22.6116  -43.6920 O.2       9 UNK        -0.5000 
     27 CA         -2.2438  -20.2672  -43.3380 C.3       9 UNK         0.1400 
     28 CB         -2.2460  -19.8620  -41.8569 C.3       9 UNK        -0.1800 
     29 N          -1.8495  -19.1273  -44.1684 N.am      9 UNK        -0.5000 
     30 C          -1.9243  -19.1121  -45.5080 C.2       8 UNK         0.5000 
     31 O          -2.3838  -20.0377  -46.1736 O.2       8 UNK        -0.5000 
     32 CA         -1.3471  -17.8850  -46.2349 C.3       8 UNK         0.1400 
     33 CB         -2.3767  -16.7475  -46.2796 C.3       8 UNK        -0.1800 
     34 N          -0.0989  -17.4088  -45.6385 N.am      8 UNK        -0.5000 
     35 C           1.0255  -18.1357  -45.5639 C.2       7 UNK         0.5000 
     36 O           1.1272  -19.2782  -46.0054 O.2       7 UNK        -0.5000 
     37 CA          2.2125  -17.5204  -44.8039 C.3       7 UNK         0.1400 
     38 CB          2.9102  -16.4416  -45.6396 C.3       7 UNK        -0.1800 
     39 N           1.8166  -16.9636  -43.5122 N.am      7 UNK        -0.5000 
     40 C           1.3053  -17.6773  -42.5002 C.2       6 UNK         0.5000 
     41 O           1.1551  -18.8984  -42.5286 O.2       6 UNK        -0.5000 
     42 CA          0.8433  -16.8866  -41.2660 C.3       6 UNK         0.1400 
     43 CB          2.0267  -16.5710  -40.3384 C.3       6 UNK        -0.1800 
     44 N           0.1664  -15.6462  -41.6416 N.am      6 UNK        -0.5000 
     45 C          -1.0548  -15.5894  -42.1906 C.2       5 UNK         0.5000 
     46 O          -1.7525  -16.5791  -42.4137 O.2       5 UNK        -0.5000 
     47 CA         -1.5645  -14.1917  -42.5882 C.3       5 UNK         0.1400 
     48 CB         -2.1236  -13.4474  -41.3663 C.3       5 UNK        -0.1800 
     49 N          -0.5305  -13.3745  -43.2261 N.am      5 UNK        -0.5000 
     50 C           0.0103  -13.6528  -44.4198 C.2       4 UNK         0.5000 
     51 O          -0.3203  -14.6146  -45.1095 O.2       4 UNK        -0.5000 
     52 CA          1.1327  -12.7279  -44.9167 C.3       4 UNK         0.1400 
     53 CB          0.5503  -11.5226  -45.6687 C.3       4 UNK        -0.1800 
     54 N           2.0552  -12.2548  -43.8849 N.am      4 UNK        -0.5000 
     55 C           2.7617  -13.0261  -43.0487 C.2       3 UNK         0.5000 
     56 O           2.5822  -14.2369  -42.9091 O.2       3 UNK        -0.5000 
     57 CA          3.9064  -12.3194  -42.2969 C.3       3 UNK         0.1400 
     58 CB          4.4054  -13.1329  -41.0895 C.3       3 UNK        -0.1800 
     59 N           5.0263  -12.0901  -43.2103 N.am      3 UNK        -0.5000 
     60 C           5.0591  -11.1663  -44.1803 C.2       2 UNK         0.5000 
     61 O           4.1993  -10.2927  -44.3155 O.2       2 UNK        -0.5000 
     62 CA          6.2169  -11.2367  -45.1969 C.3       2 UNK         0.1400 
     63 CB          7.3797  -12.1642  -44.7761 C.3       2 UNK        -0.1800 
     64 N           5.7287  -11.5932  -46.5344 N.am      2 UNK        -0.5000 
     65 C           5.0738  -12.7108  -46.8963 C.2       1 UNK         0.5000 
     66 O           4.8026  -13.6242  -46.1177 O.2       1 UNK        -0.5000 
     67 C          -1.2556  -23.1763  -47.7894 C.2       11 UNK         0.5000 
     68 O          -1.3168  -24.2156  -48.4445 O.2       11 UNK        -0.5000 
     69 N          -2.2745  -22.7188  -47.0478 N.am      12 UNK        -0.5000 
     70 CA         -3.5700  -23.3900  -46.9270 C.3       12 UNK         0.1400 
     71 CB         -4.5566  -22.5042  -46.1538 C.3       12 UNK        -0.1800 
     72 C          -3.4739  -24.7925  -46.3013 C.2       12 UNK         0.5000 
     73 O          -4.1414  -25.7109  -46.7772 O.2       12 UNK        -0.5000 
     74 N          -2.5973  -24.9560  -45.3006 N.am      13 UNK        -0.5000 
     75 CA         -2.2560  -26.2463  -44.6935 C.3       13 UNK         0.1400 
     76 CB         -1.3957  -26.0083  -43.4436 C.3       13 UNK        -0.1800 
     77 C          -1.5526  -27.2166  -45.6676 C.2       13 UNK         0.5000 
     78 O          -1.6714  -28.4308  -45.5023 O.2       13 UNK        -0.5000 
     79 N          -0.8717  -26.6695  -46.6834 N.am      14 UNK        -0.5000 
     80 CA         -0.2553  -27.3968  -47.7949 C.3       14 UNK         0.1400 
     81 CB          1.0502  -26.6824  -48.1865 C.3       14 UNK        -0.1800 
     82 C          -1.2050  -27.5488  -49.0064 C.2       14 UNK         0.5000 
     83 O          -0.7533  -27.9671  -50.0729 O.2       14 UNK        -0.5000 
     84 N          -2.4922  -27.2110  -48.8275 N.am      15 UNK        -0.5000 
     85 CA         -3.5974  -27.2728  -49.7919 C.3       15 UNK         0.1400 
     86 CB         -3.7809  -28.6946  -50.3630 C.3       15 UNK        -0.1800 
     87 C          -3.5591  -26.1909  -50.8919 C.2       15 UNK         0.5000 
     88 O          -4.3610  -26.2527  -51.8245 O.2       15 UNK        -0.5000 
     89 N          -2.6939  -25.1804  -50.7466 N.am      16 UNK        -0.5000 
     90 CA         -2.6398  -23.9813  -51.5827 C.3       16 UNK         0.1400 
     91 CB         -1.1646  -23.6102  -51.8240 C.3       16 UNK        -0.1800 
     92 C          -3.4507  -22.8616  -50.9013 C.2       16 UNK         0.5000 
     93 O          -2.9092  -21.8070  -50.5711 O.2       16 UNK        -0.5000 
     94 N          -4.7318  -23.1550  -50.6485 N.am      17 UNK        -0.5000 
     95 CA         -5.6926  -22.2926  -49.9644 C.3       17 UNK         0.1400 
     96 CB         -6.6786  -23.1979  -49.1975 C.3       17 UNK        -0.1800 
     97 C          -6.4142  -21.3499  -50.9501 C.2       17 UNK         0.5000 
     98 O          -5.9185  -21.0974  -52.0520 O.2       17 UNK        -0.5000 
     99 N          -7.5854  -20.8445  -50.5377 N.am      18 UNK        -0.5000 
    100 CA        -8.4967  -20.0302  -51.3439 C.3       18 UNK         0.1400 
    101 CB        -9.7205  -19.6545  -50.4959 C.3       18 UNK        -0.1800 
    102 C         -8.9287  -20.7510  -52.6331 C.2       18 UNK         0.5000 
    103 O         -9.2825  -21.9306  -52.5805 O.2       18 UNK        -0.5000 
    104 N         -8.8441  -20.0385  -53.7627 N.am      19 UNK        -0.5000 
    105 CA        -9.0881  -20.4652  -55.1471 C.3       19 UNK         0.1400 
    106 CB       -10.5073  -21.0356  -55.3338 C.3       19 UNK        -0.1800 
    107 C         -8.0160  -21.4182  -55.7145 C.2       19 UNK         0.5000 
    108 O         -7.7419  -21.3596  -56.9138 O.2       19 UNK        -0.5000 
    109 N         -7.4076  -22.2528  -54.8614 N.am      20 UNK        -0.5000 
    110 CA        -6.2819  -23.1249  -55.1955 C.3       20 UNK         0.1400 
    111 CB        -6.0775  -24.1473  -54.0684 C.3       20 UNK        -0.1800 
    112 C         -4.9882  -22.3329  -55.4618 C.2       20 UNK         0.5000 
    113 O         -4.2312  -22.6980  -56.3623 O.2       20 UNK        -0.5000 
    114 N         -4.7754  -21.2532  -54.6994 N.am      21 UNK        -0.5000 
    115 CA        -3.6782  -20.3073  -54.8850 C.3       21 UNK         0.1400 
    116 CB        -2.4161  -20.7964  -54.1557 C.3       21 UNK        -0.1800 
    117 C         -4.0692  -18.8977  -54.4198 C.2       21 UNK         0.5000 
    118 O         -3.7897  -17.9322  -55.1321 O.2       21 UNK        -0.5000 
    119 N         -4.6942  -18.7945  -53.2404 N.am      22 UNK        -0.5000 
    120 CA        -5.0959  -17.5182  -52.6301 C.3       22 UNK         0.1400 
    121 C         -6.3942  -16.9421  -53.2580 C.2       22 UNK         0.5000 
    122 N         -6.5460  -15.6255  -53.2839 N.am      22 UNK        -0.7600 
    123 O         -7.2860  -17.6732  -53.6834 O.2       22 UNK        -0.5000 
    124 C124       -5.2251  -17.6179  -51.0864 C.3       23 UNK        -0.0398 
    125 S125       -3.7185  -18.2586  -50.2830 S.3       23 UNK        -0.2404 
    126 C126       -2.7229  -16.7336  -50.1389 C.3       23 UNK        -0.0205 
    127 H127        6.7720  -10.4062  -50.7878 H         1 UNK         0.0600 
    128 H128        7.7780  -11.7097  -51.4250 H         1 UNK         0.0600 
    129 H129        8.3112  -10.7915  -50.0129 H         1 UNK         0.0600 
    130 H130        5.0268  -11.1671  -49.6334 H         1 UNK         0.3000 
    131 H131        4.8814  -13.8745  -48.6742 H         1 UNK         0.0600 
    132 H132        2.7890  -11.7870  -47.9595 H         1 UNK         0.0800 
    133 H133        2.9723  -12.2384  -49.6225 H         1 UNK         0.0800 
    134 H134        1.3552  -13.8223  -50.6063 H         1 UNK         0.0800 
    135 H135        2.8072  -14.7931  -50.5391 H         1 UNK         0.0800 
    136 H136       -0.8602  -14.8141  -49.9313 H         1 UNK         0.1150 
    137 H137       -1.1782  -19.0697  -50.4390 H         1 UNK         0.1150 
    138 H138        2.6680  -17.2131  -50.2994 H         1 UNK         0.1150 
    139 H139        0.8609  -20.2419  -51.2812 H         1 UNK         0.0800 
    140 H140        2.4266  -19.5061  -51.0804 H         1 UNK         0.0800 
    141 H141       -0.4188  -21.4364  -49.6540 H         1 UNK         0.0800 
    142 H142       -0.5752  -20.3717  -48.2799 H         1 UNK         0.0800 
    143 H143        0.8377  -23.0776  -48.1267 H         1 UNK         0.0600 
    144 H144        0.4908  -21.0403  -46.1741 H         1 UNK         0.3000 
    145 H145        0.7935  -23.1674  -43.2940 H         1 UNK         0.0600 
    146 H146        2.5246  -21.4673  -42.7930 H         1 UNK         0.0600 
    147 H147        3.1018  -22.5773  -44.0276 H         1 UNK         0.0600 
    148 H148        2.5638  -20.9653  -44.4809 H         1 UNK         0.0600 
    149 H149        0.3294  -20.3698  -43.5147 H         1 UNK         0.3000 
    150 H150       -3.2660  -20.5365  -43.6111 H         1 UNK         0.0600 
    151 H151       -2.5577  -20.6948  -41.2254 H         1 UNK         0.0600 
    152 H152       -2.9381  -19.0397  -41.6750 H         1 UNK         0.0600 
    153 H153       -1.2582  -19.5476  -41.5210 H         1 UNK         0.0600 
    154 H154       -1.4904  -18.3120  -43.6854 H         1 UNK         0.3000 
    155 H155       -1.1280  -18.1803  -47.2630 H         1 UNK         0.0600 
    156 H156       -2.6056  -16.3727  -45.2812 H         1 UNK         0.0600 
    157 H157       -2.0107  -15.9117  -46.8763 H         1 UNK         0.0600 
    158 H158       -3.3112  -17.0843  -46.7303 H         1 UNK         0.0600 
    159 H159       -0.1028  -16.4550  -45.2842 H         1 UNK         0.3000 
    160 H160        2.9337  -18.3181  -44.6145 H         1 UNK         0.0600 
    161 H161        3.8097  -16.0773  -45.1432 H         1 UNK         0.0600 
    162 H162        2.2562  -15.5879  -45.8080 H         1 UNK         0.0600 
    163 H163        3.2061  -16.8273  -46.6160 H         1 UNK         0.0600 
    164 H164        1.9458  -15.9632  -43.3834 H         1 UNK         0.3000 
    165 H165        0.1371  -17.5098  -40.7131 H         1 UNK         0.0600 
    166 H166        1.6960  -16.0478  -39.4412 H         1 UNK         0.0600 
    167 H167        2.5222  -17.4878  -40.0164 H         1 UNK         0.0600 
    168 H168        2.7758  -15.9508  -40.8314 H         1 UNK         0.0600 
    169 H169        0.7095  -14.7970  -41.5755 H         1 UNK         0.3000 
    170 H170       -2.3779  -14.3277  -43.3044 H         1 UNK         0.0600 
    171 H171       -1.3500  -13.2524  -40.6226 H         1 UNK         0.0600 
    172 H172       -2.5619  -12.4915  -41.6539 H         1 UNK         0.0600 
    173 H173       -2.9073  -14.0300  -40.8802 H         1 UNK         0.0600 
    174 H174       -0.1944  -12.5699  -42.7175 H         1 UNK         0.3000 
    175 H175        1.7350  -13.3035  -45.6184 H         1 UNK         0.0600 
    176 H176        1.3395  -10.9087  -46.1030 H         1 UNK         0.0600 
    177 H177       -0.0450  -10.8880  -45.0113 H         1 UNK         0.0600 
    178 H178       -0.0939  -11.8484  -46.4866 H         1 UNK         0.0600 
    179 H179        2.3439  -11.2868  -43.9623 H         1 UNK         0.3000 
    180 H180        3.5356  -11.3602  -41.9295 H         1 UNK         0.0600 
    181 H181        4.8202  -14.0954  -41.3920 H         1 UNK         0.0600 
    182 H182        3.5920  -13.3313  -40.3904 H         1 UNK         0.0600 
    183 H183        5.1785  -12.5923  -40.5433 H         1 UNK         0.0600 
    184 H184        5.7471  -12.7970  -43.2110 H         1 UNK         0.3000 
    185 H185        6.6168  -10.2244  -45.2714 H         1 UNK         0.0600 
    186 H186        7.0769  -13.2096  -44.7093 H         1 UNK         0.0600 
    187 H187        8.1977  -12.1075  -45.4944 H         1 UNK         0.0600 
    188 H188        7.7851  -11.8713  -43.8068 H         1 UNK         0.0600 
    189 H189        5.8864  -10.8988  -47.2504 H         1 UNK         0.3000 
    190 H190       -2.1813  -21.8237  -46.5721 H         1 UNK         0.3000 
    191 H191       -3.9527  -23.5203  -47.9385 H         1 UNK         0.0600 
    192 H192       -4.6974  -21.5446  -46.6515 H         1 UNK         0.0600 
    193 H193       -5.5354  -22.9797  -46.0819 H         1 UNK         0.0600 
    194 H194       -4.2108  -22.3078  -45.1391 H         1 UNK         0.0600 
    195 H195       -2.1308  -24.1358  -44.9233 H         1 UNK         0.3000 
    196 H196       -3.1875  -26.7204  -44.3776 H         1 UNK         0.0600 
    197 H197       -1.1639  -26.9496  -42.9437 H         1 UNK         0.0600 
    198 H198       -1.9139  -25.3758  -42.7226 H         1 UNK         0.0600 
    199 H199       -0.4498  -25.5269  -43.6909 H         1 UNK         0.0600 
    200 H200       -0.8266  -25.6596  -46.7432 H         1 UNK         0.3000 
    201 H201        0.0042  -28.4050  -47.4664 H         1 UNK         0.0600 
    202 H202        1.7104  -26.5692  -47.3264 H         1 UNK         0.0600 
    203 H203        0.8629  -25.6895  -48.5949 H         1 UNK         0.0600 
    204 H204        1.5969  -27.2484  -48.9415 H         1 UNK         0.0600 
    205 H205       -2.7535  -26.8384  -47.9223 H         1 UNK         0.3000 
    206 H206       -4.4919  -27.0510  -49.2085 H         1 UNK         0.0600 
    207 H207       -3.8138  -29.4391  -49.5676 H         1 UNK         0.0600 
    208 H208       -4.7165  -28.7740  -50.9177 H         1 UNK         0.0600 
    209 H209       -2.9772  -28.9663  -51.0473 H         1 UNK         0.0600 
    210 H210       -2.1224  -25.1449  -49.9061 H         1 UNK         0.3000 
    211 H211       -3.0975  -24.1681  -52.5563 H         1 UNK         0.0600 
    212 H212       -0.6235  -23.4600  -50.8910 H         1 UNK         0.0600 
    213 H213       -1.0745  -22.6933  -52.4055 H         1 UNK         0.0600 
    214 H214       -0.6522  -24.3966  -52.3781 H         1 UNK         0.0600 
    215 H215       -5.0864  -24.0399  -50.9826 H         1 UNK         0.3000 
    216 H216       -5.1620  -21.6671  -49.2436 H         1 UNK         0.0600 
    217 H217       -7.2909  -22.6236  -48.5017 H         1 UNK         0.0600 
    218 H218       -6.1574  -23.9510  -48.6068 H         1 UNK         0.0600 
    219 H219       -7.3508  -23.7248  -49.8765 H         1 UNK         0.0600 
    220 H220       -7.9321  -21.1230  -49.6321 H         1 UNK         0.3000 
    221 H221       -7.9777  -19.1116  -51.6118 H         1 UNK         0.0600 
    222 H222      -10.2710  -20.5381  -50.1703 H         1 UNK         0.0600 
    223 H223       -9.4291  -19.0927  -49.6082 H         1 UNK         0.0600 
    224 H224      -10.4103  -19.0286  -51.0635 H         1 UNK         0.0600 
    225 H225       -8.4425  -19.1040  -53.6913 H         1 UNK         0.3000 
    226 H226       -9.0264  -19.5511  -55.7397 H         1 UNK         0.0600 
    227 H227      -11.2629  -20.3459  -54.9579 H         1 UNK         0.0600 
    228 H228      -10.7187  -21.2053  -56.3902 H         1 UNK         0.0600 
    229 H229      -10.6371  -21.9898  -54.8228 H         1 UNK         0.0600 
    230 H230       -7.7289  -22.2587  -53.9005 H         1 UNK         0.3000 
    231 H231       -6.5322  -23.6707  -56.1076 H         1 UNK         0.0600 
    232 H232       -5.8681  -23.6588  -53.1184 H         1 UNK         0.0600 
    233 H233       -5.2409  -24.8121  -54.2875 H         1 UNK         0.0600 
    234 H234       -6.9618  -24.7705  -53.9353 H         1 UNK         0.0600 
    235 H235       -5.4282  -21.0513  -53.9482 H         1 UNK         0.3000 
    236 H236       -3.4526  -20.2367  -55.9514 H         1 UNK         0.0600 
    237 H237       -2.1060  -21.7786  -54.5121 H         1 UNK         0.0600 
    238 H238       -1.5824  -20.1122  -54.3172 H         1 UNK         0.0600 
    239 H239       -2.5804  -20.8617  -53.0804 H         1 UNK         0.0600 
    240 H240       -4.9231  -19.6311  -52.7124 H         1 UNK         0.3000 
    241 H241       -4.3003  -16.8001  -52.8380 H         1 UNK         0.0600 
    242 H242       -5.8347  -14.9990  -52.9403 H         1 UNK         0.3800 
    243 H243       -7.3914  -15.2416  -53.6770 H         1 UNK         0.3800 
    244 H244       -5.4653  -16.6450  -50.6540 H         1 UNK         0.0800 
    245 H245       -6.0450  -18.2784  -50.8103 H         1 UNK         0.0800 
    246 H246       -3.0080  -16.2223  -49.2189 H         1 UNK         0.0800 
    247 H247       -2.9816  -16.0614  -50.9574 H         1 UNK         0.0800 
@<TRIPOS>BOND
     1    1    2 1    
     2    1  127 1    
     3    1  128 1    
     4    1  129 1    
     5    2    3 2    
     6    2    4 am   BACKBONE|DICT|INTERRES
     7    4    5 1    
     8    4  130 1    
     9    5    6 1    
    10    5   65 1    
    11    5  131 1    
    12    6    7 1    
    13    6  132 1    
    14    6  133 1    
    15    7    8 1    
    16    8    9 1    
    17    8  134 1    
    18    8  135 1    
    19    9   10 ar   
    20    9   14 ar   
    21   10   11 ar   
    22   10  136 1    
    23   11   12 ar   
    24   11  126 1    
    25   12   13 ar   
    26   12  137 1    
    27   13   14 ar   
    28   13   15 1    
    29   14  138 1    
    30   15   16 1    
    31   15  139 1    
    32   15  140 1    
    33   16   17 1    
    34   17   18 1    
    35   17  141 1    
    36   17  142 1    
    37   18   19 1    
    38   18   67 1    
    39   18  143 1    
    40   19   20 am   BACKBONE|DICT|INTERRES
    41   19  144 1    
    42   20   21 2    
    43   20   22 1    
    44   22   23 1    
    45   22   24 1    
    46   22  145 1    
    47   23  146 1    
    48   23  147 1    
    49   23  148 1    
    50   24   25 am   BACKBONE|DICT|INTERRES
    51   24  149 1    
    52   25   26 2    
    53   25   27 1    
    54   27   28 1    
    55   27   29 1    
    56   27  150 1    
    57   28  151 1    
    58   28  152 1    
    59   28  153 1    
    60   29   30 am   BACKBONE|DICT|INTERRES
    61   29  154 1    
    62   30   31 2    
    63   30   32 1    
    64   32   33 1    
    65   32   34 1    
    66   32  155 1    
    67   33  156 1    
    68   33  157 1    
    69   33  158 1    
    70   34   35 am   BACKBONE|DICT|INTERRES
    71   34  159 1    
    72   35   36 2    
    73   35   37 1    
    74   37   38 1    
    75   37   39 1    
    76   37  160 1    
    77   38  161 1    
    78   38  162 1    
    79   38  163 1    
    80   39   40 am   BACKBONE|DICT|INTERRES
    81   39  164 1    
    82   40   41 2    
    83   40   42 1    
    84   42   43 1    
    85   42   44 1    
    86   42  165 1    
    87   43  166 1    
    88   43  167 1    
    89   43  168 1    
    90   44   45 am   BACKBONE|DICT|INTERRES
    91   44  169 1    
    92   45   46 2    
    93   45   47 1    
    94   47   48 1    
    95   47   49 1    
    96   47  170 1    
    97   48  171 1    
    98   48  172 1    
    99   48  173 1    
   100   49   50 am   BACKBONE|DICT|INTERRES
   101   49  174 1    
   102   50   51 2    
   103   50   52 1    
   104   52   53 1    
   105   52   54 1    
   106   52  175 1    
   107   53  176 1    
   108   53  177 1    
   109   53  178 1    
   110   54   55 am   BACKBONE|DICT|INTERRES
   111   54  179 1    
   112   55   56 2    
   113   55   57 1    
   114   57   58 1    
   115   57   59 1    
   116   57  180 1    
   117   58  181 1    
   118   58  182 1    
   119   58  183 1    
   120   59   60 am   BACKBONE|DICT|INTERRES
   121   59  184 1    
   122   60   61 2    
   123   60   62 1    
   124   62   63 1    
   125   62   64 1    
   126   62  185 1    
   127   63  186 1    
   128   63  187 1    
   129   63  188 1    
   130   64   65 am   BACKBONE|DICT|INTERRES
   131   64  189 1    
   132   65   66 2    
   133   67   68 2    
   134   67   69 am   BACKBONE|DICT|INTERRES
   135   69   70 1    
   136   69  190 1    
   137   70   71 1    
   138   70   72 1    
   139   70  191 1    
   140   71  192 1    
   141   71  193 1    
   142   71  194 1    
   143   72   73 2    
   144   72   74 am   BACKBONE|DICT|INTERRES
   145   74   75 1    
   146   74  195 1    
   147   75   76 1    
   148   75   77 1    
   149   75  196 1    
   150   76  197 1    
   151   76  198 1    
   152   76  199 1    
   153   77   78 2    
   154   77   79 am   BACKBONE|DICT|INTERRES
   155   79   80 1    
   156   79  200 1    
   157   80   81 1    
   158   80   82 1    
   159   80  201 1    
   160   81  202 1    
   161   81  203 1    
   162   81  204 1    
   163   82   83 2    
   164   82   84 am   BACKBONE|DICT|INTERRES
   165   84   85 1    
   166   84  205 1    
   167   85   86 1    
   168   85   87 1    
   169   85  206 1    
   170   86  207 1    
   171   86  208 1    
   172   86  209 1    
   173   87   88 2    
   174   87   89 am   BACKBONE|DICT|INTERRES
   175   89   90 1    
   176   89  210 1    
   177   90   91 1    
   178   90   92 1    
   179   90  211 1    
   180   91  212 1    
   181   91  213 1    
   182   91  214 1    
   183   92   93 2    
   184   92   94 am   BACKBONE|DICT|INTERRES
   185   94   95 1    
   186   94  215 1    
   187   95   96 1    
   188   95   97 1    
   189   95  216 1    
   190   96  217 1    
   191   96  218 1    
   192   96  219 1    
   193   97   98 2    
   194   97   99 am   BACKBONE|DICT|INTERRES
   195   99  100 1    
   196   99  220 1    
   197  100  101 1    
   198  100  102 1    
   199  100  221 1    
   200  101  222 1    
   201  101  223 1    
   202  101  224 1    
   203  102  103 2    
   204  102  104 am   BACKBONE|DICT|INTERRES
   205  104  105 1    
   206  104  225 1    
   207  105  106 1    
   208  105  107 1    
   209  105  226 1    
   210  106  227 1    
   211  106  228 1    
   212  106  229 1    
   213  107  108 2    
   214  107  109 am   BACKBONE|DICT|INTERRES
   215  109  110 1    
   216  109  230 1    
   217  110  111 1    
   218  110  112 1    
   219  110  231 1    
   220  111  232 1    
   221  111  233 1    
   222  111  234 1    
   223  112  113 2    
   224  112  114 am   BACKBONE|DICT|INTERRES
   225  114  115 1    
   226  114  235 1    
   227  115  116 1    
   228  115  117 1    
   229  115  236 1    
   230  116  237 1    
   231  116  238 1    
   232  116  239 1    
   233  117  118 2    
   234  117  119 am   BACKBONE|DICT|INTERRES
   235  119  120 1    
   236  119  240 1    
   237  120  121 1    
   238  120  124 1    
   239  120  241 1    
   240  121  122 am   BACKBONE|DICT|INTERRES
   241  121  123 2    
   242  122  242 1    
   243  122  243 1    
   244  124  125 1    
   245  124  244 1    
   246  124  245 1    
   247  125  126 1    
   248  126  246 1    
   249  126  247 1    
@<TRIPOS>SUBSTRUCTURE
     1 UNK         1 GROUP             0       ****    0 ROOT    
