@<TRIPOS>MOLECULE
3R540
247   249    1
SMALL
USER_CHARGES


@<TRIPOS>ATOM
      1 CA          1.1634   -8.5231  -46.7284 C.3       0 UNK        -0.1800 
      2 C          -0.1284   -9.2013  -47.1807 C.2       0 UNK         0.5000 
      3 O          -1.1189   -8.5146  -47.4215 O.2       0 UNK        -0.5000 
      4 N          -0.1752  -10.5352  -47.3080 N.am      1 UNK        -0.5000 
      5 CA          0.9153  -11.4893  -47.0474 C.3       1 UNK         0.1400 
      6 C6          0.7685  -12.7895  -47.8781 C.3       23 UNK        -0.0398 
      7 S7          0.6188  -12.4739  -49.6744 S.3       23 UNK        -0.2404 
      8 C8         -0.7904  -13.5393  -50.1405 C.3       23 UNK        -0.0205 
      9 C9         -0.3622  -14.9277  -50.6092 C.ar      23 UNK        -0.0193 
     10 C10        -0.8279  -15.4274  -51.8309 C.ar      23 UNK        -0.1150 
     11 C11        -0.4562  -16.7022  -52.2701 C.ar      23 UNK        -0.0193 
     12 C12         0.4104  -17.4698  -51.4870 C.ar      23 UNK        -0.1150 
     13 C13         0.8754  -16.9914  -50.2575 C.ar      23 UNK        -0.0193 
     14 C14         0.4742  -15.7264  -49.8219 C.ar      23 UNK        -0.1150 
     15 C15         1.8173  -17.8241  -49.3939 C.3       23 UNK        -0.0205 
     16 S16         1.2562  -19.5404  -49.1644 S.3       23 UNK        -0.2404 
     17 C17        -0.3992  -19.2759  -48.4483 C.3       23 UNK        -0.0398 
     18 CA         -0.9610  -20.5918  -47.8733 C.3       11 UNK         0.1400 
     19 N          -0.3117  -20.9886  -46.6256 N.am      11 UNK        -0.5000 
     20 C          -0.4257  -22.1961  -46.0597 C.2       10 UNK         0.5000 
     21 O          -1.0884  -23.1154  -46.5422 O.2       10 UNK        -0.5000 
     22 CA          0.2775  -22.3868  -44.7040 C.3       10 UNK         0.1400 
     23 CB          1.7851  -22.6152  -44.8894 C.3       10 UNK        -0.1800 
     24 N           0.0567  -21.2503  -43.8081 N.am      10 UNK        -0.5000 
     25 C          -1.1373  -20.9235  -43.2931 C.2       9 UNK         0.5000 
     26 O          -2.1614  -21.5844  -43.4718 O.2       9 UNK        -0.5000 
     27 CA         -1.2078  -19.6225  -42.4720 C.3       9 UNK         0.1400 
     28 CB         -0.7151  -19.8601  -41.0368 C.3       9 UNK        -0.1800 
     29 N          -0.4509  -18.5238  -43.0762 N.am      9 UNK        -0.5000 
     30 C          -0.7382  -17.9643  -44.2605 C.2       8 UNK         0.5000 
     31 O          -1.6999  -18.2918  -44.9525 O.2       8 UNK        -0.5000 
     32 CA          0.2370  -16.8984  -44.7926 C.3       8 UNK         0.1400 
     33 CB         -0.0448  -15.5273  -44.1637 C.3       8 UNK        -0.1800 
     34 N           1.6389  -17.2561  -44.5834 N.am      8 UNK        -0.5000 
     35 C           2.2343  -18.3436  -45.0913 C.2       7 UNK         0.5000 
     36 O           1.6650  -19.1611  -45.8097 O.2       7 UNK        -0.5000 
     37 CA          3.6936  -18.5888  -44.6828 C.3       7 UNK         0.1400 
     38 CB          4.6512  -17.7196  -45.5117 C.3       7 UNK        -0.1800 
     39 N           3.8937  -18.3377  -43.2569 N.am      7 UNK        -0.5000 
     40 C           3.4239  -19.1287  -42.2819 C.2       6 UNK         0.5000 
     41 O           2.8156  -20.1804  -42.4857 O.2       6 UNK        -0.5000 
     42 CA          3.6399  -18.6399  -40.8376 C.3       6 UNK         0.1400 
     43 CB          5.0465  -19.0093  -40.3434 C.3       6 UNK        -0.1800 
     44 N           3.4360  -17.1967  -40.6914 N.am      6 UNK        -0.5000 
     45 C           2.2507  -16.5884  -40.8352 C.2       5 UNK         0.5000 
     46 O           1.2058  -17.1834  -41.0963 O.2       5 UNK        -0.5000 
     47 CA          2.2305  -15.0547  -40.7006 C.3       5 UNK         0.1400 
     48 CB          2.1236  -14.6465  -39.2240 C.3       5 UNK        -0.1800 
     49 N           3.3687  -14.3610  -41.3117 N.am      5 UNK        -0.5000 
     50 C           3.7719  -14.4839  -42.5836 C.2       4 UNK         0.5000 
     51 O           3.3174  -15.3170  -43.3675 O.2       4 UNK        -0.5000 
     52 CA          4.8077  -13.4536  -43.0618 C.3       4 UNK         0.1400 
     53 CB          5.3681  -13.7792  -44.4579 C.3       4 UNK        -0.1800 
     54 N           4.1422  -12.1563  -43.1109 N.am      4 UNK        -0.5000 
     55 C           4.2382  -11.1967  -42.1807 C.2       3 UNK         0.5000 
     56 O           5.0190  -11.2435  -41.2297 O.2       3 UNK        -0.5000 
     57 CA          3.2635  -10.0060  -42.3049 C.3       3 UNK         0.1400 
     58 CB          3.8979   -8.8719  -43.1242 C.3       3 UNK        -0.1800 
     59 N           1.9850  -10.3770  -42.9159 N.am      3 UNK        -0.5000 
     60 C           1.1073  -11.2484  -42.3986 C.2       2 UNK         0.5000 
     61 O           1.2112  -11.7261  -41.2690 O.2       2 UNK        -0.5000 
     62 CA         -0.0714  -11.6876  -43.2926 C.3       2 UNK         0.1400 
     63 CB         -1.3817  -11.0554  -42.7989 C.3       2 UNK        -0.1800 
     64 N           0.0711  -11.4067  -44.7276 N.am      2 UNK        -0.5000 
     65 C           1.0470  -11.8329  -45.5456 C.2       1 UNK         0.5000 
     66 O           2.0324  -12.4584  -45.1566 O.2       1 UNK        -0.5000 
     67 C          -2.4946  -20.5491  -47.7585 C.2       11 UNK         0.5000 
     68 O          -3.1568  -20.8957  -48.7299 O.2       11 UNK        -0.5000 
     69 N          -3.0509  -20.1887  -46.5942 N.am      12 UNK        -0.5000 
     70 CA         -4.4930  -20.2422  -46.3348 C.3       12 UNK         0.1400 
     71 CB         -4.8046  -19.6095  -44.9705 C.3       12 UNK        -0.1800 
     72 C          -5.0561  -21.6744  -46.4210 C.2       12 UNK         0.5000 
     73 O          -6.1176  -21.8782  -47.0126 O.2       12 UNK        -0.5000 
     74 N          -4.3079  -22.6453  -45.8779 N.am      13 UNK        -0.5000 
     75 CA         -4.6183  -24.0710  -45.9772 C.3       13 UNK         0.1400 
     76 CB         -3.7476  -24.8618  -44.9894 C.3       13 UNK        -0.1800 
     77 C          -4.4565  -24.6020  -47.4134 C.2       13 UNK         0.5000 
     78 O          -5.3263  -25.3299  -47.8915 O.2       13 UNK        -0.5000 
     79 N          -3.3710  -24.2033  -48.0920 N.am      14 UNK        -0.5000 
     80 CA         -3.0983  -24.5652  -49.4847 C.3       14 UNK         0.1400 
     81 CB         -1.6629  -24.1686  -49.8533 C.3       14 UNK        -0.1800 
     82 C          -4.1141  -23.9624  -50.4748 C.2       14 UNK         0.5000 
     83 O          -4.4839  -24.6256  -51.4411 O.2       14 UNK        -0.5000 
     84 N          -4.5752  -22.7324  -50.2125 N.am      15 UNK        -0.5000 
     85 CA         -5.6182  -22.0530  -50.9783 C.3       15 UNK         0.1400 
     86 CB         -5.7358  -20.5876  -50.5357 C.3       15 UNK        -0.1800 
     87 C          -6.9745  -22.7684  -50.8763 C.2       15 UNK         0.5000 
     88 O          -7.6410  -22.9483  -51.8970 O.2       15 UNK        -0.5000 
     89 N          -7.3288  -23.2079  -49.6592 N.am      16 UNK        -0.5000 
     90 CA         -8.5089  -24.0312  -49.3887 C.3       16 UNK         0.1400 
     91 CB         -8.7022  -24.1746  -47.8718 C.3       16 UNK        -0.1800 
     92 C          -8.4340  -25.4104  -50.0721 C.2       16 UNK         0.5000 
     93 O          -9.4484  -25.8979  -50.5725 O.2       16 UNK        -0.5000 
     94 N          -7.2258  -25.9845  -50.1456 N.am      17 UNK        -0.5000 
     95 CA         -6.8962  -27.2102  -50.8750 C.3       17 UNK         0.1400 
     96 CB         -5.6242  -27.8249  -50.2646 C.3       17 UNK        -0.1800 
     97 C          -6.7753  -26.9790  -52.4002 C.2       17 UNK         0.5000 
     98 O          -5.7711  -27.3541  -53.0071 O.2       17 UNK        -0.5000 
     99 N          -7.8204  -26.3842  -52.9918 N.am      18 UNK        -0.5000 
    100 CA        -8.0239  -26.1435  -54.4234 C.3       18 UNK         0.1400 
    101 CB        -8.2146  -27.4805  -55.1712 C.3       18 UNK        -0.1800 
    102 C         -6.9516  -25.2377  -55.0668 C.2       18 UNK         0.5000 
    103 O         -6.4151  -25.5723  -56.1250 O.2       18 UNK        -0.5000 
    104 N         -6.6870  -24.0874  -54.4286 N.am      19 UNK        -0.5000 
    105 CA        -5.8393  -22.9878  -54.9121 C.3       19 UNK         0.1400 
    106 CB        -6.4319  -22.3617  -56.1924 C.3       19 UNK        -0.1800 
    107 C         -4.3439  -23.3419  -55.0699 C.2       19 UNK         0.5000 
    108 O         -3.6327  -22.6685  -55.8189 O.2       19 UNK        -0.5000 
    109 N         -3.8662  -24.3577  -54.3384 N.am      20 UNK        -0.5000 
    110 CA        -2.4965  -24.8794  -54.4107 C.3       20 UNK         0.1400 
    111 CB        -2.4315  -26.2215  -53.6641 C.3       20 UNK        -0.1800 
    112 C         -1.4092  -23.9120  -53.8955 C.2       20 UNK         0.5000 
    113 O         -0.2248  -24.1727  -54.1090 O.2       20 UNK        -0.5000 
    114 N         -1.8204  -22.8220  -53.2323 N.am      21 UNK        -0.5000 
    115 CA        -0.9566  -21.7562  -52.7254 C.3       21 UNK         0.1400 
    116 CB        -1.8100  -20.7720  -51.9135 C.3       21 UNK        -0.1800 
    117 C         -0.1897  -21.0107  -53.8342 C.2       21 UNK         0.5000 
    118 O          1.0007  -20.7455  -53.6651 O.2       21 UNK        -0.5000 
    119 N         -0.8831  -20.6983  -54.9379 N.am      22 UNK        -0.5000 
    120 CA        -0.3335  -19.9909  -56.1089 C.3       22 UNK         0.1400 
    121 C         -0.7359  -20.6288  -57.4707 C.2       22 UNK         0.5000 
    122 N         -1.6430  -21.5959  -57.5443 N.am      22 UNK        -0.7600 
    123 O         -0.1883  -20.2489  -58.5023 O.2       22 UNK        -0.5000 
    124 C124       -0.6546  -18.4682  -56.0893 C.3       23 UNK        -0.0398 
    125 S125        0.2714  -17.5401  -54.8170 S.3       23 UNK        -0.2404 
    126 C126       -1.0203  -17.2709  -53.5654 C.3       23 UNK        -0.0205 
    127 H127        1.5051   -8.9153  -45.7718 H         1 UNK         0.0600 
    128 H128        1.9507   -8.6625  -47.4691 H         1 UNK         0.0600 
    129 H129        1.0086   -7.4506  -46.6078 H         1 UNK         0.0600 
    130 H130       -1.0346  -10.9517  -47.6370 H         1 UNK         0.3000 
    131 H131        1.8596  -11.0308  -47.3455 H         1 UNK         0.0600 
    132 H132       -0.0909  -13.3652  -47.5306 H         1 UNK         0.0800 
    133 H133        1.6410  -13.4285  -47.7287 H         1 UNK         0.0800 
    134 H134       -1.3343  -13.0301  -50.9375 H         1 UNK         0.0800 
    135 H135       -1.4952  -13.6345  -49.3139 H         1 UNK         0.0800 
    136 H136       -1.4934  -14.8281  -52.4364 H         1 UNK         0.1150 
    137 H137        0.7122  -18.4493  -51.8315 H         1 UNK         0.1150 
    138 H138        0.8269  -15.3591  -48.8705 H         1 UNK         0.1150 
    139 H139        2.8029  -17.8355  -49.8604 H         1 UNK         0.0800 
    140 H140        1.9461  -17.3712  -48.4093 H         1 UNK         0.0800 
    141 H141       -1.0410  -18.8884  -49.2418 H         1 UNK         0.0800 
    142 H142       -0.3550  -18.5027  -47.6800 H         1 UNK         0.0800 
    143 H143       -0.7441  -21.3777  -48.5980 H         1 UNK         0.0600 
    144 H144        0.3070  -20.2996  -46.2016 H         1 UNK         0.3000 
    145 H145       -0.1445  -23.2769  -44.2326 H         1 UNK         0.0600 
    146 H146        2.2745  -22.8062  -43.9342 H         1 UNK         0.0600 
    147 H147        1.9724  -23.4774  -45.5305 H         1 UNK         0.0600 
    148 H148        2.2731  -21.7542  -45.3467 H         1 UNK         0.0600 
    149 H149        0.8566  -20.6634  -43.6062 H         1 UNK         0.3000 
    150 H150       -2.2557  -19.3189  -42.4251 H         1 UNK         0.0600 
    151 H151       -1.2612  -20.6780  -40.5651 H         1 UNK         0.0600 
    152 H152       -0.8611  -18.9736  -40.4195 H         1 UNK         0.0600 
    153 H153        0.3455  -20.1132  -41.0120 H         1 UNK         0.0600 
    154 H154        0.3263  -18.1559  -42.5349 H         1 UNK         0.3000 
    155 H155        0.0805  -16.8130  -45.8697 H         1 UNK         0.0600 
    156 H156        0.0740  -15.5494  -43.0808 H         1 UNK         0.0600 
    157 H157       -1.0632  -15.2007  -44.3771 H         1 UNK         0.0600 
    158 H158        0.6319  -14.7702  -44.5588 H         1 UNK         0.0600 
    159 H159        2.1996  -16.6117  -44.0294 H         1 UNK         0.3000 
    160 H160        3.9281  -19.6364  -44.8842 H         1 UNK         0.0600 
    161 H161        5.6901  -17.9060  -45.2395 H         1 UNK         0.0600 
    162 H162        4.4544  -16.6558  -45.3787 H         1 UNK         0.0600 
    163 H163        4.5487  -17.9385  -46.5754 H         1 UNK         0.0600 
    164 H164        4.3059  -17.4502  -43.0069 H         1 UNK         0.3000 
    165 H165        2.9119  -19.1508  -40.2036 H         1 UNK         0.0600 
    166 H166        5.1794  -18.7399  -39.2954 H         1 UNK         0.0600 
    167 H167        5.2191  -20.0833  -40.4262 H         1 UNK         0.0600 
    168 H168        5.8231  -18.5064  -40.9210 H         1 UNK         0.0600 
    169 H169        4.2477  -16.6331  -40.4859 H         1 UNK         0.3000 
    170 H170        1.3338  -14.6980  -41.2104 H         1 UNK         0.0600 
    171 H171        1.2715  -15.1304  -38.7446 H         1 UNK         0.0600 
    172 H172        3.0176  -14.9226  -38.6636 H         1 UNK         0.0600 
    173 H173        1.9821  -13.5701  -39.1229 H         1 UNK         0.0600 
    174 H174        3.7866  -13.6283  -40.7558 H         1 UNK         0.3000 
    175 H175        5.6377  -13.4463  -42.3525 H         1 UNK         0.0600 
    176 H176        4.5813  -13.8130  -45.2130 H         1 UNK         0.0600 
    177 H177        6.0980  -13.0328  -44.7711 H         1 UNK         0.0600 
    178 H178        5.8705  -14.7470  -44.4601 H         1 UNK         0.0600 
    179 H179        3.4230  -12.0737  -43.8242 H         1 UNK         0.3000 
    180 H180        3.0618   -9.6346  -41.2981 H         1 UNK         0.0600 
    181 H181        4.1023   -9.1816  -44.1499 H         1 UNK         0.0600 
    182 H182        4.8431   -8.5534  -42.6827 H         1 UNK         0.0600 
    183 H183        3.2466   -7.9984  -43.1600 H         1 UNK         0.0600 
    184 H184        1.8117  -10.0313  -43.8465 H         1 UNK         0.3000 
    185 H185       -0.1562  -12.7698  -43.1827 H         1 UNK         0.0600 
    186 H186       -1.5479  -11.2686  -41.7420 H         1 UNK         0.0600 
    187 H187       -1.3732   -9.9712  -42.9178 H         1 UNK         0.0600 
    188 H188       -2.2401  -11.4475  -43.3446 H         1 UNK         0.0600 
    189 H189       -0.6868  -10.8886  -45.1488 H         1 UNK         0.3000 
    190 H190       -2.4615  -19.8205  -45.8534 H         1 UNK         0.3000 
    191 H191       -4.9904  -19.6466  -47.1031 H         1 UNK         0.0600 
    192 H192       -4.3112  -20.1395  -44.1561 H         1 UNK         0.0600 
    193 H193       -5.8766  -19.6241  -44.7698 H         1 UNK         0.0600 
    194 H194       -4.4822  -18.5688  -44.9363 H         1 UNK         0.0600 
    195 H195       -3.4432  -22.3932  -45.4168 H         1 UNK         0.3000 
    196 H196       -5.6626  -24.2098  -45.6889 H         1 UNK         0.0600 
    197 H197       -3.9928  -25.9241  -45.0196 H         1 UNK         0.0600 
    198 H198       -3.9043  -24.5201  -43.9661 H         1 UNK         0.0600 
    199 H199       -2.6855  -24.7647  -45.2139 H         1 UNK         0.0600 
    200 H200       -2.6725  -23.6427  -47.6130 H         1 UNK         0.3000 
    201 H201       -3.1690  -25.6515  -49.5612 H         1 UNK         0.0600 
    202 H202       -0.9418  -24.6034  -49.1610 H         1 UNK         0.0600 
    203 H203       -1.5295  -23.0892  -49.8406 H         1 UNK         0.0600 
    204 H204       -1.4064  -24.5203  -50.8527 H         1 UNK         0.0600 
    205 H205       -4.1572  -22.1996  -49.4520 H         1 UNK         0.3000 
    206 H206       -5.3080  -22.0604  -52.0217 H         1 UNK         0.0600 
    207 H207       -4.8070  -20.0465  -50.7169 H         1 UNK         0.0600 
    208 H208       -6.5227  -20.0732  -51.0885 H         1 UNK         0.0600 
    209 H209       -5.9700  -20.5046  -49.4740 H         1 UNK         0.0600 
    210 H210       -6.7296  -22.9960  -48.8702 H         1 UNK         0.3000 
    211 H211       -9.3784  -23.5089  -49.7931 H         1 UNK         0.0600 
    212 H212       -7.8609  -24.6838  -47.4020 H         1 UNK         0.0600 
    213 H213       -9.6010  -24.7496  -47.6462 H         1 UNK         0.0600 
    214 H214       -8.8102  -23.2003  -47.3947 H         1 UNK         0.0600 
    215 H215       -6.4515  -25.5229  -49.6824 H         1 UNK         0.3000 
    216 H216       -7.7068  -27.9265  -50.7269 H         1 UNK         0.0600 
    217 H217       -5.4014  -28.7922  -50.7162 H         1 UNK         0.0600 
    218 H218       -5.7367  -27.9849  -49.1921 H         1 UNK         0.0600 
    219 H219       -4.7565  -27.1843  -50.4185 H         1 UNK         0.0600 
    220 H220       -8.5839  -26.1034  -52.3850 H         1 UNK         0.3000 
    221 H221       -8.9627  -25.5937  -54.5036 H         1 UNK         0.0600 
    222 H222       -7.3043  -28.0809  -55.1676 H         1 UNK         0.0600 
    223 H223       -9.0097  -28.0744  -54.7207 H         1 UNK         0.0600 
    224 H224       -8.4895  -27.3103  -56.2128 H         1 UNK         0.0600 
    225 H225       -7.1540  -23.9085  -53.5434 H         1 UNK         0.3000 
    226 H226       -5.8841  -22.2160  -54.1464 H         1 UNK         0.0600 
    227 H227       -7.4823  -22.1043  -56.0563 H         1 UNK         0.0600 
    228 H228       -5.9080  -21.4429  -56.4587 H         1 UNK         0.0600 
    229 H229       -6.3584  -23.0357  -57.0462 H         1 UNK         0.0600 
    230 H230       -4.4852  -24.8201  -53.6822 H         1 UNK         0.3000 
    231 H231       -2.2748  -25.0707  -55.4626 H         1 UNK         0.0600 
    232 H232       -3.1565  -26.9304  -54.0645 H         1 UNK         0.0600 
    233 H233       -2.6330  -26.1038  -52.5996 H         1 UNK         0.0600 
    234 H234       -1.4455  -26.6775  -53.7614 H         1 UNK         0.0600 
    235 H235       -2.8132  -22.7091  -53.0976 H         1 UNK         0.3000 
    236 H236       -0.2236  -22.2102  -52.0552 H         1 UNK         0.0600 
    237 H237       -1.1919  -19.9943  -51.4656 H         1 UNK         0.0600 
    238 H238       -2.5660  -20.2835  -52.5289 H         1 UNK         0.0600 
    239 H239       -2.3265  -21.2802  -51.1040 H         1 UNK         0.0600 
    240 H240       -1.8490  -20.9843  -55.0032 H         1 UNK         0.3000 
    241 H241        0.7531  -20.0945  -56.0925 H         1 UNK         0.0600 
    242 H242       -1.8528  -21.9776  -58.4527 H         1 UNK         0.3800 
    243 H243       -2.1767  -21.9333  -56.7494 H         1 UNK         0.3800 
    244 H244       -1.7266  -18.3062  -55.9670 H         1 UNK         0.0800 
    245 H245       -0.3940  -18.0077  -57.0439 H         1 UNK         0.0800 
    246 H246       -1.7829  -16.6093  -53.9792 H         1 UNK         0.0800 
    247 H247       -1.5177  -18.2154  -53.3480 H         1 UNK         0.0800 
@<TRIPOS>BOND
     1    1    2 1    
     2    1  127 1    
     3    1  128 1    
     4    1  129 1    
     5    2    3 2    
     6    2    4 am   BACKBONE|DICT|INTERRES
     7    4    5 1    
     8    4  130 1    
     9    5    6 1    
    10    5   65 1    
    11    5  131 1    
    12    6    7 1    
    13    6  132 1    
    14    6  133 1    
    15    7    8 1    
    16    8    9 1    
    17    8  134 1    
    18    8  135 1    
    19    9   10 ar   
    20    9   14 ar   
    21   10   11 ar   
    22   10  136 1    
    23   11   12 ar   
    24   11  126 1    
    25   12   13 ar   
    26   12  137 1    
    27   13   14 ar   
    28   13   15 1    
    29   14  138 1    
    30   15   16 1    
    31   15  139 1    
    32   15  140 1    
    33   16   17 1    
    34   17   18 1    
    35   17  141 1    
    36   17  142 1    
    37   18   19 1    
    38   18   67 1    
    39   18  143 1    
    40   19   20 am   BACKBONE|DICT|INTERRES
    41   19  144 1    
    42   20   21 2    
    43   20   22 1    
    44   22   23 1    
    45   22   24 1    
    46   22  145 1    
    47   23  146 1    
    48   23  147 1    
    49   23  148 1    
    50   24   25 am   BACKBONE|DICT|INTERRES
    51   24  149 1    
    52   25   26 2    
    53   25   27 1    
    54   27   28 1    
    55   27   29 1    
    56   27  150 1    
    57   28  151 1    
    58   28  152 1    
    59   28  153 1    
    60   29   30 am   BACKBONE|DICT|INTERRES
    61   29  154 1    
    62   30   31 2    
    63   30   32 1    
    64   32   33 1    
    65   32   34 1    
    66   32  155 1    
    67   33  156 1    
    68   33  157 1    
    69   33  158 1    
    70   34   35 am   BACKBONE|DICT|INTERRES
    71   34  159 1    
    72   35   36 2    
    73   35   37 1    
    74   37   38 1    
    75   37   39 1    
    76   37  160 1    
    77   38  161 1    
    78   38  162 1    
    79   38  163 1    
    80   39   40 am   BACKBONE|DICT|INTERRES
    81   39  164 1    
    82   40   41 2    
    83   40   42 1    
    84   42   43 1    
    85   42   44 1    
    86   42  165 1    
    87   43  166 1    
    88   43  167 1    
    89   43  168 1    
    90   44   45 am   BACKBONE|DICT|INTERRES
    91   44  169 1    
    92   45   46 2    
    93   45   47 1    
    94   47   48 1    
    95   47   49 1    
    96   47  170 1    
    97   48  171 1    
    98   48  172 1    
    99   48  173 1    
   100   49   50 am   BACKBONE|DICT|INTERRES
   101   49  174 1    
   102   50   51 2    
   103   50   52 1    
   104   52   53 1    
   105   52   54 1    
   106   52  175 1    
   107   53  176 1    
   108   53  177 1    
   109   53  178 1    
   110   54   55 am   BACKBONE|DICT|INTERRES
   111   54  179 1    
   112   55   56 2    
   113   55   57 1    
   114   57   58 1    
   115   57   59 1    
   116   57  180 1    
   117   58  181 1    
   118   58  182 1    
   119   58  183 1    
   120   59   60 am   BACKBONE|DICT|INTERRES
   121   59  184 1    
   122   60   61 2    
   123   60   62 1    
   124   62   63 1    
   125   62   64 1    
   126   62  185 1    
   127   63  186 1    
   128   63  187 1    
   129   63  188 1    
   130   64   65 am   BACKBONE|DICT|INTERRES
   131   64  189 1    
   132   65   66 2    
   133   67   68 2    
   134   67   69 am   BACKBONE|DICT|INTERRES
   135   69   70 1    
   136   69  190 1    
   137   70   71 1    
   138   70   72 1    
   139   70  191 1    
   140   71  192 1    
   141   71  193 1    
   142   71  194 1    
   143   72   73 2    
   144   72   74 am   BACKBONE|DICT|INTERRES
   145   74   75 1    
   146   74  195 1    
   147   75   76 1    
   148   75   77 1    
   149   75  196 1    
   150   76  197 1    
   151   76  198 1    
   152   76  199 1    
   153   77   78 2    
   154   77   79 am   BACKBONE|DICT|INTERRES
   155   79   80 1    
   156   79  200 1    
   157   80   81 1    
   158   80   82 1    
   159   80  201 1    
   160   81  202 1    
   161   81  203 1    
   162   81  204 1    
   163   82   83 2    
   164   82   84 am   BACKBONE|DICT|INTERRES
   165   84   85 1    
   166   84  205 1    
   167   85   86 1    
   168   85   87 1    
   169   85  206 1    
   170   86  207 1    
   171   86  208 1    
   172   86  209 1    
   173   87   88 2    
   174   87   89 am   BACKBONE|DICT|INTERRES
   175   89   90 1    
   176   89  210 1    
   177   90   91 1    
   178   90   92 1    
   179   90  211 1    
   180   91  212 1    
   181   91  213 1    
   182   91  214 1    
   183   92   93 2    
   184   92   94 am   BACKBONE|DICT|INTERRES
   185   94   95 1    
   186   94  215 1    
   187   95   96 1    
   188   95   97 1    
   189   95  216 1    
   190   96  217 1    
   191   96  218 1    
   192   96  219 1    
   193   97   98 2    
   194   97   99 am   BACKBONE|DICT|INTERRES
   195   99  100 1    
   196   99  220 1    
   197  100  101 1    
   198  100  102 1    
   199  100  221 1    
   200  101  222 1    
   201  101  223 1    
   202  101  224 1    
   203  102  103 2    
   204  102  104 am   BACKBONE|DICT|INTERRES
   205  104  105 1    
   206  104  225 1    
   207  105  106 1    
   208  105  107 1    
   209  105  226 1    
   210  106  227 1    
   211  106  228 1    
   212  106  229 1    
   213  107  108 2    
   214  107  109 am   BACKBONE|DICT|INTERRES
   215  109  110 1    
   216  109  230 1    
   217  110  111 1    
   218  110  112 1    
   219  110  231 1    
   220  111  232 1    
   221  111  233 1    
   222  111  234 1    
   223  112  113 2    
   224  112  114 am   BACKBONE|DICT|INTERRES
   225  114  115 1    
   226  114  235 1    
   227  115  116 1    
   228  115  117 1    
   229  115  236 1    
   230  116  237 1    
   231  116  238 1    
   232  116  239 1    
   233  117  118 2    
   234  117  119 am   BACKBONE|DICT|INTERRES
   235  119  120 1    
   236  119  240 1    
   237  120  121 1    
   238  120  124 1    
   239  120  241 1    
   240  121  122 am   BACKBONE|DICT|INTERRES
   241  121  123 2    
   242  122  242 1    
   243  122  243 1    
   244  124  125 1    
   245  124  244 1    
   246  124  245 1    
   247  125  126 1    
   248  126  246 1    
   249  126  247 1    
@<TRIPOS>SUBSTRUCTURE
     1 UNK         1 GROUP             0       ****    0 ROOT    
