@<TRIPOS>MOLECULE
3R540
247   249    1
SMALL
USER_CHARGES


@<TRIPOS>ATOM
      1 CA          1.2357  -11.6978  -53.2687 C.3       0 UNK        -0.1800 
      2 C           2.2251  -11.7033  -52.1127 C.2       0 UNK         0.5000 
      3 O           2.0801  -10.9200  -51.1740 O.2       0 UNK        -0.5000 
      4 N           3.2220  -12.5940  -52.1653 N.am      1 UNK        -0.5000 
      5 CA          4.2782  -12.8071  -51.1644 C.3       1 UNK         0.1400 
      6 C6          5.5467  -13.4533  -51.7930 C.3       23 UNK        -0.0398 
      7 S7          5.2443  -14.8053  -52.9927 S.3       23 UNK        -0.2404 
      8 C8          5.3569  -16.3091  -51.9585 C.3       23 UNK        -0.0205 
      9 C9          4.0265  -16.9672  -51.5775 C.ar      23 UNK        -0.0193 
     10 C10         2.7759  -16.4104  -51.8794 C.ar      23 UNK        -0.1150 
     11 C11         1.5941  -17.0688  -51.5301 C.ar      23 UNK        -0.0193 
     12 C12         1.6618  -18.3019  -50.8763 C.ar      23 UNK        -0.1150 
     13 C13         2.8987  -18.8725  -50.5586 C.ar      23 UNK        -0.0193 
     14 C14         4.0708  -18.1948  -50.9089 C.ar      23 UNK        -0.1150 
     15 C15         2.9856  -20.2354  -49.8776 C.3       23 UNK        -0.0205 
     16 S16         2.3186  -20.2240  -48.1801 S.3       23 UNK        -0.2404 
     17 C17         0.5718  -20.6699  -48.4596 C.3       23 UNK        -0.0398 
     18 CA          0.1428  -21.9338  -47.6768 C.3       11 UNK         0.1400 
     19 N           0.0872  -21.7168  -46.2272 N.am      11 UNK        -0.5000 
     20 C          -0.1454  -22.6780  -45.3209 C.2       10 UNK         0.5000 
     21 O          -0.2497  -23.8720  -45.6026 O.2       10 UNK        -0.5000 
     22 CA         -0.3694  -22.2264  -43.8659 C.3       10 UNK         0.1400 
     23 CB          0.9651  -21.9994  -43.1406 C.3       10 UNK        -0.1800 
     24 N          -1.2051  -21.0263  -43.7802 N.am      10 UNK        -0.5000 
     25 C          -2.4933  -20.9820  -44.1506 C.2       9 UNK         0.5000 
     26 O          -3.1206  -21.9678  -44.5331 O.2       9 UNK        -0.5000 
     27 CA         -3.1927  -19.6110  -44.1361 C.3       9 UNK         0.1400 
     28 CB         -3.7306  -19.2886  -42.7348 C.3       9 UNK        -0.1800 
     29 N          -2.3252  -18.5289  -44.6002 N.am      9 UNK        -0.5000 
     30 C          -1.8580  -18.4124  -45.8518 C.2       8 UNK         0.5000 
     31 O          -2.1719  -19.1679  -46.7727 O.2       8 UNK        -0.5000 
     32 CA         -0.8314  -17.2937  -46.1099 C.3       8 UNK         0.1400 
     33 CB         -1.5392  -15.9604  -46.3719 C.3       8 UNK        -0.1800 
     34 N           0.1262  -17.1372  -45.0137 N.am      8 UNK        -0.5000 
     35 C           0.9877  -18.0884  -44.6270 C.2       7 UNK         0.5000 
     36 O           1.0918  -19.1783  -45.1873 O.2       7 UNK        -0.5000 
     37 CA          1.8088  -17.8147  -43.3552 C.3       7 UNK         0.1400 
     38 CB          3.0246  -16.9206  -43.6366 C.3       7 UNK        -0.1800 
     39 N           0.9893  -17.2219  -42.2991 N.am      7 UNK        -0.5000 
     40 C           0.0472  -17.8869  -41.6166 C.2       6 UNK         0.5000 
     41 O          -0.1983  -19.0810  -41.7814 O.2       6 UNK        -0.5000 
     42 CA         -0.7801  -17.0757  -40.6024 C.3       6 UNK         0.1400 
     43 CB         -0.0627  -17.0163  -39.2457 C.3       6 UNK        -0.1800 
     44 N          -1.0600  -15.7145  -41.0609 N.am      6 UNK        -0.5000 
     45 C          -1.8510  -15.4105  -42.0999 C.2       5 UNK         0.5000 
     46 O          -2.4585  -16.2479  -42.7653 O.2       5 UNK        -0.5000 
     47 CA         -1.9263  -13.9229  -42.4934 C.3       5 UNK         0.1400 
     48 CB         -2.9835  -13.1916  -41.6530 C.3       5 UNK        -0.1800 
     49 N          -0.6370  -13.2350  -42.3665 N.am      5 UNK        -0.5000 
     50 C           0.4548  -13.5595  -43.0701 C.2       4 UNK         0.5000 
     51 O           0.4797  -14.4685  -43.9029 O.2       4 UNK        -0.5000 
     52 CA          1.7390  -12.7845  -42.7507 C.3       4 UNK         0.1400 
     53 CB          2.4180  -13.3543  -41.4916 C.3       4 UNK        -0.1800 
     54 N           2.6387  -12.8914  -43.8918 N.am      4 UNK        -0.5000 
     55 C           3.6525  -12.0739  -44.1863 C.2       3 UNK         0.5000 
     56 O           3.9797  -11.1176  -43.4823 O.2       3 UNK        -0.5000 
     57 CA          4.4212  -12.3420  -45.4972 C.3       3 UNK         0.1400 
     58 CB          5.4787  -13.4471  -45.3092 C.3       3 UNK        -0.1800 
     59 N           3.5615  -12.6037  -46.6613 N.am      3 UNK        -0.5000 
     60 C           2.7693  -13.6593  -46.9030 C.2       2 UNK         0.5000 
     61 O           2.6646  -14.6313  -46.1581 O.2       2 UNK        -0.5000 
     62 CA          1.9333  -13.6066  -48.1914 C.3       2 UNK         0.1400 
     63 CB          0.6625  -12.7742  -47.9558 C.3       2 UNK        -0.1800 
     64 N           2.6446  -13.0552  -49.3450 N.am      2 UNK        -0.5000 
     65 C           3.7729  -13.5295  -49.8889 C.2       1 UNK         0.5000 
     66 O           4.4015  -14.4778  -49.4193 O.2       1 UNK        -0.5000 
     67 C          -1.1958  -22.4753  -48.2205 C.2       11 UNK         0.5000 
     68 O          -1.1861  -23.4327  -48.9929 O.2       11 UNK        -0.5000 
     69 N          -2.3193  -21.8826  -47.7889 N.am      12 UNK        -0.5000 
     70 CA         -3.6716  -22.3191  -48.1437 C.3       12 UNK         0.1400 
     71 CB         -4.7025  -21.3152  -47.6113 C.3       12 UNK        -0.1800 
     72 C          -3.9864  -23.7403  -47.6497 C.2       12 UNK         0.5000 
     73 O          -4.5480  -24.5284  -48.4081 O.2       12 UNK        -0.5000 
     74 N          -3.5869  -24.0571  -46.4107 N.am      13 UNK        -0.5000 
     75 CA         -3.7110  -25.3849  -45.8101 C.3       13 UNK         0.1400 
     76 CB         -3.3259  -25.3228  -44.3246 C.3       13 UNK        -0.1800 
     77 C          -2.8809  -26.4471  -46.5522 C.2       13 UNK         0.5000 
     78 O          -3.3994  -27.5277  -46.8338 O.2       13 UNK        -0.5000 
     79 N          -1.6326  -26.1067  -46.9054 N.am      14 UNK        -0.5000 
     80 CA         -0.7354  -26.9451  -47.7064 C.3       14 UNK         0.1400 
     81 CB          0.6621  -26.3087  -47.7458 C.3       14 UNK        -0.1800 
     82 C          -1.2623  -27.1976  -49.1330 C.2       14 UNK         0.5000 
     83 O          -1.1091  -28.3029  -49.6534 O.2       14 UNK        -0.5000 
     84 N          -1.9102  -26.1826  -49.7186 N.am      15 UNK        -0.5000 
     85 CA         -2.5928  -26.2443  -51.0112 C.3       15 UNK         0.1400 
     86 CB         -2.7044  -24.8182  -51.5739 C.3       15 UNK        -0.1800 
     87 C          -3.9864  -26.9052  -50.9486 C.2       15 UNK         0.5000 
     88 O          -4.6378  -27.0096  -51.9878 O.2       15 UNK        -0.5000 
     89 N          -4.4475  -27.2987  -49.7505 N.am      16 UNK        -0.5000 
     90 CA         -5.7644  -27.8770  -49.4510 C.3       16 UNK         0.1400 
     91 CB         -5.8733  -29.2998  -50.0370 C.3       16 UNK        -0.1800 
     92 C          -6.9382  -26.9621  -49.8694 C.2       16 UNK         0.5000 
     93 O          -7.9810  -27.4500  -50.3082 O.2       16 UNK        -0.5000 
     94 N          -6.7212  -25.6441  -49.7501 N.am      17 UNK        -0.5000 
     95 CA         -7.5937  -24.5320  -50.1386 C.3       17 UNK         0.1400 
     96 CB         -8.9003  -24.5463  -49.3192 C.3       17 UNK        -0.1800 
     97 C          -7.8521  -24.4108  -51.6577 C.2       17 UNK         0.5000 
     98 O          -8.7061  -23.6177  -52.0573 O.2       17 UNK        -0.5000 
     99 N          -7.1116  -25.1608  -52.4879 N.am      18 UNK        -0.5000 
    100 CA        -7.2208  -25.1247  -53.9493 C.3       18 UNK         0.1400 
    101 CB        -6.7578  -26.4736  -54.5214 C.3       18 UNK        -0.1800 
    102 C         -6.4216  -23.9681  -54.5817 C.2       18 UNK         0.5000 
    103 O         -6.6350  -23.6586  -55.7548 O.2       18 UNK        -0.5000 
    104 N         -5.5186  -23.3554  -53.8088 N.am      19 UNK        -0.5000 
    105 CA        -4.6654  -22.2391  -54.1972 C.3       19 UNK         0.1400 
    106 CB        -3.4603  -22.7579  -55.0087 C.3       19 UNK        -0.1800 
    107 C         -4.2288  -21.4803  -52.9325 C.2       19 UNK         0.5000 
    108 O         -4.6154  -21.8598  -51.8229 O.2       19 UNK        -0.5000 
    109 N         -3.4232  -20.4293  -53.1343 N.am      20 UNK        -0.5000 
    110 CA        -2.8862  -19.5170  -52.1221 C.3       20 UNK         0.1400 
    111 CB        -1.9210  -20.2464  -51.1631 C.3       20 UNK        -0.1800 
    112 C         -3.9919  -18.6940  -51.4271 C.2       20 UNK         0.5000 
    113 O         -4.8911  -18.2116  -52.1186 O.2       20 UNK        -0.5000 
    114 N         -3.8743  -18.4933  -50.1039 N.am      21 UNK        -0.5000 
    115 CA        -4.6934  -17.5989  -49.2705 C.3       21 UNK         0.1400 
    116 CB        -6.1612  -18.0758  -49.2124 C.3       21 UNK        -0.1800 
    117 C         -4.5608  -16.1163  -49.6905 C.2       21 UNK         0.5000 
    118 O         -5.5312  -15.3594  -49.6233 O.2       21 UNK        -0.5000 
    119 N         -3.3584  -15.7439  -50.1467 N.am      22 UNK        -0.5000 
    120 CA        -2.9923  -14.4010  -50.6134 C.3       22 UNK         0.1400 
    121 C         -2.9459  -13.3212  -49.4921 C.2       22 UNK         0.5000 
    122 N         -2.9533  -12.0456  -49.8570 N.am      22 UNK        -0.7600 
    123 O         -2.8913  -13.6156  -48.3012 O.2       22 UNK        -0.5000 
    124 C124       -1.6915  -14.4391  -51.4612 C.3       23 UNK        -0.0398 
    125 S125       -0.2661  -15.2336  -50.6339 S.3       23 UNK        -0.2404 
    126 C126        0.2502  -16.4496  -51.8833 C.3       23 UNK        -0.0205 
    127 H127        1.2799  -10.7446  -53.7954 H         1 UNK         0.0600 
    128 H128        0.2215  -11.8351  -52.8944 H         1 UNK         0.0600 
    129 H129        1.4441  -12.4938  -53.9841 H         1 UNK         0.0600 
    130 H130        3.2796  -13.2151  -52.9602 H         1 UNK         0.3000 
    131 H131        4.5865  -11.8198  -50.8134 H         1 UNK         0.0600 
    132 H132        6.2618  -13.7733  -51.0336 H         1 UNK         0.0800 
    133 H133        6.0746  -12.6782  -52.3500 H         1 UNK         0.0800 
    134 H134        5.9484  -17.0390  -52.5131 H         1 UNK         0.0800 
    135 H135        5.9201  -16.0945  -51.0497 H         1 UNK         0.0800 
    136 H136        2.7023  -15.4618  -52.3878 H         1 UNK         0.1150 
    137 H137        0.7501  -18.8153  -50.6169 H         1 UNK         0.1150 
    138 H138        5.0306  -18.6333  -50.6735 H         1 UNK         0.1150 
    139 H139        2.4806  -20.9855  -50.4873 H         1 UNK         0.0800 
    140 H140        4.0261  -20.5581  -49.8204 H         1 UNK         0.0800 
    141 H141        0.4232  -20.8311  -49.5273 H         1 UNK         0.0800 
    142 H142       -0.0491  -19.8149  -48.1927 H         1 UNK         0.0800 
    143 H143        0.8897  -22.7100  -47.8570 H         1 UNK         0.0600 
    144 H144        0.2357  -20.7649  -45.9021 H         1 UNK         0.3000 
    145 H145       -0.8950  -23.0315  -43.3485 H         1 UNK         0.0600 
    146 H146        0.8051  -21.7284  -42.0970 H         1 UNK         0.0600 
    147 H147        1.5716  -22.9057  -43.1523 H         1 UNK         0.0600 
    148 H148        1.5527  -21.2085  -43.6050 H         1 UNK         0.0600 
    149 H149       -0.7663  -20.1876  -43.4166 H         1 UNK         0.3000 
    150 H150       -4.0443  -19.6673  -44.8169 H         1 UNK         0.0600 
    151 H151       -4.3987  -20.0756  -42.3828 H         1 UNK         0.0600 
    152 H152       -4.2975  -18.3576  -42.7351 H         1 UNK         0.0600 
    153 H153       -2.9262  -19.1910  -42.0062 H         1 UNK         0.0600 
    154 H154       -2.0787  -17.8194  -43.9172 H         1 UNK         0.3000 
    155 H155       -0.2683  -17.5600  -47.0068 H         1 UNK         0.0600 
    156 H156       -2.2518  -16.0516  -47.1922 H         1 UNK         0.0600 
    157 H157       -0.8234  -15.1885  -46.6493 H         1 UNK         0.0600 
    158 H158       -2.0861  -15.6114  -45.4958 H         1 UNK         0.0600 
    159 H159        0.1370  -16.2406  -44.5343 H         1 UNK         0.3000 
    160 H160        2.1838  -18.7759  -42.9968 H         1 UNK         0.0600 
    161 H161        2.7283  -15.9046  -43.8907 H         1 UNK         0.0600 
    162 H162        3.6133  -17.3084  -44.4689 H         1 UNK         0.0600 
    163 H163        3.6816  -16.8664  -42.7687 H         1 UNK         0.0600 
    164 H164        1.0894  -16.2299  -42.1486 H         1 UNK         0.3000 
    165 H165       -1.7331  -17.5899  -40.4623 H         1 UNK         0.0600 
    166 H166       -0.6738  -16.5098  -38.4984 H         1 UNK         0.0600 
    167 H167        0.1433  -18.0194  -38.8696 H         1 UNK         0.0600 
    168 H168        0.8899  -16.4894  -39.3148 H         1 UNK         0.0600 
    169 H169       -0.6001  -14.9627  -40.5696 H         1 UNK         0.3000 
    170 H170       -2.2302  -13.8744  -43.5413 H         1 UNK         0.0600 
    171 H171       -3.9569  -13.6757  -41.7441 H         1 UNK         0.0600 
    172 H172       -2.7209  -13.1791  -40.5945 H         1 UNK         0.0600 
    173 H173       -3.1037  -12.1593  -41.9820 H         1 UNK         0.0600 
    174 H174       -0.5882  -12.4829  -41.6942 H         1 UNK         0.3000 
    175 H175        1.4810  -11.7354  -42.5923 H         1 UNK         0.0600 
    176 H176        2.7069  -14.3971  -41.6282 H         1 UNK         0.0600 
    177 H177        3.3163  -12.7917  -41.2372 H         1 UNK         0.0600 
    178 H178        1.7538  -13.3059  -40.6280 H         1 UNK         0.0600 
    179 H179        2.4176  -13.6458  -44.5407 H         1 UNK         0.3000 
    180 H180        4.9571  -11.4221  -45.7359 H         1 UNK         0.0600 
    181 H181        5.0317  -14.3983  -45.0188 H         1 UNK         0.0600 
    182 H182        6.1898  -13.1733  -44.5289 H         1 UNK         0.0600 
    183 H183        6.0462  -13.6094  -46.2256 H         1 UNK         0.0600 
    184 H184        3.5409  -11.8608  -47.3453 H         1 UNK         0.3000 
    185 H185        1.6437  -14.6304  -48.4350 H         1 UNK         0.0600 
    186 H186        0.8964  -11.7242  -47.7766 H         1 UNK         0.0600 
    187 H187       -0.0060  -12.8223  -48.8146 H         1 UNK         0.0600 
    188 H188        0.1067  -13.1342  -47.0898 H         1 UNK         0.0600 
    189 H189        2.2148  -12.2588  -49.8062 H         1 UNK         0.3000 
    190 H190       -2.2467  -21.0675  -47.1870 H         1 UNK         0.3000 
    191 H191       -3.7442  -22.3290  -49.2321 H         1 UNK         0.0600 
    192 H192       -4.7574  -21.3250  -46.5235 H         1 UNK         0.0600 
    193 H193       -5.6985  -21.5449  -47.9916 H         1 UNK         0.0600 
    194 H194       -4.4580  -20.3009  -47.9212 H         1 UNK         0.0600 
    195 H195       -3.1915  -23.3262  -45.8242 H         1 UNK         0.3000 
    196 H196       -4.7604  -25.6797  -45.8749 H         1 UNK         0.0600 
    197 H197       -3.4391  -26.2986  -43.8508 H         1 UNK         0.0600 
    198 H198       -3.9610  -24.6219  -43.7825 H         1 UNK         0.0600 
    199 H199       -2.2910  -25.0093  -44.1879 H         1 UNK         0.0600 
    200 H200       -1.2647  -25.2094  -46.6005 H         1 UNK         0.3000 
    201 H201       -0.6535  -27.9134  -47.2085 H         1 UNK         0.0600 
    202 H202        1.0719  -26.1959  -46.7420 H         1 UNK         0.0600 
    203 H203        0.6428  -25.3228  -48.2108 H         1 UNK         0.0600 
    204 H204        1.3576  -26.9271  -48.3143 H         1 UNK         0.0600 
    205 H205       -1.9276  -25.2838  -49.2464 H         1 UNK         0.3000 
    206 H206       -1.9865  -26.8347  -51.7009 H         1 UNK         0.0600 
    207 H207       -1.7230  -24.3569  -51.6851 H         1 UNK         0.0600 
    208 H208       -3.1752  -24.8209  -52.5567 H         1 UNK         0.0600 
    209 H209       -3.3023  -24.1774  -50.9254 H         1 UNK         0.0600 
    210 H210       -3.8555  -27.1429  -48.9440 H         1 UNK         0.3000 
    211 H211       -5.8194  -27.9611  -48.3648 H         1 UNK         0.0600 
    212 H212       -5.8820  -29.2889  -51.1273 H         1 UNK         0.0600 
    213 H213       -6.7896  -29.7904  -49.7071 H         1 UNK         0.0600 
    214 H214       -5.0391  -29.9227  -49.7142 H         1 UNK         0.0600 
    215 H215       -5.8292  -25.3537  -49.3490 H         1 UNK         0.3000 
    216 H216       -7.0479  -23.6281  -49.8634 H         1 UNK         0.0600 
    217 H217       -9.4758  -23.6345  -49.4825 H         1 UNK         0.0600 
    218 H218       -8.6944  -24.6097  -48.2507 H         1 UNK         0.0600 
    219 H219       -9.5397  -25.3869  -49.5894 H         1 UNK         0.0600 
    220 H220       -6.4206  -25.7952  -52.1031 H         1 UNK         0.3000 
    221 H221       -8.2692  -24.9891  -54.2230 H         1 UNK         0.0600 
    222 H222       -5.6899  -26.6314  -54.3689 H         1 UNK         0.0600 
    223 H223       -7.2907  -27.3049  -54.0594 H         1 UNK         0.0600 
    224 H224       -6.9429  -26.5243  -55.5950 H         1 UNK         0.0600 
    225 H225       -5.4493  -23.6101  -52.8320 H         1 UNK         0.3000 
    226 H226       -5.2459  -21.5472  -54.8109 H         1 UNK         0.0600 
    227 H227       -3.7825  -23.3349  -55.8755 H         1 UNK         0.0600 
    228 H228       -2.8504  -21.9366  -55.3853 H         1 UNK         0.0600 
    229 H229       -2.8133  -23.3960  -54.4069 H         1 UNK         0.0600 
    230 H230       -3.1967  -20.1854  -54.0878 H         1 UNK         0.3000 
    231 H231       -2.2928  -18.7869  -52.6736 H         1 UNK         0.0600 
    232 H232       -1.1232  -20.7422  -51.7163 H         1 UNK         0.0600 
    233 H233       -2.4309  -21.0056  -50.5741 H         1 UNK         0.0600 
    234 H234       -1.4469  -19.5508  -50.4718 H         1 UNK         0.0600 
    235 H235       -3.1126  -18.9497  -49.6225 H         1 UNK         0.3000 
    236 H236       -4.2860  -17.6665  -48.2605 H         1 UNK         0.0600 
    237 H237       -6.7177  -17.5267  -48.4522 H         1 UNK         0.0600 
    238 H238       -6.6750  -17.9252  -50.1621 H         1 UNK         0.0600 
    239 H239       -6.2310  -19.1336  -48.9634 H         1 UNK         0.0600 
    240 H240       -2.6063  -16.4149  -50.1316 H         1 UNK         0.3000 
    241 H241       -3.7956  -14.0870  -51.2830 H         1 UNK         0.0600 
    242 H242       -2.9204  -11.3378  -49.1403 H         1 UNK         0.3800 
    243 H243       -3.0105  -11.7658  -50.8236 H         1 UNK         0.3800 
    244 H244       -1.8991  -14.9691  -52.3916 H         1 UNK         0.0800 
    245 H245       -1.3945  -13.4347  -51.7657 H         1 UNK         0.0800 
    246 H246        0.3202  -15.9636  -52.8578 H         1 UNK         0.0800 
    247 H247       -0.5135  -17.2221  -51.9757 H         1 UNK         0.0800 
@<TRIPOS>BOND
     1    1    2 1    
     2    1  127 1    
     3    1  128 1    
     4    1  129 1    
     5    2    3 2    
     6    2    4 am   BACKBONE|DICT|INTERRES
     7    4    5 1    
     8    4  130 1    
     9    5    6 1    
    10    5   65 1    
    11    5  131 1    
    12    6    7 1    
    13    6  132 1    
    14    6  133 1    
    15    7    8 1    
    16    8    9 1    
    17    8  134 1    
    18    8  135 1    
    19    9   10 ar   
    20    9   14 ar   
    21   10   11 ar   
    22   10  136 1    
    23   11   12 ar   
    24   11  126 1    
    25   12   13 ar   
    26   12  137 1    
    27   13   14 ar   
    28   13   15 1    
    29   14  138 1    
    30   15   16 1    
    31   15  139 1    
    32   15  140 1    
    33   16   17 1    
    34   17   18 1    
    35   17  141 1    
    36   17  142 1    
    37   18   19 1    
    38   18   67 1    
    39   18  143 1    
    40   19   20 am   BACKBONE|DICT|INTERRES
    41   19  144 1    
    42   20   21 2    
    43   20   22 1    
    44   22   23 1    
    45   22   24 1    
    46   22  145 1    
    47   23  146 1    
    48   23  147 1    
    49   23  148 1    
    50   24   25 am   BACKBONE|DICT|INTERRES
    51   24  149 1    
    52   25   26 2    
    53   25   27 1    
    54   27   28 1    
    55   27   29 1    
    56   27  150 1    
    57   28  151 1    
    58   28  152 1    
    59   28  153 1    
    60   29   30 am   BACKBONE|DICT|INTERRES
    61   29  154 1    
    62   30   31 2    
    63   30   32 1    
    64   32   33 1    
    65   32   34 1    
    66   32  155 1    
    67   33  156 1    
    68   33  157 1    
    69   33  158 1    
    70   34   35 am   BACKBONE|DICT|INTERRES
    71   34  159 1    
    72   35   36 2    
    73   35   37 1    
    74   37   38 1    
    75   37   39 1    
    76   37  160 1    
    77   38  161 1    
    78   38  162 1    
    79   38  163 1    
    80   39   40 am   BACKBONE|DICT|INTERRES
    81   39  164 1    
    82   40   41 2    
    83   40   42 1    
    84   42   43 1    
    85   42   44 1    
    86   42  165 1    
    87   43  166 1    
    88   43  167 1    
    89   43  168 1    
    90   44   45 am   BACKBONE|DICT|INTERRES
    91   44  169 1    
    92   45   46 2    
    93   45   47 1    
    94   47   48 1    
    95   47   49 1    
    96   47  170 1    
    97   48  171 1    
    98   48  172 1    
    99   48  173 1    
   100   49   50 am   BACKBONE|DICT|INTERRES
   101   49  174 1    
   102   50   51 2    
   103   50   52 1    
   104   52   53 1    
   105   52   54 1    
   106   52  175 1    
   107   53  176 1    
   108   53  177 1    
   109   53  178 1    
   110   54   55 am   BACKBONE|DICT|INTERRES
   111   54  179 1    
   112   55   56 2    
   113   55   57 1    
   114   57   58 1    
   115   57   59 1    
   116   57  180 1    
   117   58  181 1    
   118   58  182 1    
   119   58  183 1    
   120   59   60 am   BACKBONE|DICT|INTERRES
   121   59  184 1    
   122   60   61 2    
   123   60   62 1    
   124   62   63 1    
   125   62   64 1    
   126   62  185 1    
   127   63  186 1    
   128   63  187 1    
   129   63  188 1    
   130   64   65 am   BACKBONE|DICT|INTERRES
   131   64  189 1    
   132   65   66 2    
   133   67   68 2    
   134   67   69 am   BACKBONE|DICT|INTERRES
   135   69   70 1    
   136   69  190 1    
   137   70   71 1    
   138   70   72 1    
   139   70  191 1    
   140   71  192 1    
   141   71  193 1    
   142   71  194 1    
   143   72   73 2    
   144   72   74 am   BACKBONE|DICT|INTERRES
   145   74   75 1    
   146   74  195 1    
   147   75   76 1    
   148   75   77 1    
   149   75  196 1    
   150   76  197 1    
   151   76  198 1    
   152   76  199 1    
   153   77   78 2    
   154   77   79 am   BACKBONE|DICT|INTERRES
   155   79   80 1    
   156   79  200 1    
   157   80   81 1    
   158   80   82 1    
   159   80  201 1    
   160   81  202 1    
   161   81  203 1    
   162   81  204 1    
   163   82   83 2    
   164   82   84 am   BACKBONE|DICT|INTERRES
   165   84   85 1    
   166   84  205 1    
   167   85   86 1    
   168   85   87 1    
   169   85  206 1    
   170   86  207 1    
   171   86  208 1    
   172   86  209 1    
   173   87   88 2    
   174   87   89 am   BACKBONE|DICT|INTERRES
   175   89   90 1    
   176   89  210 1    
   177   90   91 1    
   178   90   92 1    
   179   90  211 1    
   180   91  212 1    
   181   91  213 1    
   182   91  214 1    
   183   92   93 2    
   184   92   94 am   BACKBONE|DICT|INTERRES
   185   94   95 1    
   186   94  215 1    
   187   95   96 1    
   188   95   97 1    
   189   95  216 1    
   190   96  217 1    
   191   96  218 1    
   192   96  219 1    
   193   97   98 2    
   194   97   99 am   BACKBONE|DICT|INTERRES
   195   99  100 1    
   196   99  220 1    
   197  100  101 1    
   198  100  102 1    
   199  100  221 1    
   200  101  222 1    
   201  101  223 1    
   202  101  224 1    
   203  102  103 2    
   204  102  104 am   BACKBONE|DICT|INTERRES
   205  104  105 1    
   206  104  225 1    
   207  105  106 1    
   208  105  107 1    
   209  105  226 1    
   210  106  227 1    
   211  106  228 1    
   212  106  229 1    
   213  107  108 2    
   214  107  109 am   BACKBONE|DICT|INTERRES
   215  109  110 1    
   216  109  230 1    
   217  110  111 1    
   218  110  112 1    
   219  110  231 1    
   220  111  232 1    
   221  111  233 1    
   222  111  234 1    
   223  112  113 2    
   224  112  114 am   BACKBONE|DICT|INTERRES
   225  114  115 1    
   226  114  235 1    
   227  115  116 1    
   228  115  117 1    
   229  115  236 1    
   230  116  237 1    
   231  116  238 1    
   232  116  239 1    
   233  117  118 2    
   234  117  119 am   BACKBONE|DICT|INTERRES
   235  119  120 1    
   236  119  240 1    
   237  120  121 1    
   238  120  124 1    
   239  120  241 1    
   240  121  122 am   BACKBONE|DICT|INTERRES
   241  121  123 2    
   242  122  242 1    
   243  122  243 1    
   244  124  125 1    
   245  124  244 1    
   246  124  245 1    
   247  125  126 1    
   248  126  246 1    
   249  126  247 1    
@<TRIPOS>SUBSTRUCTURE
     1 UNK         1 GROUP             0       ****    0 ROOT    
