@<TRIPOS>MOLECULE
3R540
247   249    1
SMALL
USER_CHARGES


@<TRIPOS>ATOM
      1 CA          5.6398  -15.8774  -47.2817 C.3       0 UNK        -0.1800 
      2 C           4.2940  -15.1687  -47.3105 C.2       0 UNK         0.5000 
      3 O           3.3515  -15.6249  -46.6724 O.2       0 UNK        -0.5000 
      4 N           4.2006  -14.0515  -48.0416 N.am      1 UNK        -0.5000 
      5 CA          2.9861  -13.2336  -48.1903 C.3       1 UNK         0.1400 
      6 C6          3.0264  -12.4465  -49.5293 C.3       23 UNK        -0.0398 
      7 S7          1.3872  -12.1850  -50.2965 S.3       23 UNK        -0.2404 
      8 C8          1.3172  -13.5000  -51.5613 C.3       23 UNK        -0.0205 
      9 C9          0.6102  -14.7413  -51.0378 C.ar      23 UNK        -0.0193 
     10 C10        -0.7267  -14.9868  -51.3736 C.ar      23 UNK        -0.1150 
     11 C11        -1.3933  -16.1075  -50.8669 C.ar      23 UNK        -0.0193 
     12 C12        -0.7169  -16.9666  -49.9984 C.ar      23 UNK        -0.1150 
     13 C13         0.6212  -16.7433  -49.6711 C.ar      23 UNK        -0.0193 
     14 C14         1.2872  -15.6404  -50.2090 C.ar      23 UNK        -0.1150 
     15 C15         1.3244  -17.6818  -48.7099 C.3       23 UNK        -0.0205 
     16 S16         1.6589  -19.2930  -49.4673 S.3       23 UNK        -0.2404 
     17 C17         1.7822  -20.2966  -47.9458 C.3       23 UNK        -0.0398 
     18 CA          0.4975  -21.0139  -47.4176 C.3       11 UNK         0.1400 
     19 N           0.2274  -20.7244  -46.0064 N.am      11 UNK        -0.5000 
     20 C          -0.4486  -21.5592  -45.2037 C.2       10 UNK         0.5000 
     21 O          -0.9029  -22.6425  -45.5760 O.2       10 UNK        -0.5000 
     22 CA         -0.6891  -21.0944  -43.7578 C.3       10 UNK         0.1400 
     23 CB          0.5999  -21.1867  -42.9272 C.3       10 UNK        -0.1800 
     24 N          -1.2261  -19.7372  -43.6808 N.am      10 UNK        -0.5000 
     25 C          -2.4075  -19.3532  -44.1828 C.2       9 UNK         0.5000 
     26 O          -3.1736  -20.1046  -44.7853 O.2       9 UNK        -0.5000 
     27 CA         -2.7860  -17.8738  -44.0033 C.3       9 UNK         0.1400 
     28 CB         -3.3432  -17.6171  -42.5951 C.3       9 UNK        -0.1800 
     29 N          -1.6593  -16.9773  -44.2547 N.am      9 UNK        -0.5000 
     30 C          -1.1157  -16.7714  -45.4617 C.2       8 UNK         0.5000 
     31 O          -1.5044  -17.3200  -46.4900 O.2       8 UNK        -0.5000 
     32 CA          0.0922  -15.8217  -45.5179 C.3       8 UNK         0.1400 
     33 CB         -0.3717  -14.3624  -45.4016 C.3       8 UNK        -0.1800 
     34 N           1.0881  -16.1096  -44.4862 N.am      8 UNK        -0.5000 
     35 C           1.7083  -17.2886  -44.3252 C.2       7 UNK         0.5000 
     36 O           1.5199  -18.2770  -45.0382 O.2       7 UNK        -0.5000 
     37 CA          2.6440  -17.4071  -43.1089 C.3       7 UNK         0.1400 
     38 CB          4.0152  -16.7808  -43.4032 C.3       7 UNK        -0.1800 
     39 N           2.0872  -16.8314  -41.8799 N.am      7 UNK        -0.5000 
     40 C           0.9218  -17.1959  -41.3177 C.2       6 UNK         0.5000 
     41 O           0.1518  -18.0128  -41.8252 O.2       6 UNK        -0.5000 
     42 CA          0.5444  -16.5367  -39.9729 C.3       6 UNK         0.1400 
     43 CB         -0.4363  -17.3897  -39.1412 C.3       6 UNK        -0.1800 
     44 N           1.7067  -16.1458  -39.1706 N.am      6 UNK        -0.5000 
     45 C           2.6750  -16.9420  -38.6870 C.2       5 UNK         0.5000 
     46 O           2.6556  -18.1706  -38.7757 O.2       5 UNK        -0.5000 
     47 CA          3.8746  -16.2482  -37.9976 C.3       5 UNK         0.1400 
     48 CB          5.2036  -16.9894  -38.2546 C.3       5 UNK        -0.1800 
     49 N           4.0125  -14.8206  -38.3227 N.am      5 UNK        -0.5000 
     50 C           4.1913  -14.2826  -39.5377 C.2       4 UNK         0.5000 
     51 O           4.2969  -14.9359  -40.5781 O.2       4 UNK        -0.5000 
     52 CA          4.1866  -12.7449  -39.6026 C.3       4 UNK         0.1400 
     53 CB          5.5822  -12.2121  -39.9611 C.3       4 UNK        -0.1800 
     54 N           3.2199  -12.2443  -40.5799 N.am      4 UNK        -0.5000 
     55 C           1.9065  -12.5186  -40.6116 C.2       3 UNK         0.5000 
     56 O           1.3299  -13.1966  -39.7594 O.2       3 UNK        -0.5000 
     57 CA          1.0958  -11.9370  -41.7893 C.3       3 UNK         0.1400 
     58 CB          0.2060  -10.7794  -41.3112 C.3       3 UNK        -0.1800 
     59 N           1.9400  -11.4627  -42.8902 N.am      3 UNK        -0.5000 
     60 C           2.5635  -12.2651  -43.7612 C.2       2 UNK         0.5000 
     61 O           2.4438  -13.4922  -43.7628 O.2       2 UNK        -0.5000 
     62 CA          3.5321  -11.5733  -44.7384 C.3       2 UNK         0.1400 
     63 CB          4.9289  -11.4649  -44.1058 C.3       2 UNK        -0.1800 
     64 N           3.6480  -12.2987  -46.0003 N.am      2 UNK        -0.5000 
     65 C           2.7220  -12.3173  -46.9684 C.2       1 UNK         0.5000 
     66 O           1.6939  -11.6404  -46.9241 O.2       1 UNK        -0.5000 
     67 C          -0.7871  -20.8994  -48.2755 C.2       11 UNK         0.5000 
     68 O          -0.9348  -21.6781  -49.2165 O.2       11 UNK        -0.5000 
     69 N          -1.7252  -20.0049  -47.9161 N.am      12 UNK        -0.5000 
     70 CA         -3.0416  -19.9180  -48.5587 C.3       12 UNK         0.1400 
     71 CB         -3.8029  -18.6682  -48.0950 C.3       12 UNK        -0.1800 
     72 C          -3.8946  -21.1763  -48.3300 C.2       12 UNK         0.5000 
     73 O          -4.5296  -21.6482  -49.2711 O.2       12 UNK        -0.5000 
     74 N          -3.8646  -21.7241  -47.1066 N.am      13 UNK        -0.5000 
     75 CA         -4.5131  -22.9886  -46.7561 C.3       13 UNK         0.1400 
     76 CB         -4.4511  -23.2028  -45.2367 C.3       13 UNK        -0.1800 
     77 C          -3.9063  -24.1867  -47.5094 C.2       13 UNK         0.5000 
     78 O          -4.6517  -25.0388  -47.9939 O.2       13 UNK        -0.5000 
     79 N          -2.5714  -24.2055  -47.6386 N.am      14 UNK        -0.5000 
     80 CA         -1.8370  -25.1917  -48.4332 C.3       14 UNK         0.1400 
     81 CB         -0.3289  -25.0450  -48.1829 C.3       14 UNK        -0.1800 
     82 C          -2.1606  -25.0973  -49.9368 C.2       14 UNK         0.5000 
     83 O          -2.3413  -26.1308  -50.5799 O.2       14 UNK        -0.5000 
     84 N          -2.2677  -23.8669  -50.4605 N.am      15 UNK        -0.5000 
     85 CA         -2.6846  -23.5814  -51.8327 C.3       15 UNK         0.1400 
     86 CB         -2.4770  -22.0935  -52.1573 C.3       15 UNK        -0.1800 
     87 C          -4.1387  -24.0017  -52.0989 C.2       15 UNK         0.5000 
     88 O          -4.3960  -24.6403  -53.1176 O.2       15 UNK        -0.5000 
     89 N          -5.0533  -23.6774  -51.1733 N.am      16 UNK        -0.5000 
     90 CA         -6.4738  -24.0437  -51.2122 C.3       16 UNK         0.1400 
     91 CB         -7.2089  -23.3813  -50.0381 C.3       16 UNK        -0.1800 
     92 C          -6.7202  -25.5634  -51.2185 C.2       16 UNK         0.5000 
     93 O          -7.6585  -26.0235  -51.8690 O.2       16 UNK        -0.5000 
     94 N          -5.8549  -26.3144  -50.5260 N.am      17 UNK        -0.5000 
     95 CA         -5.8363  -27.7777  -50.5205 C.3       17 UNK         0.1400 
     96 CB         -5.0411  -28.2527  -49.2939 C.3       17 UNK        -0.1800 
     97 C          -5.2608  -28.3937  -51.8154 C.2       17 UNK         0.5000 
     98 O          -5.4047  -29.6010  -52.0155 O.2       17 UNK        -0.5000 
     99 N          -4.6147  -27.5758  -52.6554 N.am      18 UNK        -0.5000 
    100 CA        -3.9763  -27.9595  -53.9082 C.3       18 UNK         0.1400 
    101 CB        -2.4766  -27.6077  -53.8193 C.3       18 UNK        -0.1800 
    102 C         -4.7151  -27.2886  -55.0834 C.2       18 UNK         0.5000 
    103 O         -5.8892  -27.5872  -55.3074 O.2       18 UNK        -0.5000 
    104 N         -4.0188  -26.4211  -55.8304 N.am      19 UNK        -0.5000 
    105 CA        -4.4951  -25.7746  -57.0561 C.3       19 UNK         0.1400 
    106 CB        -3.2746  -25.2475  -57.8285 C.3       19 UNK        -0.1800 
    107 C         -5.5136  -24.6373  -56.8371 C.2       19 UNK         0.5000 
    108 O         -6.1563  -24.2250  -57.8036 O.2       19 UNK        -0.5000 
    109 N         -5.6261  -24.1349  -55.5988 N.am      20 UNK        -0.5000 
    110 CA        -6.4670  -23.0123  -55.1691 C.3       20 UNK         0.1400 
    111 CB        -7.9658  -23.3518  -55.2974 C.3       20 UNK        -0.1800 
    112 C         -6.0750  -21.6753  -55.8283 C.2       20 UNK         0.5000 
    113 O         -6.9422  -20.8654  -56.1614 O.2       20 UNK        -0.5000 
    114 N         -4.7595  -21.4563  -55.9734 N.am      21 UNK        -0.5000 
    115 CA        -4.1493  -20.2711  -56.5871 C.3       21 UNK         0.1400 
    116 CB        -2.6259  -20.4653  -56.6313 C.3       21 UNK        -0.1800 
    117 C         -4.5035  -18.9394  -55.8924 C.2       21 UNK         0.5000 
    118 O         -4.5551  -17.9043  -56.5578 O.2       21 UNK        -0.5000 
    119 N         -4.7648  -18.9974  -54.5808 N.am      22 UNK        -0.5000 
    120 CA        -5.2640  -17.8763  -53.7679 C.3       22 UNK         0.1400 
    121 C         -6.7928  -17.6083  -53.9188 C.2       22 UNK         0.5000 
    122 N         -7.5554  -18.4061  -54.6583 N.am      22 UNK        -0.7600 
    123 O         -7.3013  -16.6411  -53.3586 O.2       22 UNK        -0.5000 
    124 C124       -4.8680  -18.0359  -52.2768 C.3       23 UNK        -0.0398 
    125 S125       -3.0595  -18.0025  -52.0345 S.3       23 UNK        -0.2404 
    126 C126       -2.8473  -16.3802  -51.2284 C.3       23 UNK        -0.0205 
    127 H127        6.0144  -15.9269  -46.2592 H         1 UNK         0.0600 
    128 H128        5.5333  -16.8956  -47.6561 H         1 UNK         0.0600 
    129 H129        6.3825  -15.3649  -47.8934 H         1 UNK         0.0600 
    130 H130        5.0176  -13.7166  -48.5331 H         1 UNK         0.3000 
    131 H131        2.1367  -13.9177  -48.2222 H         1 UNK         0.0600 
    132 H132        3.6507  -12.9677  -50.2558 H         1 UNK         0.0800 
    133 H133        3.5058  -11.4749  -49.3970 H         1 UNK         0.0800 
    134 H134        0.7854  -13.1103  -52.4307 H         1 UNK         0.0800 
    135 H135        2.3157  -13.7571  -51.9166 H         1 UNK         0.0800 
    136 H136       -1.2501  -14.3002  -52.0240 H         1 UNK         0.1150 
    137 H137       -1.2284  -17.8229  -49.5849 H         1 UNK         0.1150 
    138 H138        2.3244  -15.4669  -49.9612 H         1 UNK         0.1150 
    139 H139        2.2616  -17.2550  -48.3555 H         1 UNK         0.0800 
    140 H140        0.6948  -17.8235  -47.8325 H         1 UNK         0.0800 
    141 H141        2.2302  -19.6795  -47.1661 H         1 UNK         0.0800 
    142 H142        2.5412  -21.0536  -48.1485 H         1 UNK         0.0800 
    143 H143        0.7451  -22.0772  -47.4545 H         1 UNK         0.0600 
    144 H144        0.5743  -19.8422  -45.6360 H         1 UNK         0.3000 
    145 H145       -1.4263  -21.7664  -43.3135 H         1 UNK         0.0600 
    146 H146        0.4140  -20.9338  -41.8831 H         1 UNK         0.0600 
    147 H147        1.3697  -20.5112  -43.3007 H         1 UNK         0.0600 
    148 H148        1.0087  -22.1976  -42.9503 H         1 UNK         0.0600 
    149 H149       -0.6698  -19.0561  -43.1693 H         1 UNK         0.3000 
    150 H150       -3.5720  -17.6408  -44.7247 H         1 UNK         0.0600 
    151 H151       -4.2061  -18.2540  -42.3964 H         1 UNK         0.0600 
    152 H152       -3.6695  -16.5832  -42.4819 H         1 UNK         0.0600 
    153 H153       -2.6011  -17.8217  -41.8232 H         1 UNK         0.0600 
    154 H154       -1.2304  -16.5450  -43.4502 H         1 UNK         0.3000 
    155 H155        0.5759  -15.9423  -46.4876 H         1 UNK         0.0600 
    156 H156       -1.1371  -14.1343  -46.1446 H         1 UNK         0.0600 
    157 H157        0.4545  -13.6757  -45.5734 H         1 UNK         0.0600 
    158 H158       -0.7885  -14.1449  -44.4176 H         1 UNK         0.0600 
    159 H159        1.3880  -15.3287  -43.9139 H         1 UNK         0.3000 
    160 H160        2.7977  -18.4714  -42.9216 H         1 UNK         0.0600 
    161 H161        4.7171  -16.9679  -42.5905 H         1 UNK         0.0600 
    162 H162        3.9442  -15.7017  -43.5414 H         1 UNK         0.0600 
    163 H163        4.4482  -17.1987  -44.3130 H         1 UNK         0.0600 
    164 H164        2.6701  -16.1538  -41.4016 H         1 UNK         0.3000 
    165 H165        0.0309  -15.6099  -40.2313 H         1 UNK         0.0600 
    166 H166       -0.6803  -16.9025  -38.1972 H         1 UNK         0.0600 
    167 H167       -1.3739  -17.5426  -39.6761 H         1 UNK         0.0600 
    168 H168       -0.0267  -18.3746  -38.9156 H         1 UNK         0.0600 
    169 H169        1.8205  -15.1438  -39.0626 H         1 UNK         0.3000 
    170 H170        3.6720  -16.2971  -36.9269 H         1 UNK         0.0600 
    171 H171        5.4341  -17.0503  -39.3187 H         1 UNK         0.0600 
    172 H172        6.0362  -16.4903  -37.7589 H         1 UNK         0.0600 
    173 H173        5.1654  -18.0095  -37.8708 H         1 UNK         0.0600 
    174 H174        3.9084  -14.1934  -37.5368 H         1 UNK         0.3000 
    175 H175        3.9045  -12.3454  -38.6264 H         1 UNK         0.0600 
    176 H176        5.9003  -12.5509  -40.9482 H         1 UNK         0.0600 
    177 H177        5.6032  -11.1222  -39.9571 H         1 UNK         0.0600 
    178 H178        6.3270  -12.5538  -39.2412 H         1 UNK         0.0600 
    179 H179        3.5977  -11.6951  -41.3354 H         1 UNK         0.3000 
    180 H180        0.4477  -12.7327  -42.1632 H         1 UNK         0.0600 
    181 H181       -0.4186  -10.4017  -42.1210 H         1 UNK         0.0600 
    182 H182        0.7982   -9.9482  -40.9264 H         1 UNK         0.0600 
    183 H183       -0.4623  -11.1038  -40.5123 H         1 UNK         0.0600 
    184 H184        2.0838  -10.4644  -42.9474 H         1 UNK         0.3000 
    185 H185        3.1642  -10.5668  -44.9492 H         1 UNK         0.0600 
    186 H186        5.3360  -12.4466  -43.8586 H         1 UNK         0.0600 
    187 H187        5.6300  -10.9708  -44.7788 H         1 UNK         0.0600 
    188 H188        4.9005  -10.8806  -43.1854 H         1 UNK         0.0600 
    189 H189        4.4338  -12.9248  -46.0895 H         1 UNK         0.3000 
    190 H190       -1.5475  -19.3616  -47.1535 H         1 UNK         0.3000 
    191 H191       -2.8773  -19.8267  -49.6337 H         1 UNK         0.0600 
    192 H192       -3.9590  -18.6668  -47.0165 H         1 UNK         0.0600 
    193 H193       -4.7834  -18.6113  -48.5694 H         1 UNK         0.0600 
    194 H194       -3.2688  -17.7572  -48.3589 H         1 UNK         0.0600 
    195 H195       -3.3709  -21.2414  -46.3612 H         1 UNK         0.3000 
    196 H196       -5.5638  -22.9145  -47.0429 H         1 UNK         0.0600 
    197 H197       -4.9495  -22.3920  -44.7050 H         1 UNK         0.0600 
    198 H198       -3.4237  -23.2550  -44.8763 H         1 UNK         0.0600 
    199 H199       -4.9470  -24.1319  -44.9530 H         1 UNK         0.0600 
    200 H200       -2.0265  -23.4902  -47.1705 H         1 UNK         0.3000 
    201 H201       -2.1402  -26.1832  -48.0903 H         1 UNK         0.0600 
    202 H202       -0.0949  -25.1141  -47.1204 H         1 UNK         0.0600 
    203 H203        0.0513  -24.0923  -48.5496 H         1 UNK         0.0600 
    204 H204        0.2261  -25.8340  -48.6917 H         1 UNK         0.0600 
    205 H205       -2.0251  -23.0656  -49.8833 H         1 UNK         0.3000 
    206 H206       -2.0446  -24.1622  -52.5001 H         1 UNK         0.0600 
    207 H207       -1.4347  -21.8029  -52.0247 H         1 UNK         0.0600 
    208 H208       -2.7446  -21.8777  -53.1923 H         1 UNK         0.0600 
    209 H209       -3.0839  -21.4489  -51.5221 H         1 UNK         0.0600 
    210 H210       -4.7633  -23.0974  -50.3883 H         1 UNK         0.3000 
    211 H211       -6.8991  -23.6458  -52.1327 H         1 UNK         0.0600 
    212 H212       -6.8138  -23.7133  -49.0781 H         1 UNK         0.0600 
    213 H213       -8.2727  -23.6213  -50.0564 H         1 UNK         0.0600 
    214 H214       -7.1207  -22.2956  -50.0797 H         1 UNK         0.0600 
    215 H215       -5.1457  -25.8492  -49.9711 H         1 UNK         0.3000 
    216 H216       -6.8627  -28.1359  -50.4182 H         1 UNK         0.0600 
    217 H217       -5.0410  -29.3410  -49.2229 H         1 UNK         0.0600 
    218 H218       -5.4732  -27.8671  -48.3702 H         1 UNK         0.0600 
    219 H219       -4.0018  -27.9261  -49.3380 H         1 UNK         0.0600 
    220 H220       -4.5856  -26.5857  -52.4424 H         1 UNK         0.3000 
    221 H221       -4.0560  -29.0365  -54.0668 H         1 UNK         0.0600 
    222 H222       -2.3146  -26.5430  -53.6459 H         1 UNK         0.0600 
    223 H223       -2.0040  -28.1436  -52.9958 H         1 UNK         0.0600 
    224 H224       -1.9457  -27.8905  -54.7292 H         1 UNK         0.0600 
    225 H225       -3.0680  -26.2182  -55.5589 H         1 UNK         0.3000 
    226 H226       -4.9858  -26.5318  -57.6713 H         1 UNK         0.0600 
    227 H227       -2.5789  -26.0527  -58.0655 H         1 UNK         0.0600 
    228 H228       -3.5740  -24.7924  -58.7737 H         1 UNK         0.0600 
    229 H229       -2.7334  -24.4914  -57.2581 H         1 UNK         0.0600 
    230 H230       -5.0596  -24.5460  -54.8601 H         1 UNK         0.3000 
    231 H231       -6.2576  -22.8693  -54.1112 H         1 UNK         0.0600 
    232 H232       -8.5828  -22.5733  -54.8472 H         1 UNK         0.0600 
    233 H233       -8.2007  -24.2861  -54.7868 H         1 UNK         0.0600 
    234 H234       -8.2734  -23.4505  -56.3386 H         1 UNK         0.0600 
    235 H235       -4.1252  -22.1833  -55.6778 H         1 UNK         0.3000 
    236 H236       -4.5168  -20.2093  -57.6134 H         1 UNK         0.0600 
    237 H237       -2.2042  -20.5649  -55.6302 H         1 UNK         0.0600 
    238 H238       -2.3569  -21.3554  -57.2005 H         1 UNK         0.0600 
    239 H239       -2.1372  -19.6155  -57.1098 H         1 UNK         0.0600 
    240 H240       -4.6896  -19.8883  -54.1152 H         1 UNK         0.3000 
    241 H241       -4.7822  -16.9657  -54.1294 H         1 UNK         0.0600 
    242 H242       -8.5384  -18.2012  -54.7409 H         1 UNK         0.3800 
    243 H243       -7.1742  -19.2036  -55.1572 H         1 UNK         0.3800 
    244 H244       -5.3170  -17.2497  -51.6674 H         1 UNK         0.0800 
    245 H245       -5.2520  -18.9769  -51.8792 H         1 UNK         0.0800 
    246 H246       -3.4495  -16.3410  -50.3201 H         1 UNK         0.0800 
    247 H247       -3.2313  -15.6034  -51.8915 H         1 UNK         0.0800 
@<TRIPOS>BOND
     1    1    2 1    
     2    1  127 1    
     3    1  128 1    
     4    1  129 1    
     5    2    3 2    
     6    2    4 am   BACKBONE|DICT|INTERRES
     7    4    5 1    
     8    4  130 1    
     9    5    6 1    
    10    5   65 1    
    11    5  131 1    
    12    6    7 1    
    13    6  132 1    
    14    6  133 1    
    15    7    8 1    
    16    8    9 1    
    17    8  134 1    
    18    8  135 1    
    19    9   10 ar   
    20    9   14 ar   
    21   10   11 ar   
    22   10  136 1    
    23   11   12 ar   
    24   11  126 1    
    25   12   13 ar   
    26   12  137 1    
    27   13   14 ar   
    28   13   15 1    
    29   14  138 1    
    30   15   16 1    
    31   15  139 1    
    32   15  140 1    
    33   16   17 1    
    34   17   18 1    
    35   17  141 1    
    36   17  142 1    
    37   18   19 1    
    38   18   67 1    
    39   18  143 1    
    40   19   20 am   BACKBONE|DICT|INTERRES
    41   19  144 1    
    42   20   21 2    
    43   20   22 1    
    44   22   23 1    
    45   22   24 1    
    46   22  145 1    
    47   23  146 1    
    48   23  147 1    
    49   23  148 1    
    50   24   25 am   BACKBONE|DICT|INTERRES
    51   24  149 1    
    52   25   26 2    
    53   25   27 1    
    54   27   28 1    
    55   27   29 1    
    56   27  150 1    
    57   28  151 1    
    58   28  152 1    
    59   28  153 1    
    60   29   30 am   BACKBONE|DICT|INTERRES
    61   29  154 1    
    62   30   31 2    
    63   30   32 1    
    64   32   33 1    
    65   32   34 1    
    66   32  155 1    
    67   33  156 1    
    68   33  157 1    
    69   33  158 1    
    70   34   35 am   BACKBONE|DICT|INTERRES
    71   34  159 1    
    72   35   36 2    
    73   35   37 1    
    74   37   38 1    
    75   37   39 1    
    76   37  160 1    
    77   38  161 1    
    78   38  162 1    
    79   38  163 1    
    80   39   40 am   BACKBONE|DICT|INTERRES
    81   39  164 1    
    82   40   41 2    
    83   40   42 1    
    84   42   43 1    
    85   42   44 1    
    86   42  165 1    
    87   43  166 1    
    88   43  167 1    
    89   43  168 1    
    90   44   45 am   BACKBONE|DICT|INTERRES
    91   44  169 1    
    92   45   46 2    
    93   45   47 1    
    94   47   48 1    
    95   47   49 1    
    96   47  170 1    
    97   48  171 1    
    98   48  172 1    
    99   48  173 1    
   100   49   50 am   BACKBONE|DICT|INTERRES
   101   49  174 1    
   102   50   51 2    
   103   50   52 1    
   104   52   53 1    
   105   52   54 1    
   106   52  175 1    
   107   53  176 1    
   108   53  177 1    
   109   53  178 1    
   110   54   55 am   BACKBONE|DICT|INTERRES
   111   54  179 1    
   112   55   56 2    
   113   55   57 1    
   114   57   58 1    
   115   57   59 1    
   116   57  180 1    
   117   58  181 1    
   118   58  182 1    
   119   58  183 1    
   120   59   60 am   BACKBONE|DICT|INTERRES
   121   59  184 1    
   122   60   61 2    
   123   60   62 1    
   124   62   63 1    
   125   62   64 1    
   126   62  185 1    
   127   63  186 1    
   128   63  187 1    
   129   63  188 1    
   130   64   65 am   BACKBONE|DICT|INTERRES
   131   64  189 1    
   132   65   66 2    
   133   67   68 2    
   134   67   69 am   BACKBONE|DICT|INTERRES
   135   69   70 1    
   136   69  190 1    
   137   70   71 1    
   138   70   72 1    
   139   70  191 1    
   140   71  192 1    
   141   71  193 1    
   142   71  194 1    
   143   72   73 2    
   144   72   74 am   BACKBONE|DICT|INTERRES
   145   74   75 1    
   146   74  195 1    
   147   75   76 1    
   148   75   77 1    
   149   75  196 1    
   150   76  197 1    
   151   76  198 1    
   152   76  199 1    
   153   77   78 2    
   154   77   79 am   BACKBONE|DICT|INTERRES
   155   79   80 1    
   156   79  200 1    
   157   80   81 1    
   158   80   82 1    
   159   80  201 1    
   160   81  202 1    
   161   81  203 1    
   162   81  204 1    
   163   82   83 2    
   164   82   84 am   BACKBONE|DICT|INTERRES
   165   84   85 1    
   166   84  205 1    
   167   85   86 1    
   168   85   87 1    
   169   85  206 1    
   170   86  207 1    
   171   86  208 1    
   172   86  209 1    
   173   87   88 2    
   174   87   89 am   BACKBONE|DICT|INTERRES
   175   89   90 1    
   176   89  210 1    
   177   90   91 1    
   178   90   92 1    
   179   90  211 1    
   180   91  212 1    
   181   91  213 1    
   182   91  214 1    
   183   92   93 2    
   184   92   94 am   BACKBONE|DICT|INTERRES
   185   94   95 1    
   186   94  215 1    
   187   95   96 1    
   188   95   97 1    
   189   95  216 1    
   190   96  217 1    
   191   96  218 1    
   192   96  219 1    
   193   97   98 2    
   194   97   99 am   BACKBONE|DICT|INTERRES
   195   99  100 1    
   196   99  220 1    
   197  100  101 1    
   198  100  102 1    
   199  100  221 1    
   200  101  222 1    
   201  101  223 1    
   202  101  224 1    
   203  102  103 2    
   204  102  104 am   BACKBONE|DICT|INTERRES
   205  104  105 1    
   206  104  225 1    
   207  105  106 1    
   208  105  107 1    
   209  105  226 1    
   210  106  227 1    
   211  106  228 1    
   212  106  229 1    
   213  107  108 2    
   214  107  109 am   BACKBONE|DICT|INTERRES
   215  109  110 1    
   216  109  230 1    
   217  110  111 1    
   218  110  112 1    
   219  110  231 1    
   220  111  232 1    
   221  111  233 1    
   222  111  234 1    
   223  112  113 2    
   224  112  114 am   BACKBONE|DICT|INTERRES
   225  114  115 1    
   226  114  235 1    
   227  115  116 1    
   228  115  117 1    
   229  115  236 1    
   230  116  237 1    
   231  116  238 1    
   232  116  239 1    
   233  117  118 2    
   234  117  119 am   BACKBONE|DICT|INTERRES
   235  119  120 1    
   236  119  240 1    
   237  120  121 1    
   238  120  124 1    
   239  120  241 1    
   240  121  122 am   BACKBONE|DICT|INTERRES
   241  121  123 2    
   242  122  242 1    
   243  122  243 1    
   244  124  125 1    
   245  124  244 1    
   246  124  245 1    
   247  125  126 1    
   248  126  246 1    
   249  126  247 1    
@<TRIPOS>SUBSTRUCTURE
     1 UNK         1 GROUP             0       ****    0 ROOT    
