@<TRIPOS>MOLECULE
3R540
247   249    1
SMALL
USER_CHARGES


@<TRIPOS>ATOM
      1 CA          3.5804  -15.5646  -44.9348 C.3       0 UNK        -0.1800 
      2 C           2.9148  -14.1981  -44.9018 C.2       0 UNK         0.5000 
      3 O           2.9821  -13.5086  -43.8834 O.2       0 UNK        -0.5000 
      4 N           2.2836  -13.8165  -46.0201 N.am      1 UNK        -0.5000 
      5 CA          1.4146  -12.6400  -46.2033 C.3       1 UNK         0.1400 
      6 C6          0.6388  -12.7057  -47.5449 C.3       23 UNK        -0.0398 
      7 S7         -0.2306  -14.2954  -47.7493 S.3       23 UNK        -0.2404 
      8 C8         -1.6951  -13.8434  -48.7221 C.3       23 UNK        -0.0205 
      9 C9         -2.5694  -15.0677  -48.9479 C.ar      23 UNK        -0.0193 
     10 C10        -2.3911  -15.8729  -50.0785 C.ar      23 UNK        -0.1150 
     11 C11        -3.1798  -17.0129  -50.2669 C.ar      23 UNK        -0.0193 
     12 C12        -4.1395  -17.3494  -49.3101 C.ar      23 UNK        -0.1150 
     13 C13        -4.3237  -16.5594  -48.1764 C.ar      23 UNK        -0.0193 
     14 C14        -3.5441  -15.4123  -48.0070 C.ar      23 UNK        -0.1150 
     15 C15        -5.3573  -16.9450  -47.1312 C.3       23 UNK        -0.0205 
     16 S16        -4.5619  -17.6689  -45.6661 S.3       23 UNK        -0.2404 
     17 C17        -4.6633  -19.4687  -45.9627 C.3       23 UNK        -0.0398 
     18 CA         -3.6573  -20.0615  -46.9880 C.3       11 UNK         0.1400 
     19 N          -2.3035  -19.5060  -46.8927 N.am      11 UNK        -0.5000 
     20 C          -1.3051  -19.7830  -47.7464 C.2       10 UNK         0.5000 
     21 O          -1.4241  -20.5026  -48.7381 O.2       10 UNK        -0.5000 
     22 CA          0.0760  -19.2062  -47.4058 C.3       10 UNK         0.1400 
     23 CB          0.2045  -17.7749  -47.9380 C.3       10 UNK        -0.1800 
     24 N           0.3275  -19.2316  -45.9653 N.am      10 UNK        -0.5000 
     25 C           0.6077  -20.3474  -45.2766 C.2       9 UNK         0.5000 
     26 O           0.7121  -21.4583  -45.7947 O.2       9 UNK        -0.5000 
     27 CA          0.7611  -20.2138  -43.7498 C.3       9 UNK         0.1400 
     28 CB          2.1978  -19.8128  -43.3889 C.3       9 UNK        -0.1800 
     29 N          -0.1713  -19.2558  -43.1567 N.am      9 UNK        -0.5000 
     30 C          -1.5051  -19.3832  -43.1783 C.2       8 UNK         0.5000 
     31 O          -2.0936  -20.3482  -43.6674 O.2       8 UNK        -0.5000 
     32 CA         -2.3222  -18.2166  -42.5936 C.3       8 UNK         0.1400 
     33 CB         -2.5424  -18.4242  -41.0879 C.3       8 UNK        -0.1800 
     34 N          -1.7516  -16.8820  -42.8108 N.am      8 UNK        -0.5000 
     35 C          -1.3470  -16.3608  -43.9814 C.2       7 UNK         0.5000 
     36 O          -1.2903  -16.9946  -45.0331 O.2       7 UNK        -0.5000 
     37 CA         -0.9055  -14.8906  -43.9654 C.3       7 UNK         0.1400 
     38 CB         -2.1184  -13.9925  -44.2820 C.3       7 UNK        -0.1800 
     39 N          -0.2965  -14.5786  -42.6719 N.am      7 UNK        -0.5000 
     40 C           0.0671  -13.3965  -42.1670 C.2       6 UNK         0.5000 
     41 O          -0.0480  -12.3172  -42.7470 O.2       6 UNK        -0.5000 
     42 CA          0.6806  -13.4358  -40.7541 C.3       6 UNK         0.1400 
     43 CB         -0.3261  -13.9574  -39.7091 C.3       6 UNK        -0.1800 
     44 N           1.9519  -14.1659  -40.6816 N.am      6 UNK        -0.5000 
     45 C           2.2066  -15.4625  -40.9194 C.2       5 UNK         0.5000 
     46 O           1.3486  -16.2958  -41.2228 O.2       5 UNK        -0.5000 
     47 CA          3.6886  -15.8646  -40.8326 C.3       5 UNK         0.1400 
     48 CB          3.9925  -17.2466  -41.4395 C.3       5 UNK        -0.1800 
     49 N           4.5040  -14.8342  -41.4734 N.am      5 UNK        -0.5000 
     50 C           5.7625  -14.5204  -41.1412 C.2       4 UNK         0.5000 
     51 O           6.4159  -15.1164  -40.2843 O.2       4 UNK        -0.5000 
     52 CA          6.3867  -13.3164  -41.8716 C.3       4 UNK         0.1400 
     53 CB          7.1316  -13.7705  -43.1361 C.3       4 UNK        -0.1800 
     54 N           5.3828  -12.3195  -42.2426 N.am      4 UNK        -0.5000 
     55 C           4.7941  -11.4643  -41.3952 C.2       3 UNK         0.5000 
     56 O           5.0879  -11.3801  -40.2022 O.2       3 UNK        -0.5000 
     57 CA          3.6551  -10.5970  -41.9686 C.3       3 UNK         0.1400 
     58 CB          3.5787   -9.1930  -41.3337 C.3       3 UNK        -0.1800 
     59 N           3.6589  -10.5489  -43.4343 N.am      3 UNK        -0.5000 
     60 C           4.4933   -9.8894  -44.2534 C.2       2 UNK         0.5000 
     61 O           5.3720   -9.1219  -43.8599 O.2       2 UNK        -0.5000 
     62 CA          4.3533  -10.1636  -45.7708 C.3       2 UNK         0.1400 
     63 CB          5.7242  -10.4299  -46.4166 C.3       2 UNK        -0.1800 
     64 N           3.4779  -11.3003  -46.0721 N.am      2 UNK        -0.5000 
     65 C           2.1386  -11.2836  -46.0629 C.2       1 UNK         0.5000 
     66 O           1.4775  -10.2563  -45.9120 O.2       1 UNK        -0.5000 
     67 C          -3.6265  -21.5999  -46.8737 C.2       11 UNK         0.5000 
     68 O          -4.2141  -22.2930  -47.7056 O.2       11 UNK        -0.5000 
     69 N          -2.8960  -22.0958  -45.8634 N.am      12 UNK        -0.5000 
     70 CA         -2.6565  -23.5152  -45.6178 C.3       12 UNK         0.1400 
     71 CB         -1.9216  -23.6882  -44.2802 C.3       12 UNK        -0.1800 
     72 C          -1.8824  -24.1922  -46.7608 C.2       12 UNK         0.5000 
     73 O          -2.2864  -25.2676  -47.2006 O.2       12 UNK        -0.5000 
     74 N          -0.8113  -23.5444  -47.2433 N.am      13 UNK        -0.5000 
     75 CA          0.0083  -24.0234  -48.3574 C.3       13 UNK         0.1400 
     76 CB          1.2347  -23.1179  -48.5410 C.3       13 UNK        -0.1800 
     77 C          -0.7793  -24.1450  -49.6720 C.2       13 UNK         0.5000 
     78 O          -0.6814  -25.1769  -50.3347 O.2       13 UNK        -0.5000 
     79 N          -1.5739  -23.1177  -50.0058 N.am      14 UNK        -0.5000 
     80 CA         -2.4383  -23.0955  -51.1873 C.3       14 UNK         0.1400 
     81 CB         -3.0630  -21.7026  -51.3452 C.3       14 UNK        -0.1800 
     82 C          -3.5264  -24.1821  -51.1526 C.2       14 UNK         0.5000 
     83 O          -3.7847  -24.8116  -52.1803 O.2       14 UNK        -0.5000 
     84 N          -4.1128  -24.4079  -49.9684 N.am      15 UNK        -0.5000 
     85 CA         -5.0850  -25.4701  -49.7187 C.3       15 UNK         0.1400 
     86 CB         -5.7413  -25.2583  -48.3460 C.3       15 UNK        -0.1800 
     87 C          -4.4613  -26.8737  -49.8227 C.2       15 UNK         0.5000 
     88 O          -5.0387  -27.7419  -50.4771 O.2       15 UNK        -0.5000 
     89 N          -3.2872  -27.0640  -49.2035 N.am      16 UNK        -0.5000 
     90 CA         -2.5349  -28.3210  -49.2029 C.3       16 UNK         0.1400 
     91 CB         -1.3747  -28.2261  -48.2004 C.3       16 UNK        -0.1800 
     92 C          -2.0140  -28.7155  -50.5962 C.2       16 UNK         0.5000 
     93 O          -2.0825  -29.8902  -50.9602 O.2       16 UNK        -0.5000 
     94 N          -1.5242  -27.7279  -51.3573 N.am      17 UNK        -0.5000 
     95 CA         -1.0580  -27.8952  -52.7349 C.3       17 UNK         0.1400 
     96 CB         -0.1951  -26.6827  -53.1191 C.3       17 UNK        -0.1800 
     97 C          -2.2033  -28.0655  -53.7512 C.2       17 UNK         0.5000 
     98 O          -1.9466  -28.5263  -54.8642 O.2       17 UNK        -0.5000 
     99 N          -3.4253  -27.6658  -53.3639 N.am      18 UNK        -0.5000 
    100 CA        -4.6305  -27.5529  -54.1913 C.3       18 UNK         0.1400 
    101 CB        -5.1259  -28.9409  -54.6470 C.3       18 UNK        -0.1800 
    102 C         -4.4124  -26.5620  -55.3532 C.2       18 UNK         0.5000 
    103 O         -4.6727  -26.8825  -56.5144 O.2       18 UNK        -0.5000 
    104 N         -3.8900  -25.3782  -55.0044 N.am      19 UNK        -0.5000 
    105 CA        -3.4526  -24.3371  -55.9363 C.3       19 UNK         0.1400 
    106 CB        -2.6082  -23.3116  -55.1634 C.3       19 UNK        -0.1800 
    107 C         -4.6018  -23.6286  -56.6777 C.2       19 UNK         0.5000 
    108 O         -4.3546  -23.0162  -57.7179 O.2       19 UNK        -0.5000 
    109 N         -5.8205  -23.7028  -56.1216 N.am      20 UNK        -0.5000 
    110 CA        -7.0746  -23.0706  -56.5521 C.3       20 UNK         0.1400 
    111 CB        -7.4801  -23.4950  -57.9770 C.3       20 UNK        -0.1800 
    112 C         -7.0642  -21.5395  -56.3888 C.2       20 UNK         0.5000 
    113 O         -7.9250  -21.0017  -55.6897 O.2       20 UNK        -0.5000 
    114 N         -6.0671  -20.8715  -56.9837 N.am      21 UNK        -0.5000 
    115 CA        -5.7522  -19.4563  -56.7937 C.3       21 UNK         0.1400 
    116 CB        -4.5767  -19.0728  -57.7062 C.3       21 UNK        -0.1800 
    117 C         -5.4274  -19.1805  -55.3147 C.2       21 UNK         0.5000 
    118 O         -4.4745  -19.7610  -54.7909 O.2       21 UNK        -0.5000 
    119 N         -6.2813  -18.3701  -54.6748 N.am      22 UNK        -0.5000 
    120 CA        -6.3685  -18.1380  -53.2207 C.3       22 UNK         0.1400 
    121 C         -6.4816  -19.4155  -52.3284 C.2       22 UNK         0.5000 
    122 N         -6.9806  -20.5325  -52.8461 N.am      22 UNK        -0.7600 
    123 O         -6.1734  -19.3910  -51.1420 O.2       22 UNK        -0.5000 
    124 C124       -5.4318  -17.0138  -52.6802 C.3       23 UNK        -0.0398 
    125 S125       -3.6391  -17.1558  -53.0162 S.3       23 UNK        -0.2404 
    126 C126       -2.9895  -17.9016  -51.4869 C.3       23 UNK        -0.0205 
    127 H127        3.8119  -15.8731  -45.9543 H         1 UNK         0.0600 
    128 H128        2.9138  -16.3069  -44.4967 H         1 UNK         0.0600 
    129 H129        4.5088  -15.5559  -44.3654 H         1 UNK         0.0600 
    130 H130        2.2891  -14.4465  -46.8101 H         1 UNK         0.3000 
    131 H131        0.6800  -12.6641  -45.3970 H         1 UNK         0.0600 
    132 H132       -0.0898  -11.8948  -47.6016 H         1 UNK         0.0800 
    133 H133        1.3153  -12.5763  -48.3916 H         1 UNK         0.0800 
    134 H134       -1.3841  -13.4168  -49.6769 H         1 UNK         0.0800 
    135 H135       -2.2597  -13.0699  -48.1993 H         1 UNK         0.0800 
    136 H136       -1.6363  -15.6173  -50.8087 H         1 UNK         0.1150 
    137 H137       -4.7444  -18.2325  -49.4461 H         1 UNK         0.1150 
    138 H138       -3.6839  -14.7993  -47.1293 H         1 UNK         0.1150 
    139 H139       -5.9072  -16.0533  -46.8271 H         1 UNK         0.0800 
    140 H140       -6.0964  -17.6344  -47.5423 H         1 UNK         0.0800 
    141 H141       -5.6840  -19.7159  -46.2589 H         1 UNK         0.0800 
    142 H142       -4.5235  -19.9329  -44.9847 H         1 UNK         0.0800 
    143 H143       -4.0239  -19.8283  -47.9877 H         1 UNK         0.0600 
    144 H144       -2.1272  -18.8673  -46.1271 H         1 UNK         0.3000 
    145 H145        0.8346  -19.8169  -47.8991 H         1 UNK         0.0600 
    146 H146        1.1571  -17.3255  -47.6581 H         1 UNK         0.0600 
    147 H147        0.1381  -17.7570  -49.0264 H         1 UNK         0.0600 
    148 H148       -0.5959  -17.1408  -47.5580 H         1 UNK         0.0600 
    149 H149        0.1341  -18.3731  -45.4619 H         1 UNK         0.3000 
    150 H150        0.5583  -21.1926  -43.3102 H         1 UNK         0.0600 
    151 H151        2.9167  -20.5245  -43.7969 H         1 UNK         0.0600 
    152 H152        2.3404  -19.7914  -42.3086 H         1 UNK         0.0600 
    153 H153        2.4493  -18.8285  -43.7845 H         1 UNK         0.0600 
    154 H154        0.2257  -18.4284  -42.7341 H         1 UNK         0.3000 
    155 H155       -3.2980  -18.2325  -43.0800 H         1 UNK         0.0600 
    156 H156       -1.6052  -18.3620  -40.5331 H         1 UNK         0.0600 
    157 H157       -2.9796  -19.4033  -40.8870 H         1 UNK         0.0600 
    158 H158       -3.2240  -17.6769  -40.6812 H         1 UNK         0.0600 
    159 H159       -1.7733  -16.2666  -42.0117 H         1 UNK         0.3000 
    160 H160       -0.1490  -14.7691  -44.7396 H         1 UNK         0.0600 
    161 H161       -1.8168  -12.9700  -44.5056 H         1 UNK         0.0600 
    162 H162       -2.8274  -13.9655  -43.4542 H         1 UNK         0.0600 
    163 H163       -2.6526  -14.3569  -45.1588 H         1 UNK         0.0600 
    164 H164        0.0042  -15.3895  -42.1350 H         1 UNK         0.3000 
    165 H165        0.9132  -12.4038  -40.4870 H         1 UNK         0.0600 
    166 H166        0.0782  -13.8709  -38.7006 H         1 UNK         0.0600 
    167 H167       -1.2505  -13.3793  -39.7380 H         1 UNK         0.0600 
    168 H168       -0.5907  -15.0024  -39.8712 H         1 UNK         0.0600 
    169 H169        2.7482  -13.5939  -40.4404 H         1 UNK         0.3000 
    170 H170        3.9298  -15.9000  -39.7683 H         1 UNK         0.0600 
    171 H171        3.4016  -18.0244  -40.9550 H         1 UNK         0.0600 
    172 H172        3.7703  -17.2741  -42.5046 H         1 UNK         0.0600 
    173 H173        5.0415  -17.5129  -41.3112 H         1 UNK         0.0600 
    174 H174        4.0396  -14.2940  -42.1962 H         1 UNK         0.3000 
    175 H175        7.1088  -12.8523  -41.1966 H         1 UNK         0.0600 
    176 H176        7.8944  -14.5119  -42.8948 H         1 UNK         0.0600 
    177 H177        7.6351  -12.9320  -43.6177 H         1 UNK         0.0600 
    178 H178        6.4567  -14.2185  -43.8656 H         1 UNK         0.0600 
    179 H179        5.0435  -12.3448  -43.1932 H         1 UNK         0.3000 
    180 H180        2.7330  -11.1160  -41.7051 H         1 UNK         0.0600 
    181 H181        4.5136   -8.6431  -41.4430 H         1 UNK         0.0600 
    182 H182        3.3687   -9.2610  -40.2658 H         1 UNK         0.0600 
    183 H183        2.7825   -8.5991  -41.7824 H         1 UNK         0.0600 
    184 H184        3.0047  -11.1863  -43.8699 H         1 UNK         0.3000 
    185 H185        3.9321   -9.2638  -46.2237 H         1 UNK         0.0600 
    186 H186        6.3925   -9.5771  -46.2910 H         1 UNK         0.0600 
    187 H187        6.2141  -11.2991  -45.9758 H         1 UNK         0.0600 
    188 H188        5.6281  -10.6057  -47.4883 H         1 UNK         0.0600 
    189 H189        3.9304  -12.1942  -46.1974 H         1 UNK         0.3000 
    190 H190       -2.4717  -21.4470  -45.2053 H         1 UNK         0.3000 
    191 H191       -3.6283  -24.0066  -45.5382 H         1 UNK         0.0600 
    192 H192       -0.9539  -23.1856  -44.2834 H         1 UNK         0.0600 
    193 H193       -1.7449  -24.7427  -44.0648 H         1 UNK         0.0600 
    194 H194       -2.5056  -23.2803  -43.4549 H         1 UNK         0.0600 
    195 H195       -0.5114  -22.6826  -46.7988 H         1 UNK         0.3000 
    196 H196        0.3655  -25.0215  -48.0957 H         1 UNK         0.0600 
    197 H197        1.8567  -23.4653  -49.3668 H         1 UNK         0.0600 
    198 H198        1.8579  -23.1121  -47.6469 H         1 UNK         0.0600 
    199 H199        0.9465  -22.0892  -48.7573 H         1 UNK         0.0600 
    200 H200       -1.5830  -22.2862  -49.4199 H         1 UNK         0.3000 
    201 H201       -1.8115  -23.2869  -52.0605 H         1 UNK         0.0600 
    202 H202       -2.2903  -20.9469  -51.4838 H         1 UNK         0.0600 
    203 H203       -3.6527  -21.4225  -50.4711 H         1 UNK         0.0600 
    204 H204       -3.7215  -21.6574  -52.2139 H         1 UNK         0.0600 
    205 H205       -3.8649  -23.8212  -49.1794 H         1 UNK         0.3000 
    206 H206       -5.8649  -25.3959  -50.4795 H         1 UNK         0.0600 
    207 H207       -6.2533  -24.2969  -48.2998 H         1 UNK         0.0600 
    208 H208       -6.4825  -26.0323  -48.1434 H         1 UNK         0.0600 
    209 H209       -5.0093  -25.2839  -47.5385 H         1 UNK         0.0600 
    210 H210       -2.8954  -26.3055  -48.6498 H         1 UNK         0.3000 
    211 H211       -3.2088  -29.1114  -48.8663 H         1 UNK         0.0600 
    212 H212       -0.6870  -27.4195  -48.4572 H         1 UNK         0.0600 
    213 H213       -0.8011  -29.1533  -48.1752 H         1 UNK         0.0600 
    214 H214       -1.7415  -28.0433  -47.1903 H         1 UNK         0.0600 
    215 H215       -1.4386  -26.7943  -50.9612 H         1 UNK         0.3000 
    216 H216       -0.4339  -28.7898  -52.7851 H         1 UNK         0.0600 
    217 H217        0.2034  -26.7875  -54.1289 H         1 UNK         0.0600 
    218 H218        0.6542  -26.5729  -52.4446 H         1 UNK         0.0600 
    219 H219       -0.7705  -25.7563  -53.0875 H         1 UNK         0.0600 
    220 H220       -3.5115  -27.2900  -52.4290 H         1 UNK         0.3000 
    221 H221       -5.4020  -27.1194  -53.5531 H         1 UNK         0.0600 
    222 H222       -6.0820  -28.8606  -55.1654 H         1 UNK         0.0600 
    223 H223       -5.2731  -29.6039  -53.7944 H         1 UNK         0.0600 
    224 H224       -4.4250  -29.4224  -55.3293 H         1 UNK         0.0600 
    225 H225       -3.7399  -25.1944  -54.0143 H         1 UNK         0.3000 
    226 H226       -2.8171  -24.8055  -56.6906 H         1 UNK         0.0600 
    227 H227       -1.7535  -23.7857  -54.6806 H         1 UNK         0.0600 
    228 H228       -2.2192  -22.5411  -55.8304 H         1 UNK         0.0600 
    229 H229       -3.1952  -22.8097  -54.3933 H         1 UNK         0.0600 
    230 H230       -5.8803  -24.2142  -55.2526 H         1 UNK         0.3000 
    231 H231       -7.8405  -23.4518  -55.8747 H         1 UNK         0.0600 
    232 H232       -7.5244  -24.5805  -58.0656 H         1 UNK         0.0600 
    233 H233       -6.7867  -23.1256  -58.7326 H         1 UNK         0.0600 
    234 H234       -8.4680  -23.1074  -58.2285 H         1 UNK         0.0600 
    235 H235       -5.3732  -21.4298  -57.4726 H         1 UNK         0.3000 
    236 H236       -6.6246  -18.8712  -57.0916 H         1 UNK         0.0600 
    237 H237       -4.8253  -19.2287  -58.7560 H         1 UNK         0.0600 
    238 H238       -4.3166  -18.0205  -57.5847 H         1 UNK         0.0600 
    239 H239       -3.6851  -19.6603  -57.4824 H         1 UNK         0.0600 
    240 H240       -7.0418  -17.9756  -55.2094 H         1 UNK         0.3000 
    241 H241       -7.3694  -17.7196  -53.1082 H         1 UNK         0.0600 
    242 H242       -7.0749  -21.3437  -52.2575 H         1 UNK         0.3800 
    243 H243       -7.2849  -20.5708  -53.8122 H         1 UNK         0.3800 
    244 H244       -5.5983  -16.8594  -51.6145 H         1 UNK         0.0800 
    245 H245       -5.7411  -16.0736  -53.1379 H         1 UNK         0.0800 
    246 H246       -1.9269  -18.1109  -51.6162 H         1 UNK         0.0800 
    247 H247       -3.4732  -18.8665  -51.3356 H         1 UNK         0.0800 
@<TRIPOS>BOND
     1    1    2 1    
     2    1  127 1    
     3    1  128 1    
     4    1  129 1    
     5    2    3 2    
     6    2    4 am   BACKBONE|DICT|INTERRES
     7    4    5 1    
     8    4  130 1    
     9    5    6 1    
    10    5   65 1    
    11    5  131 1    
    12    6    7 1    
    13    6  132 1    
    14    6  133 1    
    15    7    8 1    
    16    8    9 1    
    17    8  134 1    
    18    8  135 1    
    19    9   10 ar   
    20    9   14 ar   
    21   10   11 ar   
    22   10  136 1    
    23   11   12 ar   
    24   11  126 1    
    25   12   13 ar   
    26   12  137 1    
    27   13   14 ar   
    28   13   15 1    
    29   14  138 1    
    30   15   16 1    
    31   15  139 1    
    32   15  140 1    
    33   16   17 1    
    34   17   18 1    
    35   17  141 1    
    36   17  142 1    
    37   18   19 1    
    38   18   67 1    
    39   18  143 1    
    40   19   20 am   BACKBONE|DICT|INTERRES
    41   19  144 1    
    42   20   21 2    
    43   20   22 1    
    44   22   23 1    
    45   22   24 1    
    46   22  145 1    
    47   23  146 1    
    48   23  147 1    
    49   23  148 1    
    50   24   25 am   BACKBONE|DICT|INTERRES
    51   24  149 1    
    52   25   26 2    
    53   25   27 1    
    54   27   28 1    
    55   27   29 1    
    56   27  150 1    
    57   28  151 1    
    58   28  152 1    
    59   28  153 1    
    60   29   30 am   BACKBONE|DICT|INTERRES
    61   29  154 1    
    62   30   31 2    
    63   30   32 1    
    64   32   33 1    
    65   32   34 1    
    66   32  155 1    
    67   33  156 1    
    68   33  157 1    
    69   33  158 1    
    70   34   35 am   BACKBONE|DICT|INTERRES
    71   34  159 1    
    72   35   36 2    
    73   35   37 1    
    74   37   38 1    
    75   37   39 1    
    76   37  160 1    
    77   38  161 1    
    78   38  162 1    
    79   38  163 1    
    80   39   40 am   BACKBONE|DICT|INTERRES
    81   39  164 1    
    82   40   41 2    
    83   40   42 1    
    84   42   43 1    
    85   42   44 1    
    86   42  165 1    
    87   43  166 1    
    88   43  167 1    
    89   43  168 1    
    90   44   45 am   BACKBONE|DICT|INTERRES
    91   44  169 1    
    92   45   46 2    
    93   45   47 1    
    94   47   48 1    
    95   47   49 1    
    96   47  170 1    
    97   48  171 1    
    98   48  172 1    
    99   48  173 1    
   100   49   50 am   BACKBONE|DICT|INTERRES
   101   49  174 1    
   102   50   51 2    
   103   50   52 1    
   104   52   53 1    
   105   52   54 1    
   106   52  175 1    
   107   53  176 1    
   108   53  177 1    
   109   53  178 1    
   110   54   55 am   BACKBONE|DICT|INTERRES
   111   54  179 1    
   112   55   56 2    
   113   55   57 1    
   114   57   58 1    
   115   57   59 1    
   116   57  180 1    
   117   58  181 1    
   118   58  182 1    
   119   58  183 1    
   120   59   60 am   BACKBONE|DICT|INTERRES
   121   59  184 1    
   122   60   61 2    
   123   60   62 1    
   124   62   63 1    
   125   62   64 1    
   126   62  185 1    
   127   63  186 1    
   128   63  187 1    
   129   63  188 1    
   130   64   65 am   BACKBONE|DICT|INTERRES
   131   64  189 1    
   132   65   66 2    
   133   67   68 2    
   134   67   69 am   BACKBONE|DICT|INTERRES
   135   69   70 1    
   136   69  190 1    
   137   70   71 1    
   138   70   72 1    
   139   70  191 1    
   140   71  192 1    
   141   71  193 1    
   142   71  194 1    
   143   72   73 2    
   144   72   74 am   BACKBONE|DICT|INTERRES
   145   74   75 1    
   146   74  195 1    
   147   75   76 1    
   148   75   77 1    
   149   75  196 1    
   150   76  197 1    
   151   76  198 1    
   152   76  199 1    
   153   77   78 2    
   154   77   79 am   BACKBONE|DICT|INTERRES
   155   79   80 1    
   156   79  200 1    
   157   80   81 1    
   158   80   82 1    
   159   80  201 1    
   160   81  202 1    
   161   81  203 1    
   162   81  204 1    
   163   82   83 2    
   164   82   84 am   BACKBONE|DICT|INTERRES
   165   84   85 1    
   166   84  205 1    
   167   85   86 1    
   168   85   87 1    
   169   85  206 1    
   170   86  207 1    
   171   86  208 1    
   172   86  209 1    
   173   87   88 2    
   174   87   89 am   BACKBONE|DICT|INTERRES
   175   89   90 1    
   176   89  210 1    
   177   90   91 1    
   178   90   92 1    
   179   90  211 1    
   180   91  212 1    
   181   91  213 1    
   182   91  214 1    
   183   92   93 2    
   184   92   94 am   BACKBONE|DICT|INTERRES
   185   94   95 1    
   186   94  215 1    
   187   95   96 1    
   188   95   97 1    
   189   95  216 1    
   190   96  217 1    
   191   96  218 1    
   192   96  219 1    
   193   97   98 2    
   194   97   99 am   BACKBONE|DICT|INTERRES
   195   99  100 1    
   196   99  220 1    
   197  100  101 1    
   198  100  102 1    
   199  100  221 1    
   200  101  222 1    
   201  101  223 1    
   202  101  224 1    
   203  102  103 2    
   204  102  104 am   BACKBONE|DICT|INTERRES
   205  104  105 1    
   206  104  225 1    
   207  105  106 1    
   208  105  107 1    
   209  105  226 1    
   210  106  227 1    
   211  106  228 1    
   212  106  229 1    
   213  107  108 2    
   214  107  109 am   BACKBONE|DICT|INTERRES
   215  109  110 1    
   216  109  230 1    
   217  110  111 1    
   218  110  112 1    
   219  110  231 1    
   220  111  232 1    
   221  111  233 1    
   222  111  234 1    
   223  112  113 2    
   224  112  114 am   BACKBONE|DICT|INTERRES
   225  114  115 1    
   226  114  235 1    
   227  115  116 1    
   228  115  117 1    
   229  115  236 1    
   230  116  237 1    
   231  116  238 1    
   232  116  239 1    
   233  117  118 2    
   234  117  119 am   BACKBONE|DICT|INTERRES
   235  119  120 1    
   236  119  240 1    
   237  120  121 1    
   238  120  124 1    
   239  120  241 1    
   240  121  122 am   BACKBONE|DICT|INTERRES
   241  121  123 2    
   242  122  242 1    
   243  122  243 1    
   244  124  125 1    
   245  124  244 1    
   246  124  245 1    
   247  125  126 1    
   248  126  246 1    
   249  126  247 1    
@<TRIPOS>SUBSTRUCTURE
     1 UNK         1 GROUP             0       ****    0 ROOT    
