@<TRIPOS>MOLECULE
3R540
247   249    1
SMALL
USER_CHARGES


@<TRIPOS>ATOM
      1 CA          8.7875  -11.6526  -47.2967 C.3       0 UNK        -0.1800 
      2 C           7.3278  -12.0428  -47.4812 C.2       0 UNK         0.5000 
      3 O           6.4499  -11.4042  -46.9028 O.2       0 UNK        -0.5000 
      4 N           7.0737  -13.0884  -48.2798 N.am      1 UNK        -0.5000 
      5 CA          5.7481  -13.6206  -48.6285 C.3       1 UNK         0.1400 
      6 C6          5.9007  -14.9112  -49.4802 C.3       23 UNK        -0.0398 
      7 S7          4.7002  -16.2063  -49.0360 S.3       23 UNK        -0.2404 
      8 C8          3.8127  -16.4186  -50.6112 C.3       23 UNK        -0.0205 
      9 C9          2.7875  -17.5392  -50.5246 C.ar      23 UNK        -0.0193 
     10 C10         1.4212  -17.2727  -50.6634 C.ar      23 UNK        -0.1150 
     11 C11         0.4798  -18.3118  -50.6025 C.ar      23 UNK        -0.0193 
     12 C12         0.9270  -19.6155  -50.3692 C.ar      23 UNK        -0.1150 
     13 C13         2.2877  -19.8919  -50.2158 C.ar      23 UNK        -0.0193 
     14 C14         3.2135  -18.8529  -50.3149 C.ar      23 UNK        -0.1150 
     15 C15         2.7572  -21.3091  -49.9255 C.3       23 UNK        -0.0205 
     16 S16         3.4183  -21.4873  -48.2339 S.3       23 UNK        -0.2404 
     17 C17         2.0138  -20.9537  -47.1930 C.3       23 UNK        -0.0398 
     18 CA          1.1647  -22.1278  -46.6568 C.3       11 UNK         0.1400 
     19 N           0.3488  -21.7213  -45.5115 N.am      11 UNK        -0.5000 
     20 C          -0.3396  -22.5620  -44.7277 C.2       10 UNK         0.5000 
     21 O          -0.3233  -23.7861  -44.8559 O.2       10 UNK        -0.5000 
     22 CA         -1.2321  -21.9249  -43.6482 C.3       10 UNK         0.1400 
     23 CB         -0.4007  -21.5124  -42.4246 C.3       10 UNK        -0.1800 
     24 N          -1.9828  -20.7727  -44.1501 N.am      10 UNK        -0.5000 
     25 C          -2.9129  -20.8411  -45.1135 C.2       9 UNK         0.5000 
     26 O          -3.2663  -21.8911  -45.6478 O.2       9 UNK        -0.5000 
     27 CA         -3.5252  -19.5150  -45.5946 C.3       9 UNK         0.1400 
     28 CB         -4.6216  -19.0416  -44.6293 C.3       9 UNK        -0.1800 
     29 N          -2.5306  -18.4585  -45.7799 N.am      9 UNK        -0.5000 
     30 C          -1.5195  -18.5144  -46.6595 C.2       8 UNK         0.5000 
     31 O          -1.3288  -19.4602  -47.4221 O.2       8 UNK        -0.5000 
     32 CA         -0.5223  -17.3437  -46.6512 C.3       8 UNK         0.1400 
     33 CB         -1.1189  -16.1091  -47.3378 C.3       8 UNK        -0.1800 
     34 N          -0.0975  -16.9842  -45.3008 N.am      8 UNK        -0.5000 
     35 C           0.5424  -17.8021  -44.4547 C.2       7 UNK         0.5000 
     36 O           0.8957  -18.9475  -44.7367 O.2       7 UNK        -0.5000 
     37 CA          0.7636  -17.2677  -43.0304 C.3       7 UNK         0.1400 
     38 CB          1.9464  -16.2872  -42.9820 C.3       7 UNK        -0.1800 
     39 N          -0.4403  -16.6238  -42.5018 N.am      7 UNK        -0.5000 
     40 C          -1.5771  -17.2714  -42.2060 C.2       6 UNK         0.5000 
     41 O          -1.7214  -18.4880  -42.3202 O.2       6 UNK        -0.5000 
     42 CA         -2.7633  -16.4107  -41.7351 C.3       6 UNK         0.1400 
     43 CB         -2.6537  -16.1135  -40.2322 C.3       6 UNK        -0.1800 
     44 N          -2.8729  -15.1515  -42.4719 N.am      6 UNK        -0.5000 
     45 C          -3.1893  -15.0585  -43.7713 C.2       5 UNK         0.5000 
     46 O          -3.4540  -16.0260  -44.4829 O.2       5 UNK        -0.5000 
     47 CA         -3.1472  -13.6488  -44.3903 C.3       5 UNK         0.1400 
     48 CB         -4.4732  -12.9113  -44.1522 C.3       5 UNK        -0.1800 
     49 N          -2.0363  -12.8361  -43.8846 N.am      5 UNK        -0.5000 
     50 C          -0.7450  -13.1543  -44.0383 C.2       4 UNK         0.5000 
     51 O          -0.3586  -14.1708  -44.6193 O.2       4 UNK        -0.5000 
     52 CA          0.2781  -12.2165  -43.3892 C.3       4 UNK         0.1400 
     53 CB          0.4587  -12.5621  -41.8992 C.3       4 UNK        -0.1800 
     54 N           1.5454  -12.3584  -44.0940 N.am      4 UNK        -0.5000 
     55 C           2.5595  -11.4903  -44.0807 C.2       3 UNK         0.5000 
     56 O           2.5494  -10.4413  -43.4351 O.2       3 UNK        -0.5000 
     57 CA          3.7875  -11.8318  -44.9461 C.3       3 UNK         0.1400 
     58 CB          4.6440  -12.9363  -44.2935 C.3       3 UNK        -0.1800 
     59 N           3.4663  -12.1408  -46.3470 N.am      3 UNK        -0.5000 
     60 C           2.8313  -13.2094  -46.8462 C.2       2 UNK         0.5000 
     61 O           2.4056  -14.1378  -46.1615 O.2       2 UNK        -0.5000 
     62 CA          2.6414  -13.2628  -48.3730 C.3       2 UNK         0.1400 
     63 CB          1.2101  -12.8312  -48.7297 C.3       2 UNK        -0.1800 
     64 N           3.5657  -12.4374  -49.1603 N.am      2 UNK        -0.5000 
     65 C           4.8906  -12.5466  -49.3549 C.2       1 UNK         0.5000 
     66 O           5.4571  -11.7885  -50.1440 O.2       1 UNK        -0.5000 
     67 C           0.3074  -22.7770  -47.7634 C.2       11 UNK         0.5000 
     68 O           0.6785  -23.8354  -48.2710 O.2       11 UNK        -0.5000 
     69 N          -0.8414  -22.1645  -48.0879 N.am      12 UNK        -0.5000 
     70 CA         -1.8215  -22.6969  -49.0343 C.3       12 UNK         0.1400 
     71 CB         -2.9487  -21.6786  -49.2634 C.3       12 UNK        -0.1800 
     72 C          -2.3835  -24.0567  -48.5878 C.2       12 UNK         0.5000 
     73 O          -2.4064  -24.9856  -49.3923 O.2       12 UNK        -0.5000 
     74 N          -2.7601  -24.1724  -47.3063 N.am      13 UNK        -0.5000 
     75 CA         -3.2369  -25.4121  -46.6920 C.3       13 UNK         0.1400 
     76 CB         -3.7122  -25.1339  -45.2585 C.3       13 UNK        -0.1800 
     77 C          -2.1859  -26.5375  -46.7135 C.2       13 UNK         0.5000 
     78 O          -2.5298  -27.6752  -47.0344 O.2       13 UNK        -0.5000 
     79 N          -0.9196  -26.1986  -46.4291 N.am      14 UNK        -0.5000 
     80 CA          0.2255  -27.1100  -46.5183 C.3       14 UNK         0.1400 
     81 CB          1.4667  -26.4374  -45.9129 C.3       14 UNK        -0.1800 
     82 C           0.5076  -27.5870  -47.9576 C.2       14 UNK         0.5000 
     83 O           0.8966  -28.7391  -48.1513 O.2       14 UNK        -0.5000 
     84 N           0.2668  -26.7092  -48.9402 N.am      15 UNK        -0.5000 
     85 CA          0.3377  -26.9981  -50.3744 C.3       15 UNK         0.1400 
     86 CB          0.5702  -25.6784  -51.1299 C.3       15 UNK        -0.1800 
     87 C          -0.9081  -27.7332  -50.9204 C.2       15 UNK         0.5000 
     88 O          -0.9227  -28.0800  -52.1023 O.2       15 UNK        -0.5000 
     89 N          -1.9229  -27.9513  -50.0693 N.am      16 UNK        -0.5000 
     90 CA         -3.2255  -28.5633  -50.3542 C.3       16 UNK         0.1400 
     91 CB         -3.0674  -30.0352  -50.7907 C.3       16 UNK        -0.1800 
     92 C          -4.0980  -27.7300  -51.3189 C.2       16 UNK         0.5000 
     93 O          -4.8884  -28.2920  -52.0799 O.2       16 UNK        -0.5000 
     94 N          -3.9526  -26.4027  -51.2547 N.am      17 UNK        -0.5000 
     95 CA         -4.7475  -25.4145  -51.9755 C.3       17 UNK         0.1400 
     96 CB         -3.7855  -24.4061  -52.6273 C.3       17 UNK        -0.1800 
     97 C          -5.6949  -24.6939  -51.0006 C.2       17 UNK         0.5000 
     98 O          -5.5230  -24.7752  -49.7816 O.2       17 UNK        -0.5000 
     99 N          -6.6735  -23.9726  -51.5570 N.am      18 UNK        -0.5000 
    100 CA        -7.5282  -23.0538  -50.8082 C.3       18 UNK         0.1400 
    101 CB        -8.8111  -22.7942  -51.6135 C.3       18 UNK        -0.1800 
    102 C         -6.7853  -21.7311  -50.5593 C.2       18 UNK         0.5000 
    103 O         -6.0672  -21.2637  -51.4452 O.2       18 UNK        -0.5000 
    104 N         -7.0160  -21.1099  -49.3956 N.am      19 UNK        -0.5000 
    105 CA        -6.4604  -19.7973  -49.0420 C.3       19 UNK         0.1400 
    106 CB        -6.7949  -19.4847  -47.5766 C.3       19 UNK        -0.1800 
    107 C         -6.9557  -18.6658  -49.9659 C.2       19 UNK         0.5000 
    108 O         -6.2147  -17.7196  -50.2299 O.2       19 UNK        -0.5000 
    109 N         -8.1822  -18.8180  -50.4848 N.am      20 UNK        -0.5000 
    110 CA        -8.8160  -17.9227  -51.4533 C.3       20 UNK         0.1400 
    111 CB       -10.2997  -18.3045  -51.5739 C.3       20 UNK        -0.1800 
    112 C         -8.1468  -17.9218  -52.8441 C.2       20 UNK         0.5000 
    113 O         -8.3744  -16.9873  -53.6129 O.2       20 UNK        -0.5000 
    114 N         -7.3399  -18.9493  -53.1515 N.am      21 UNK        -0.5000 
    115 CA        -6.5845  -19.0558  -54.4020 C.3       21 UNK         0.1400 
    116 CB        -6.2718  -20.5355  -54.6797 C.3       21 UNK        -0.1800 
    117 C         -5.2896  -18.2172  -54.3965 C.2       21 UNK         0.5000 
    118 O         -4.6865  -18.0463  -55.4571 O.2       21 UNK        -0.5000 
    119 N         -4.8727  -17.7240  -53.2214 N.am      22 UNK        -0.5000 
    120 CA        -3.7024  -16.8542  -53.0440 C.3       22 UNK         0.1400 
    121 C         -3.8809  -15.4608  -53.7132 C.2       22 UNK         0.5000 
    122 N         -2.8390  -14.9210  -54.3308 N.am      22 UNK        -0.7600 
    123 O         -4.9455  -14.8501  -53.6465 O.2       22 UNK        -0.5000 
    124 C124       -3.3356  -16.7207  -51.5433 C.3       23 UNK        -0.0398 
    125 S125       -1.5512  -16.4331  -51.2973 S.3       23 UNK        -0.2404 
    126 C126       -1.0251  -18.1012  -50.7764 C.3       23 UNK        -0.0205 
    127 H127        9.4573  -12.3084  -47.8533 H         1 UNK         0.0600 
    128 H128        9.0589  -11.7049  -46.2424 H         1 UNK         0.0600 
    129 H129        8.9482  -10.6309  -47.6408 H         1 UNK         0.0600 
    130 H130        7.8522  -13.5379  -48.7394 H         1 UNK         0.3000 
    131 H131        5.2931  -13.8796  -47.6746 H         1 UNK         0.0600 
    132 H132        5.8658  -14.7007  -50.5511 H         1 UNK         0.0800 
    133 H133        6.8802  -15.3630  -49.3160 H         1 UNK         0.0800 
    134 H134        4.5265  -16.6537  -51.4021 H         1 UNK         0.0800 
    135 H135        3.3372  -15.4764  -50.8884 H         1 UNK         0.0800 
    136 H136        1.1041  -16.2535  -50.8264 H         1 UNK         0.1150 
    137 H137        0.2077  -20.4196  -50.2974 H         1 UNK         0.1150 
    138 H138        4.2677  -19.0630  -50.1994 H         1 UNK         0.1150 
    139 H139        1.9500  -22.0262  -50.0797 H         1 UNK         0.0800 
    140 H140        3.5386  -21.5783  -50.6374 H         1 UNK         0.0800 
    141 H141        1.3932  -20.2164  -47.7019 H         1 UNK         0.0800 
    142 H142        2.4570  -20.4191  -46.3521 H         1 UNK         0.0800 
    143 H143        1.8506  -22.8941  -46.2890 H         1 UNK         0.0600 
    144 H144        0.3093  -20.7252  -45.3139 H         1 UNK         0.3000 
    145 H145       -1.9538  -22.6792  -43.3280 H         1 UNK         0.0600 
    146 H146        0.1654  -22.3585  -42.0330 H         1 UNK         0.0600 
    147 H147        0.3116  -20.7234  -42.6678 H         1 UNK         0.0600 
    148 H148       -1.0397  -21.1484  -41.6200 H         1 UNK         0.0600 
    149 H149       -1.7776  -19.8743  -43.7228 H         1 UNK         0.3000 
    150 H150       -3.9857  -19.7009  -46.5664 H         1 UNK         0.0600 
    151 H151       -5.3766  -19.8152  -44.4844 H         1 UNK         0.0600 
    152 H152       -5.1317  -18.1589  -45.0147 H         1 UNK         0.0600 
    153 H153       -4.2144  -18.7915  -43.6494 H         1 UNK         0.0600 
    154 H154       -2.6476  -17.6227  -45.2137 H         1 UNK         0.3000 
    155 H155        0.3632  -17.6528  -47.2109 H         1 UNK         0.0600 
    156 H156       -1.9867  -15.7253  -46.8017 H         1 UNK         0.0600 
    157 H157       -0.3825  -15.3101  -47.3951 H         1 UNK         0.0600 
    158 H158       -1.4353  -16.3379  -48.3541 H         1 UNK         0.0600 
    159 H159       -0.3058  -16.0362  -44.9972 H         1 UNK         0.3000 
    160 H160        1.0023  -18.1180  -42.3880 H         1 UNK         0.0600 
    161 H161        1.7758  -15.4100  -43.6061 H         1 UNK         0.0600 
    162 H162        2.8602  -16.7644  -43.3379 H         1 UNK         0.0600 
    163 H163        2.1341  -15.9438  -41.9647 H         1 UNK         0.0600 
    164 H164       -0.4249  -15.6180  -42.4347 H         1 UNK         0.3000 
    165 H165       -3.6777  -16.9834  -41.9034 H         1 UNK         0.0600 
    166 H166       -3.5286  -15.5714  -39.8729 H         1 UNK         0.0600 
    167 H167       -2.5862  -17.0374  -39.6563 H         1 UNK         0.0600 
    168 H168       -1.7702  -15.5170  -40.0010 H         1 UNK         0.0600 
    169 H169       -2.6696  -14.3039  -41.9637 H         1 UNK         0.3000 
    170 H170       -3.0113  -13.7664  -45.4674 H         1 UNK         0.0600 
    171 H171       -5.3150  -13.4897  -44.5354 H         1 UNK         0.0600 
    172 H172       -4.6525  -12.7342  -43.0910 H         1 UNK         0.0600 
    173 H173       -4.4851  -11.9472  -44.6608 H         1 UNK         0.0600 
    174 H174       -2.2823  -11.9913  -43.3889 H         1 UNK         0.3000 
    175 H175       -0.0765  -11.1890  -43.4921 H         1 UNK         0.0600 
    176 H176        0.8406  -13.5748  -41.7655 H         1 UNK         0.0600 
    177 H177        1.1554  -11.8780  -41.4147 H         1 UNK         0.0600 
    178 H178       -0.4867  -12.4918  -41.3602 H         1 UNK         0.0600 
    179 H179        1.6136  -13.1809  -44.6924 H         1 UNK         0.3000 
    180 H180        4.4025  -10.9313  -44.9840 H         1 UNK         0.0600 
    181 H181        4.0919  -13.8680  -44.1680 H         1 UNK         0.0600 
    182 H182        4.9830  -12.6270  -43.3043 H         1 UNK         0.0600 
    183 H183        5.5315  -13.1507  -44.8885 H         1 UNK         0.0600 
    184 H184        3.7761  -11.4411  -47.0077 H         1 UNK         0.3000 
    185 H185        2.7497  -14.3007  -48.6795 H         1 UNK         0.0600 
    186 H186        0.4713  -13.3738  -48.1415 H         1 UNK         0.0600 
    187 H187        1.0517  -11.7686  -48.5412 H         1 UNK         0.0600 
    188 H188        0.9899  -13.0238  -49.7800 H         1 UNK         0.0600 
    189 H189        3.1081  -11.6958  -49.6693 H         1 UNK         0.3000 
    190 H190       -1.0642  -21.2676  -47.6608 H         1 UNK         0.3000 
    191 H191       -1.3087  -22.8480  -49.9863 H         1 UNK         0.0600 
    192 H192       -3.4866  -21.4576  -48.3418 H         1 UNK         0.0600 
    193 H193       -3.6750  -22.0580  -49.9832 H         1 UNK         0.0600 
    194 H194       -2.5600  -20.7400  -49.6578 H         1 UNK         0.0600 
    195 H195       -2.7463  -23.3470  -46.7119 H         1 UNK         0.3000 
    196 H196       -4.0964  -25.7532  -47.2733 H         1 UNK         0.0600 
    197 H197       -4.0863  -26.0433  -44.7868 H         1 UNK         0.0600 
    198 H198       -4.5226  -24.4049  -45.2478 H         1 UNK         0.0600 
    199 H199       -2.9064  -24.7465  -44.6347 H         1 UNK         0.0600 
    200 H200       -0.7229  -25.2489  -46.1263 H         1 UNK         0.3000 
    201 H201       -0.0063  -27.9929  -45.9191 H         1 UNK         0.0600 
    202 H202        1.2983  -26.1650  -44.8708 H         1 UNK         0.0600 
    203 H203        1.7397  -25.5318  -46.4547 H         1 UNK         0.0600 
    204 H204        2.3265  -27.1078  -45.9393 H         1 UNK         0.0600 
    205 H205        0.0028  -25.7624  -48.6873 H         1 UNK         0.3000 
    206 H206        1.1981  -27.6450  -50.5560 H         1 UNK         0.0600 
    207 H207        1.4650  -25.1699  -50.7703 H         1 UNK         0.0600 
    208 H208        0.7042  -25.8549  -52.1977 H         1 UNK         0.0600 
    209 H209       -0.2707  -24.9945  -51.0147 H         1 UNK         0.0600 
    210 H210       -1.8170  -27.6034  -49.1245 H         1 UNK         0.3000 
    211 H211       -3.7620  -28.5658  -49.4046 H         1 UNK         0.0600 
    212 H212       -2.6090  -30.1207  -51.7761 H         1 UNK         0.0600 
    213 H213       -4.0358  -30.5343  -50.8383 H         1 UNK         0.0600 
    214 H214       -2.4520  -30.5916  -50.0837 H         1 UNK         0.0600 
    215 H215       -3.3303  -26.0124  -50.5474 H         1 UNK         0.3000 
    216 H216       -5.3454  -25.8911  -52.7548 H         1 UNK         0.0600 
    217 H217       -4.3281  -23.6541  -53.2014 H         1 UNK         0.0600 
    218 H218       -3.0991  -24.9048  -53.3119 H         1 UNK         0.0600 
    219 H219       -3.1878  -23.8800  -51.8818 H         1 UNK         0.0600 
    220 H220       -6.7296  -23.9138  -52.5632 H         1 UNK         0.3000 
    221 H221       -7.8001  -23.5040  -49.8509 H         1 UNK         0.0600 
    222 H222       -8.5973  -22.3291  -52.5770 H         1 UNK         0.0600 
    223 H223       -9.3519  -23.7218  -51.8022 H         1 UNK         0.0600 
    224 H224       -9.4863  -22.1305  -51.0720 H         1 UNK         0.0600 
    225 H225       -7.6192  -21.5456  -48.7125 H         1 UNK         0.3000 
    226 H226       -5.3743  -19.8516  -49.1421 H         1 UNK         0.0600 
    227 H227       -6.4068  -20.2552  -46.9103 H         1 UNK         0.0600 
    228 H228       -6.3533  -18.5353  -47.2707 H         1 UNK         0.0600 
    229 H229       -7.8712  -19.4133  -47.4148 H         1 UNK         0.0600 
    230 H230       -8.7147  -19.6298  -50.2101 H         1 UNK         0.3000 
    231 H231       -8.7534  -16.9050  -51.0623 H         1 UNK         0.0600 
    232 H232      -10.8212  -17.6384  -52.2625 H         1 UNK         0.0600 
    233 H233      -10.8058  -18.2331  -50.6110 H         1 UNK         0.0600 
    234 H234      -10.4236  -19.3227  -51.9453 H         1 UNK         0.0600 
    235 H235       -7.1682  -19.6722  -52.4634 H         1 UNK         0.3000 
    236 H236       -7.2083  -18.6889  -55.2199 H         1 UNK         0.0600 
    237 H237       -7.1729  -21.1477  -54.6401 H         1 UNK         0.0600 
    238 H238       -5.8383  -20.6595  -55.6727 H         1 UNK         0.0600 
    239 H239       -5.5564  -20.9396  -53.9635 H         1 UNK         0.0600 
    240 H240       -5.4457  -17.8750  -52.4019 H         1 UNK         0.3000 
    241 H241       -2.8799  -17.3645  -53.5499 H         1 UNK         0.0600 
    242 H242       -1.9495  -15.3942  -54.3717 H         1 UNK         0.3800 
    243 H243       -2.9370  -14.0130  -54.7577 H         1 UNK         0.3800 
    244 H244       -3.9014  -15.9207  -51.0619 H         1 UNK         0.0800 
    245 H245       -3.6077  -17.6288  -51.0035 H         1 UNK         0.0800 
    246 H246       -1.5215  -18.3454  -49.8374 H         1 UNK         0.0800 
    247 H247       -1.3896  -18.8175  -51.5147 H         1 UNK         0.0800 
@<TRIPOS>BOND
     1    1    2 1    
     2    1  127 1    
     3    1  128 1    
     4    1  129 1    
     5    2    3 2    
     6    2    4 am   BACKBONE|DICT|INTERRES
     7    4    5 1    
     8    4  130 1    
     9    5    6 1    
    10    5   65 1    
    11    5  131 1    
    12    6    7 1    
    13    6  132 1    
    14    6  133 1    
    15    7    8 1    
    16    8    9 1    
    17    8  134 1    
    18    8  135 1    
    19    9   10 ar   
    20    9   14 ar   
    21   10   11 ar   
    22   10  136 1    
    23   11   12 ar   
    24   11  126 1    
    25   12   13 ar   
    26   12  137 1    
    27   13   14 ar   
    28   13   15 1    
    29   14  138 1    
    30   15   16 1    
    31   15  139 1    
    32   15  140 1    
    33   16   17 1    
    34   17   18 1    
    35   17  141 1    
    36   17  142 1    
    37   18   19 1    
    38   18   67 1    
    39   18  143 1    
    40   19   20 am   BACKBONE|DICT|INTERRES
    41   19  144 1    
    42   20   21 2    
    43   20   22 1    
    44   22   23 1    
    45   22   24 1    
    46   22  145 1    
    47   23  146 1    
    48   23  147 1    
    49   23  148 1    
    50   24   25 am   BACKBONE|DICT|INTERRES
    51   24  149 1    
    52   25   26 2    
    53   25   27 1    
    54   27   28 1    
    55   27   29 1    
    56   27  150 1    
    57   28  151 1    
    58   28  152 1    
    59   28  153 1    
    60   29   30 am   BACKBONE|DICT|INTERRES
    61   29  154 1    
    62   30   31 2    
    63   30   32 1    
    64   32   33 1    
    65   32   34 1    
    66   32  155 1    
    67   33  156 1    
    68   33  157 1    
    69   33  158 1    
    70   34   35 am   BACKBONE|DICT|INTERRES
    71   34  159 1    
    72   35   36 2    
    73   35   37 1    
    74   37   38 1    
    75   37   39 1    
    76   37  160 1    
    77   38  161 1    
    78   38  162 1    
    79   38  163 1    
    80   39   40 am   BACKBONE|DICT|INTERRES
    81   39  164 1    
    82   40   41 2    
    83   40   42 1    
    84   42   43 1    
    85   42   44 1    
    86   42  165 1    
    87   43  166 1    
    88   43  167 1    
    89   43  168 1    
    90   44   45 am   BACKBONE|DICT|INTERRES
    91   44  169 1    
    92   45   46 2    
    93   45   47 1    
    94   47   48 1    
    95   47   49 1    
    96   47  170 1    
    97   48  171 1    
    98   48  172 1    
    99   48  173 1    
   100   49   50 am   BACKBONE|DICT|INTERRES
   101   49  174 1    
   102   50   51 2    
   103   50   52 1    
   104   52   53 1    
   105   52   54 1    
   106   52  175 1    
   107   53  176 1    
   108   53  177 1    
   109   53  178 1    
   110   54   55 am   BACKBONE|DICT|INTERRES
   111   54  179 1    
   112   55   56 2    
   113   55   57 1    
   114   57   58 1    
   115   57   59 1    
   116   57  180 1    
   117   58  181 1    
   118   58  182 1    
   119   58  183 1    
   120   59   60 am   BACKBONE|DICT|INTERRES
   121   59  184 1    
   122   60   61 2    
   123   60   62 1    
   124   62   63 1    
   125   62   64 1    
   126   62  185 1    
   127   63  186 1    
   128   63  187 1    
   129   63  188 1    
   130   64   65 am   BACKBONE|DICT|INTERRES
   131   64  189 1    
   132   65   66 2    
   133   67   68 2    
   134   67   69 am   BACKBONE|DICT|INTERRES
   135   69   70 1    
   136   69  190 1    
   137   70   71 1    
   138   70   72 1    
   139   70  191 1    
   140   71  192 1    
   141   71  193 1    
   142   71  194 1    
   143   72   73 2    
   144   72   74 am   BACKBONE|DICT|INTERRES
   145   74   75 1    
   146   74  195 1    
   147   75   76 1    
   148   75   77 1    
   149   75  196 1    
   150   76  197 1    
   151   76  198 1    
   152   76  199 1    
   153   77   78 2    
   154   77   79 am   BACKBONE|DICT|INTERRES
   155   79   80 1    
   156   79  200 1    
   157   80   81 1    
   158   80   82 1    
   159   80  201 1    
   160   81  202 1    
   161   81  203 1    
   162   81  204 1    
   163   82   83 2    
   164   82   84 am   BACKBONE|DICT|INTERRES
   165   84   85 1    
   166   84  205 1    
   167   85   86 1    
   168   85   87 1    
   169   85  206 1    
   170   86  207 1    
   171   86  208 1    
   172   86  209 1    
   173   87   88 2    
   174   87   89 am   BACKBONE|DICT|INTERRES
   175   89   90 1    
   176   89  210 1    
   177   90   91 1    
   178   90   92 1    
   179   90  211 1    
   180   91  212 1    
   181   91  213 1    
   182   91  214 1    
   183   92   93 2    
   184   92   94 am   BACKBONE|DICT|INTERRES
   185   94   95 1    
   186   94  215 1    
   187   95   96 1    
   188   95   97 1    
   189   95  216 1    
   190   96  217 1    
   191   96  218 1    
   192   96  219 1    
   193   97   98 2    
   194   97   99 am   BACKBONE|DICT|INTERRES
   195   99  100 1    
   196   99  220 1    
   197  100  101 1    
   198  100  102 1    
   199  100  221 1    
   200  101  222 1    
   201  101  223 1    
   202  101  224 1    
   203  102  103 2    
   204  102  104 am   BACKBONE|DICT|INTERRES
   205  104  105 1    
   206  104  225 1    
   207  105  106 1    
   208  105  107 1    
   209  105  226 1    
   210  106  227 1    
   211  106  228 1    
   212  106  229 1    
   213  107  108 2    
   214  107  109 am   BACKBONE|DICT|INTERRES
   215  109  110 1    
   216  109  230 1    
   217  110  111 1    
   218  110  112 1    
   219  110  231 1    
   220  111  232 1    
   221  111  233 1    
   222  111  234 1    
   223  112  113 2    
   224  112  114 am   BACKBONE|DICT|INTERRES
   225  114  115 1    
   226  114  235 1    
   227  115  116 1    
   228  115  117 1    
   229  115  236 1    
   230  116  237 1    
   231  116  238 1    
   232  116  239 1    
   233  117  118 2    
   234  117  119 am   BACKBONE|DICT|INTERRES
   235  119  120 1    
   236  119  240 1    
   237  120  121 1    
   238  120  124 1    
   239  120  241 1    
   240  121  122 am   BACKBONE|DICT|INTERRES
   241  121  123 2    
   242  122  242 1    
   243  122  243 1    
   244  124  125 1    
   245  124  244 1    
   246  124  245 1    
   247  125  126 1    
   248  126  246 1    
   249  126  247 1    
@<TRIPOS>SUBSTRUCTURE
     1 UNK         1 GROUP             0       ****    0 ROOT    
