@<TRIPOS>MOLECULE
3R540
247   249    1
SMALL
USER_CHARGES


@<TRIPOS>ATOM
      1 CA         -1.6147  -10.8158  -45.7552 C.3       0 UNK        -0.1800 
      2 C          -0.5405  -11.1449  -46.7824 C.2       0 UNK         0.5000 
      3 O           0.3412  -10.3229  -47.0341 O.2       0 UNK        -0.5000 
      4 N          -0.6179  -12.3393  -47.3802 N.am      1 UNK        -0.5000 
      5 CA          0.3697  -12.8898  -48.3125 C.3       1 UNK         0.1400 
      6 C6         -0.1733  -14.1399  -49.0574 C.3       23 UNK        -0.0398 
      7 S7         -0.8732  -15.4198  -47.9537 S.3       23 UNK        -0.2404 
      8 C8         -2.0550  -16.2553  -49.0553 C.3       23 UNK        -0.0205 
      9 C9         -1.3859  -17.3716  -49.8393 C.ar      23 UNK        -0.0193 
     10 C10        -1.0907  -17.2239  -51.1965 C.ar      23 UNK        -0.1150 
     11 C11        -0.5057  -18.2760  -51.9088 C.ar      23 UNK        -0.0193 
     12 C12        -0.1896  -19.4663  -51.2470 C.ar      23 UNK        -0.1150 
     13 C13        -0.4784  -19.6255  -49.8892 C.ar      23 UNK        -0.0193 
     14 C14        -1.0833  -18.5730  -49.1969 C.ar      23 UNK        -0.1150 
     15 C15        -0.1693  -20.9444  -49.1924 C.3       23 UNK        -0.0205 
     16 S16         1.2080  -20.8097  -48.0132 S.3       23 UNK        -0.2404 
     17 C17         0.3357  -20.3493  -46.4794 C.3       23 UNK        -0.0398 
     18 CA          0.3352  -21.4784  -45.4228 C.3       11 UNK         0.1400 
     19 N           0.2951  -20.9236  -44.0673 N.am      11 UNK        -0.5000 
     20 C           0.6449  -21.5809  -42.9538 C.2       10 UNK         0.5000 
     21 O           1.0010  -22.7594  -42.9393 O.2       10 UNK        -0.5000 
     22 CA          0.5542  -20.7936  -41.6374 C.3       10 UNK         0.1400 
     23 CB          1.8323  -19.9739  -41.4030 C.3       10 UNK        -0.1800 
     24 N          -0.6127  -19.9086  -41.6224 N.am      10 UNK        -0.5000 
     25 C          -1.8340  -20.2900  -41.2234 C.2       9 UNK         0.5000 
     26 O          -2.0891  -21.4080  -40.7754 O.2       9 UNK        -0.5000 
     27 CA         -2.9681  -19.2577  -41.3651 C.3       9 UNK         0.1400 
     28 CB         -3.0242  -18.3429  -40.1325 C.3       9 UNK        -0.1800 
     29 N          -2.8491  -18.4438  -42.5764 N.am      9 UNK        -0.5000 
     30 C          -3.0381  -18.9154  -43.8181 C.2       8 UNK         0.5000 
     31 O          -3.3466  -20.0800  -44.0619 O.2       8 UNK        -0.5000 
     32 CA         -2.8290  -17.9426  -44.9956 C.3       8 UNK         0.1400 
     33 CB         -4.1723  -17.3419  -45.4372 C.3       8 UNK        -0.1800 
     34 N          -1.8900  -16.8510  -44.7338 N.am      8 UNK        -0.5000 
     35 C          -0.6154  -16.9832  -44.3457 C.2       7 UNK         0.5000 
     36 O          -0.0869  -18.0735  -44.1123 O.2       7 UNK        -0.5000 
     37 CA          0.2015  -15.6886  -44.1504 C.3       7 UNK         0.1400 
     38 CB         -0.6343  -14.3889  -44.2253 C.3       7 UNK        -0.1800 
     39 N           0.9688  -15.7253  -42.9040 N.am      7 UNK        -0.5000 
     40 C           0.4768  -15.8812  -41.6648 C.2       6 UNK         0.5000 
     41 O          -0.7256  -15.9946  -41.4200 O.2       6 UNK        -0.5000 
     42 CA          1.4952  -15.9410  -40.5107 C.3       6 UNK         0.1400 
     43 CB          1.0116  -16.8460  -39.3626 C.3       6 UNK        -0.1800 
     44 N           2.8031  -16.4048  -40.9845 N.am      6 UNK        -0.5000 
     45 C           3.9217  -15.6696  -40.9899 C.2       5 UNK         0.5000 
     46 O           3.9959  -14.5274  -40.5351 O.2       5 UNK        -0.5000 
     47 CA          5.1743  -16.3073  -41.6240 C.3       5 UNK         0.1400 
     48 CB          6.0078  -17.0217  -40.5488 C.3       5 UNK        -0.1800 
     49 N           4.9166  -17.2445  -42.7250 N.am      5 UNK        -0.5000 
     50 C           4.2952  -16.9488  -43.8746 C.2       4 UNK         0.5000 
     51 O           3.7293  -15.8746  -44.0947 O.2       4 UNK        -0.5000 
     52 CA          4.3060  -18.0430  -44.9528 C.3       4 UNK         0.1400 
     53 CB          3.3844  -19.2152  -44.5803 C.3       4 UNK        -0.1800 
     54 N           3.8908  -17.4605  -46.2242 N.am      4 UNK        -0.5000 
     55 C           4.2059  -17.9352  -47.4349 C.2       3 UNK         0.5000 
     56 O           4.8328  -18.9801  -47.6146 O.2       3 UNK        -0.5000 
     57 CA          3.7790  -17.0968  -48.6574 C.3       3 UNK         0.1400 
     58 CB          2.4715  -17.6333  -49.2572 C.3       3 UNK        -0.1800 
     59 N           3.6079  -15.6693  -48.3847 N.am      3 UNK        -0.5000 
     60 C           4.5729  -14.8111  -48.0252 C.2       2 UNK         0.5000 
     61 O           5.7396  -15.1501  -47.8233 O.2       2 UNK        -0.5000 
     62 CA          4.1816  -13.3212  -47.9011 C.3       2 UNK         0.1400 
     63 CB          5.1495  -12.4262  -48.6943 C.3       2 UNK        -0.1800 
     64 N           2.8153  -13.0427  -48.3588 N.am      2 UNK        -0.5000 
     65 C           1.7145  -13.1852  -47.6112 C.2       1 UNK         0.5000 
     66 O           1.7356  -13.5703  -46.4412 O.2       1 UNK        -0.5000 
     67 C          -0.7784  -22.5192  -45.6939 C.2       11 UNK         0.5000 
     68 O          -0.7364  -23.1898  -46.7244 O.2       11 UNK        -0.5000 
     69 N          -1.7434  -22.6703  -44.7734 N.am      12 UNK        -0.5000 
     70 CA         -2.8462  -23.6375  -44.8291 C.3       12 UNK         0.1400 
     71 CB         -3.6762  -23.5298  -43.5411 C.3       12 UNK        -0.1800 
     72 C          -2.4009  -25.0968  -45.0539 C.2       12 UNK         0.5000 
     73 O          -3.1131  -25.8525  -45.7150 O.2       12 UNK        -0.5000 
     74 N          -1.2064  -25.4468  -44.5558 N.am      13 UNK        -0.5000 
     75 CA         -0.5492  -26.7391  -44.7596 C.3       13 UNK         0.1400 
     76 CB          0.6960  -26.8041  -43.8623 C.3       13 UNK        -0.1800 
     77 C          -0.1699  -27.0297  -46.2281 C.2       13 UNK         0.5000 
     78 O          -0.0565  -28.1997  -46.5952 O.2       13 UNK        -0.5000 
     79 N           0.0083  -25.9792  -47.0430 N.am      14 UNK        -0.5000 
     80 CA          0.2981  -26.0753  -48.4756 C.3       14 UNK         0.1400 
     81 CB          1.1758  -24.8822  -48.8897 C.3       14 UNK        -0.1800 
     82 C          -0.9803  -26.1318  -49.3363 C.2       14 UNK         0.5000 
     83 O          -0.8743  -26.3264  -50.5467 O.2       14 UNK        -0.5000 
     84 N          -2.1557  -25.9345  -48.7177 N.am      15 UNK        -0.5000 
     85 CA         -3.5168  -25.9844  -49.2746 C.3       15 UNK         0.1400 
     86 CB         -3.8203  -27.3777  -49.8594 C.3       15 UNK        -0.1800 
     87 C          -3.8809  -24.8667  -50.2777 C.2       15 UNK         0.5000 
     88 O          -5.0664  -24.6758  -50.5489 O.2       15 UNK        -0.5000 
     89 N          -2.8893  -24.1279  -50.7918 N.am      16 UNK        -0.5000 
     90 CA         -3.0598  -23.0220  -51.7395 C.3       16 UNK         0.1400 
     91 CB         -1.7312  -22.7852  -52.4735 C.3       16 UNK        -0.1800 
     92 C          -3.5789  -21.7185  -51.0958 C.2       16 UNK         0.5000 
     93 O          -3.9088  -20.7802  -51.8223 O.2       16 UNK        -0.5000 
     94 N          -3.6473  -21.6792  -49.7568 N.am      17 UNK        -0.5000 
     95 CA         -4.1511  -20.5700  -48.9482 C.3       17 UNK         0.1400 
     96 CB         -4.0280  -20.9382  -47.4613 C.3       17 UNK        -0.1800 
     97 C          -5.5959  -20.1878  -49.3189 C.2       17 UNK         0.5000 
     98 O          -6.5281  -20.9223  -48.9876 O.2       17 UNK        -0.5000 
     99 N          -5.7295  -19.0603  -50.0315 N.am      18 UNK        -0.5000 
    100 CA        -6.9642  -18.5021  -50.5937 C.3       18 UNK         0.1400 
    101 CB        -7.9469  -18.0953  -49.4751 C.3       18 UNK        -0.1800 
    102 C         -7.6192  -19.3887  -51.6781 C.2       18 UNK         0.5000 
    103 O         -8.8199  -19.2595  -51.9260 O.2       18 UNK        -0.5000 
    104 N         -6.8276  -20.2558  -52.3259 N.am      19 UNK        -0.5000 
    105 CA        -7.2470  -21.0493  -53.4809 C.3       19 UNK         0.1400 
    106 CB        -6.2786  -22.2287  -53.6570 C.3       19 UNK        -0.1800 
    107 C         -7.2753  -20.1900  -54.7568 C.2       19 UNK         0.5000 
    108 O         -6.6284  -19.1407  -54.8105 O.2       19 UNK        -0.5000 
    109 N         -7.9755  -20.6757  -55.7901 N.am      20 UNK        -0.5000 
    110 CA        -8.1361  -20.0127  -57.0919 C.3       20 UNK         0.1400 
    111 CB        -9.0961  -20.8435  -57.9572 C.3       20 UNK        -0.1800 
    112 C         -6.8172  -19.7498  -57.8514 C.2       20 UNK         0.5000 
    113 O         -6.7732  -18.8552  -58.6964 O.2       20 UNK        -0.5000 
    114 N         -5.7671  -20.5157  -57.5256 N.am      21 UNK        -0.5000 
    115 CA        -4.4069  -20.3378  -58.0331 C.3       21 UNK         0.1400 
    116 CB        -3.5917  -21.5988  -57.7049 C.3       21 UNK        -0.1800 
    117 C         -3.6976  -19.0860  -57.4747 C.2       21 UNK         0.5000 
    118 O         -2.7874  -18.5777  -58.1312 O.2       21 UNK        -0.5000 
    119 N         -4.1082  -18.6245  -56.2860 N.am      22 UNK        -0.5000 
    120 CA        -3.5169  -17.4822  -55.5694 C.3       22 UNK         0.1400 
    121 C         -4.5077  -16.2997  -55.3891 C.2       22 UNK         0.5000 
    122 N         -5.8126  -16.5258  -55.3118 N.am      22 UNK        -0.7600 
    123 O         -4.0833  -15.1489  -55.3314 O.2       22 UNK        -0.5000 
    124 C124       -2.9365  -17.9158  -54.1999 C.3       23 UNK        -0.0398 
    125 S125       -1.4902  -19.0169  -54.3834 S.3       23 UNK        -0.2404 
    126 C126       -0.2295  -18.1449  -53.3985 C.3       23 UNK        -0.0205 
    127 H127       -2.3345  -11.6278  -45.6469 H         1 UNK         0.0600 
    128 H128       -2.1565   -9.9176  -46.0517 H         1 UNK         0.0600 
    129 H129       -1.1586  -10.6356  -44.7816 H         1 UNK         0.0600 
    130 H130       -1.3523  -12.9801  -47.1175 H         1 UNK         0.3000 
    131 H131        0.5600  -12.1201  -49.0637 H         1 UNK         0.0600 
    132 H132       -0.9540  -13.8160  -49.7465 H         1 UNK         0.0800 
    133 H133        0.5950  -14.5957  -49.6844 H         1 UNK         0.0800 
    134 H134       -2.5337  -15.5370  -49.7221 H         1 UNK         0.0800 
    135 H135       -2.8554  -16.6802  -48.4490 H         1 UNK         0.0800 
    136 H136       -1.3310  -16.2984  -51.6999 H         1 UNK         0.1150 
    137 H137        0.2625  -20.2769  -51.8006 H         1 UNK         0.1150 
    138 H138       -1.3312  -18.6732  -48.1539 H         1 UNK         0.1150 
    139 H139       -1.0601  -21.3216  -48.6919 H         1 UNK         0.0800 
    140 H140        0.1043  -21.7021  -49.9256 H         1 UNK         0.0800 
    141 H141       -0.6821  -20.0216  -46.6757 H         1 UNK         0.0800 
    142 H142        0.8586  -19.4705  -46.1042 H         1 UNK         0.0800 
    143 H143        1.2824  -22.0161  -45.5061 H         1 UNK         0.0600 
    144 H144        0.0433  -19.9409  -43.9959 H         1 UNK         0.3000 
    145 H145        0.4765  -21.5220  -40.8272 H         1 UNK         0.0600 
    146 H146        1.8981  -19.6429  -40.3678 H         1 UNK         0.0600 
    147 H147        2.7247  -20.5705  -41.5970 H         1 UNK         0.0600 
    148 H148        1.8709  -19.0948  -42.0453 H         1 UNK         0.0600 
    149 H149       -0.5029  -18.9908  -42.0333 H         1 UNK         0.3000 
    150 H150       -3.9107  -19.8068  -41.4195 H         1 UNK         0.0600 
    151 H151       -3.1816  -18.9251  -39.2236 H         1 UNK         0.0600 
    152 H152       -3.8440  -17.6283  -40.2067 H         1 UNK         0.0600 
    153 H153       -2.0991  -17.7811  -40.0028 H         1 UNK         0.0600 
    154 H154       -2.5613  -17.4819  -42.4557 H         1 UNK         0.3000 
    155 H155       -2.4269  -18.5246  -45.8263 H         1 UNK         0.0600 
    156 H156       -4.9037  -18.1216  -45.6524 H         1 UNK         0.0600 
    157 H157       -4.0618  -16.7435  -46.3411 H         1 UNK         0.0600 
    158 H158       -4.5978  -16.7026  -44.6627 H         1 UNK         0.0600 
    159 H159       -2.2431  -15.9171  -44.8799 H         1 UNK         0.3000 
    160 H160        0.9300  -15.6687  -44.9616 H         1 UNK         0.0600 
    161 H161       -1.4112  -14.3509  -43.4611 H         1 UNK         0.0600 
    162 H162       -1.1156  -14.2794  -45.1962 H         1 UNK         0.0600 
    163 H163        0.0018  -13.5136  -44.0927 H         1 UNK         0.0600 
    164 H164        1.9741  -15.6659  -43.0236 H         1 UNK         0.3000 
    165 H165        1.5707  -14.9250  -40.1189 H         1 UNK         0.0600 
    166 H166        1.7840  -16.9754  -38.6044 H         1 UNK         0.0600 
    167 H167        0.1428  -16.4106  -38.8676 H         1 UNK         0.0600 
    168 H168        0.7152  -17.8314  -39.7183 H         1 UNK         0.0600 
    169 H169        2.8364  -17.3272  -41.3922 H         1 UNK         0.3000 
    170 H170        5.7756  -15.4915  -42.0307 H         1 UNK         0.0600 
    171 H171        6.2433  -16.3481  -39.7236 H         1 UNK         0.0600 
    172 H172        5.4764  -17.8781  -40.1318 H         1 UNK         0.0600 
    173 H173        6.9551  -17.3777  -40.9541 H         1 UNK         0.0600 
    174 H174        5.3385  -18.1570  -42.6285 H         1 UNK         0.3000 
    175 H175        5.3317  -18.4051  -45.0496 H         1 UNK         0.0600 
    176 H176        2.3703  -18.8708  -44.3879 H         1 UNK         0.0600 
    177 H177        3.3402  -19.9605  -45.3745 H         1 UNK         0.0600 
    178 H178        3.7398  -19.7243  -43.6850 H         1 UNK         0.0600 
    179 H179        3.4317  -16.5618  -46.1429 H         1 UNK         0.3000 
    180 H180        4.5641  -17.1954  -49.4097 H         1 UNK         0.0600 
    181 H181        1.6523  -17.5911  -48.5381 H         1 UNK         0.0600 
    182 H182        2.5845  -18.6723  -49.5673 H         1 UNK         0.0600 
    183 H183        2.1715  -17.0680  -50.1397 H         1 UNK         0.0600 
    184 H184        2.6785  -15.3004  -48.5101 H         1 UNK         0.3000 
    185 H185        4.2671  -13.0554  -46.8452 H         1 UNK         0.0600 
    186 H186        6.1751  -12.5448  -48.3423 H         1 UNK         0.0600 
    187 H187        5.1378  -12.6652  -49.7584 H         1 UNK         0.0600 
    188 H188        4.8928  -11.3725  -48.5833 H         1 UNK         0.0600 
    189 H189        2.7258  -12.7320  -49.3160 H         1 UNK         0.3000 
    190 H190       -1.7414  -22.0455  -43.9798 H         1 UNK         0.3000 
    191 H191       -3.4812  -23.3603  -45.6716 H         1 UNK         0.0600 
    192 H192       -4.1170  -22.5391  -43.4349 H         1 UNK         0.0600 
    193 H193       -4.4974  -24.2479  -43.5417 H         1 UNK         0.0600 
    194 H194       -3.0699  -23.7225  -42.6550 H         1 UNK         0.0600 
    195 H195       -0.6850  -24.7524  -44.0388 H         1 UNK         0.3000 
    196 H196       -1.2427  -27.5202  -44.4414 H         1 UNK         0.0600 
    197 H197        1.2046  -27.7636  -43.9661 H         1 UNK         0.0600 
    198 H198        0.4315  -26.6901  -42.8109 H         1 UNK         0.0600 
    199 H199        1.4136  -26.0221  -44.1146 H         1 UNK         0.0600 
    200 H200       -0.1439  -25.0394  -46.6884 H         1 UNK         0.3000 
    201 H201        0.8633  -26.9888  -48.6714 H         1 UNK         0.0600 
    202 H202        2.0742  -24.8191  -48.2758 H         1 UNK         0.0600 
    203 H203        0.6429  -23.9360  -48.8009 H         1 UNK         0.0600 
    204 H204        1.4983  -24.9761  -49.9273 H         1 UNK         0.0600 
    205 H205       -2.1230  -25.7734  -47.7187 H         1 UNK         0.3000 
    206 H206       -4.1802  -25.8411  -48.4203 H         1 UNK         0.0600 
    207 H207       -3.6227  -28.1629  -49.1296 H         1 UNK         0.0600 
    208 H208       -4.8692  -27.4597  -50.1470 H         1 UNK         0.0600 
    209 H209       -3.2240  -27.5859  -50.7480 H         1 UNK         0.0600 
    210 H210       -1.9411  -24.3995  -50.5696 H         1 UNK         0.3000 
    211 H211       -3.7973  -23.3244  -52.4845 H         1 UNK         0.0600 
    212 H212       -1.4299  -23.6699  -53.0345 H         1 UNK         0.0600 
    213 H213       -0.9264  -22.5390  -51.7835 H         1 UNK         0.0600 
    214 H214       -1.8157  -21.9637  -53.1864 H         1 UNK         0.0600 
    215 H215       -3.3827  -22.5134  -49.2566 H         1 UNK         0.3000 
    216 H216       -3.5129  -19.7070  -49.1341 H         1 UNK         0.0600 
    217 H217       -4.4179  -20.1425  -46.8273 H         1 UNK         0.0600 
    218 H218       -2.9897  -21.0986  -47.1752 H         1 UNK         0.0600 
    219 H219       -4.5867  -21.8441  -47.2247 H         1 UNK         0.0600 
    220 H220       -4.8850  -18.5731  -50.2969 H         1 UNK         0.3000 
    221 H221       -6.6658  -17.5880  -51.1088 H         1 UNK         0.0600 
    222 H222       -8.3605  -18.9639  -48.9621 H         1 UNK         0.0600 
    223 H223       -7.4591  -17.4660  -48.7307 H         1 UNK         0.0600 
    224 H224       -8.7854  -17.5264  -49.8782 H         1 UNK         0.0600 
    225 H225       -5.8398  -20.2869  -52.0938 H         1 UNK         0.3000 
    226 H226       -8.2493  -21.4423  -53.2982 H         1 UNK         0.0600 
    227 H227       -6.2149  -22.8235  -52.7454 H         1 UNK         0.0600 
    228 H228       -6.6098  -22.8955  -54.4538 H         1 UNK         0.0600 
    229 H229       -5.2740  -21.8888  -53.9120 H         1 UNK         0.0600 
    230 H230       -8.4632  -21.5529  -55.6771 H         1 UNK         0.3000 
    231 H231       -8.5974  -19.0402  -56.9082 H         1 UNK         0.0600 
    232 H232       -8.7018  -21.8422  -58.1489 H         1 UNK         0.0600 
    233 H233       -9.2652  -20.3664  -58.9236 H         1 UNK         0.0600 
    234 H234      -10.0687  -20.9516  -57.4767 H         1 UNK         0.0600 
    235 H235       -5.9013  -21.2350  -56.8312 H         1 UNK         0.3000 
    236 H236       -4.4564  -20.2340  -59.1190 H         1 UNK         0.0600 
    237 H237       -4.0412  -22.4873  -58.1486 H         1 UNK         0.0600 
    238 H238       -2.5763  -21.5199  -58.0956 H         1 UNK         0.0600 
    239 H239       -3.5165  -21.7600  -56.6285 H         1 UNK         0.0600 
    240 H240       -4.9006  -19.0639  -55.8329 H         1 UNK         0.3000 
    241 H241       -2.6899  -17.0738  -56.1535 H         1 UNK         0.0600 
    242 H242       -6.1741  -17.4757  -55.2531 H         1 UNK         0.3800 
    243 H243       -6.4427  -15.7471  -55.2077 H         1 UNK         0.3800 
    244 H244       -2.6431  -17.0405  -53.6196 H         1 UNK         0.0800 
    245 H245       -3.6928  -18.4329  -53.6062 H         1 UNK         0.0800 
    246 H246        0.7496  -18.5706  -53.6226 H         1 UNK         0.0800 
    247 H247       -0.1821  -17.0969  -53.6982 H         1 UNK         0.0800 
@<TRIPOS>BOND
     1    1    2 1    
     2    1  127 1    
     3    1  128 1    
     4    1  129 1    
     5    2    3 2    
     6    2    4 am   BACKBONE|DICT|INTERRES
     7    4    5 1    
     8    4  130 1    
     9    5    6 1    
    10    5   65 1    
    11    5  131 1    
    12    6    7 1    
    13    6  132 1    
    14    6  133 1    
    15    7    8 1    
    16    8    9 1    
    17    8  134 1    
    18    8  135 1    
    19    9   10 ar   
    20    9   14 ar   
    21   10   11 ar   
    22   10  136 1    
    23   11   12 ar   
    24   11  126 1    
    25   12   13 ar   
    26   12  137 1    
    27   13   14 ar   
    28   13   15 1    
    29   14  138 1    
    30   15   16 1    
    31   15  139 1    
    32   15  140 1    
    33   16   17 1    
    34   17   18 1    
    35   17  141 1    
    36   17  142 1    
    37   18   19 1    
    38   18   67 1    
    39   18  143 1    
    40   19   20 am   BACKBONE|DICT|INTERRES
    41   19  144 1    
    42   20   21 2    
    43   20   22 1    
    44   22   23 1    
    45   22   24 1    
    46   22  145 1    
    47   23  146 1    
    48   23  147 1    
    49   23  148 1    
    50   24   25 am   BACKBONE|DICT|INTERRES
    51   24  149 1    
    52   25   26 2    
    53   25   27 1    
    54   27   28 1    
    55   27   29 1    
    56   27  150 1    
    57   28  151 1    
    58   28  152 1    
    59   28  153 1    
    60   29   30 am   BACKBONE|DICT|INTERRES
    61   29  154 1    
    62   30   31 2    
    63   30   32 1    
    64   32   33 1    
    65   32   34 1    
    66   32  155 1    
    67   33  156 1    
    68   33  157 1    
    69   33  158 1    
    70   34   35 am   BACKBONE|DICT|INTERRES
    71   34  159 1    
    72   35   36 2    
    73   35   37 1    
    74   37   38 1    
    75   37   39 1    
    76   37  160 1    
    77   38  161 1    
    78   38  162 1    
    79   38  163 1    
    80   39   40 am   BACKBONE|DICT|INTERRES
    81   39  164 1    
    82   40   41 2    
    83   40   42 1    
    84   42   43 1    
    85   42   44 1    
    86   42  165 1    
    87   43  166 1    
    88   43  167 1    
    89   43  168 1    
    90   44   45 am   BACKBONE|DICT|INTERRES
    91   44  169 1    
    92   45   46 2    
    93   45   47 1    
    94   47   48 1    
    95   47   49 1    
    96   47  170 1    
    97   48  171 1    
    98   48  172 1    
    99   48  173 1    
   100   49   50 am   BACKBONE|DICT|INTERRES
   101   49  174 1    
   102   50   51 2    
   103   50   52 1    
   104   52   53 1    
   105   52   54 1    
   106   52  175 1    
   107   53  176 1    
   108   53  177 1    
   109   53  178 1    
   110   54   55 am   BACKBONE|DICT|INTERRES
   111   54  179 1    
   112   55   56 2    
   113   55   57 1    
   114   57   58 1    
   115   57   59 1    
   116   57  180 1    
   117   58  181 1    
   118   58  182 1    
   119   58  183 1    
   120   59   60 am   BACKBONE|DICT|INTERRES
   121   59  184 1    
   122   60   61 2    
   123   60   62 1    
   124   62   63 1    
   125   62   64 1    
   126   62  185 1    
   127   63  186 1    
   128   63  187 1    
   129   63  188 1    
   130   64   65 am   BACKBONE|DICT|INTERRES
   131   64  189 1    
   132   65   66 2    
   133   67   68 2    
   134   67   69 am   BACKBONE|DICT|INTERRES
   135   69   70 1    
   136   69  190 1    
   137   70   71 1    
   138   70   72 1    
   139   70  191 1    
   140   71  192 1    
   141   71  193 1    
   142   71  194 1    
   143   72   73 2    
   144   72   74 am   BACKBONE|DICT|INTERRES
   145   74   75 1    
   146   74  195 1    
   147   75   76 1    
   148   75   77 1    
   149   75  196 1    
   150   76  197 1    
   151   76  198 1    
   152   76  199 1    
   153   77   78 2    
   154   77   79 am   BACKBONE|DICT|INTERRES
   155   79   80 1    
   156   79  200 1    
   157   80   81 1    
   158   80   82 1    
   159   80  201 1    
   160   81  202 1    
   161   81  203 1    
   162   81  204 1    
   163   82   83 2    
   164   82   84 am   BACKBONE|DICT|INTERRES
   165   84   85 1    
   166   84  205 1    
   167   85   86 1    
   168   85   87 1    
   169   85  206 1    
   170   86  207 1    
   171   86  208 1    
   172   86  209 1    
   173   87   88 2    
   174   87   89 am   BACKBONE|DICT|INTERRES
   175   89   90 1    
   176   89  210 1    
   177   90   91 1    
   178   90   92 1    
   179   90  211 1    
   180   91  212 1    
   181   91  213 1    
   182   91  214 1    
   183   92   93 2    
   184   92   94 am   BACKBONE|DICT|INTERRES
   185   94   95 1    
   186   94  215 1    
   187   95   96 1    
   188   95   97 1    
   189   95  216 1    
   190   96  217 1    
   191   96  218 1    
   192   96  219 1    
   193   97   98 2    
   194   97   99 am   BACKBONE|DICT|INTERRES
   195   99  100 1    
   196   99  220 1    
   197  100  101 1    
   198  100  102 1    
   199  100  221 1    
   200  101  222 1    
   201  101  223 1    
   202  101  224 1    
   203  102  103 2    
   204  102  104 am   BACKBONE|DICT|INTERRES
   205  104  105 1    
   206  104  225 1    
   207  105  106 1    
   208  105  107 1    
   209  105  226 1    
   210  106  227 1    
   211  106  228 1    
   212  106  229 1    
   213  107  108 2    
   214  107  109 am   BACKBONE|DICT|INTERRES
   215  109  110 1    
   216  109  230 1    
   217  110  111 1    
   218  110  112 1    
   219  110  231 1    
   220  111  232 1    
   221  111  233 1    
   222  111  234 1    
   223  112  113 2    
   224  112  114 am   BACKBONE|DICT|INTERRES
   225  114  115 1    
   226  114  235 1    
   227  115  116 1    
   228  115  117 1    
   229  115  236 1    
   230  116  237 1    
   231  116  238 1    
   232  116  239 1    
   233  117  118 2    
   234  117  119 am   BACKBONE|DICT|INTERRES
   235  119  120 1    
   236  119  240 1    
   237  120  121 1    
   238  120  124 1    
   239  120  241 1    
   240  121  122 am   BACKBONE|DICT|INTERRES
   241  121  123 2    
   242  122  242 1    
   243  122  243 1    
   244  124  125 1    
   245  124  244 1    
   246  124  245 1    
   247  125  126 1    
   248  126  246 1    
   249  126  247 1    
@<TRIPOS>SUBSTRUCTURE
     1 UNK         1 GROUP             0       ****    0 ROOT    
