@<TRIPOS>MOLECULE
3R540
247   249    1
SMALL
USER_CHARGES


@<TRIPOS>ATOM
      1 CA          7.5049  -14.7016  -48.3742 C.3       0 UNK        -0.1800 
      2 C           6.5044  -13.7414  -49.0157 C.2       0 UNK         0.5000 
      3 O           6.8257  -13.1321  -50.0339 O.2       0 UNK        -0.5000 
      4 N           5.2868  -13.5714  -48.4787 N.am      1 UNK        -0.5000 
      5 CA          4.7618  -14.1724  -47.2450 C.3       1 UNK         0.1400 
      6 C6          3.2259  -13.9699  -47.1277 C.3       23 UNK        -0.0398 
      7 S7          2.2996  -15.4209  -47.7193 S.3       23 UNK        -0.2404 
      8 C8          1.8342  -14.9324  -49.4068 C.3       23 UNK        -0.0205 
      9 C9          0.8025  -15.8904  -49.9866 C.ar      23 UNK        -0.0193 
     10 C10        -0.4953  -15.4496  -50.2599 C.ar      23 UNK        -0.1150 
     11 C11        -1.4437  -16.3242  -50.7968 C.ar      23 UNK        -0.0193 
     12 C12        -1.0925  -17.6553  -51.0357 C.ar      23 UNK        -0.1150 
     13 C13         0.1986  -18.1171  -50.7657 C.ar      23 UNK        -0.0193 
     14 C14         1.1469  -17.2184  -50.2582 C.ar      23 UNK        -0.1150 
     15 C15         0.5303  -19.5817  -51.0610 C.3       23 UNK        -0.0205 
     16 S16         1.8643  -20.3012  -50.0409 S.3       23 UNK        -0.2404 
     17 C17         1.1629  -20.1353  -48.3661 C.3       23 UNK        -0.0398 
     18 CA          0.7806  -21.4863  -47.7199 C.3       11 UNK         0.1400 
     19 N           0.6335  -21.3512  -46.2710 N.am      11 UNK        -0.5000 
     20 C           0.4326  -22.3535  -45.4066 C.2       10 UNK         0.5000 
     21 O           0.4106  -23.5416  -45.7267 O.2       10 UNK        -0.5000 
     22 CA          0.1550  -21.9495  -43.9472 C.3       10 UNK         0.1400 
     23 CB          1.4608  -21.6515  -43.1953 C.3       10 UNK        -0.1800 
     24 N          -0.7404  -20.7938  -43.8594 N.am      10 UNK        -0.5000 
     25 C          -2.0322  -20.8172  -44.2181 C.2       9 UNK         0.5000 
     26 O          -2.6108  -21.8302  -44.6112 O.2       9 UNK        -0.5000 
     27 CA         -2.7952  -19.4805  -44.1632 C.3       9 UNK         0.1400 
     28 CB         -3.2542  -19.1793  -42.7290 C.3       9 UNK        -0.1800 
     29 N          -2.0075  -18.3562  -44.6707 N.am      9 UNK        -0.5000 
     30 C          -1.5912  -18.2337  -45.9396 C.2       8 UNK         0.5000 
     31 O          -1.8750  -19.0317  -46.8297 O.2       8 UNK        -0.5000 
     32 CA         -0.6496  -17.0606  -46.2595 C.3       8 UNK         0.1400 
     33 CB         -1.4448  -15.7825  -46.5503 C.3       8 UNK        -0.1800 
     34 N           0.3250  -16.8111  -45.1967 N.am      8 UNK        -0.5000 
     35 C           1.2639  -17.6880  -44.8146 C.2       7 UNK         0.5000 
     36 O           1.3876  -18.8099  -45.3023 O.2       7 UNK        -0.5000 
     37 CA          2.1997  -17.2631  -43.6748 C.3       7 UNK         0.1400 
     38 CB          3.3717  -16.4293  -44.2049 C.3       7 UNK        -0.1800 
     39 N           1.4869  -16.5174  -42.6414 N.am      7 UNK        -0.5000 
     40 C           0.7109  -17.0884  -41.7114 C.2       6 UNK         0.5000 
     41 O           0.5640  -18.3056  -41.5926 O.2       6 UNK        -0.5000 
     42 CA         -0.0569  -16.1316  -40.7816 C.3       6 UNK         0.1400 
     43 CB          0.8444  -15.6486  -39.6355 C.3       6 UNK        -0.1800 
     44 N          -0.6034  -14.9726  -41.4899 N.am      6 UNK        -0.5000 
     45 C          -1.5578  -15.0435  -42.4288 C.2       5 UNK         0.5000 
     46 O          -2.0796  -16.0960  -42.7955 O.2       5 UNK        -0.5000 
     47 CA         -1.9825  -13.7230  -43.0973 C.3       5 UNK         0.1400 
     48 CB         -3.1187  -13.0640  -42.3011 C.3       5 UNK        -0.1800 
     49 N          -0.9008  -12.7526  -43.2801 N.am      5 UNK        -0.5000 
     50 C           0.2596  -12.9676  -43.9155 C.2       4 UNK         0.5000 
     51 O           0.6010  -14.0610  -44.3699 O.2       4 UNK        -0.5000 
     52 CA          1.2148  -11.7670  -44.0696 C.3       4 UNK         0.1400 
     53 CB          0.6650  -10.4342  -43.5121 C.3       4 UNK        -0.1800 
     54 N           2.5350  -12.0491  -43.5036 N.am      4 UNK        -0.5000 
     55 C           2.8282  -12.3868  -42.2384 C.2       3 UNK         0.5000 
     56 O           1.9801  -12.5332  -41.3565 O.2       3 UNK        -0.5000 
     57 CA          4.3181  -12.6110  -41.8998 C.3       3 UNK         0.1400 
     58 CB          4.5269  -13.9653  -41.2025 C.3       3 UNK        -0.1800 
     59 N           5.1858  -12.5478  -43.0804 N.am      3 UNK        -0.5000 
     60 C           5.7270  -11.4405  -43.6019 C.2       2 UNK         0.5000 
     61 O           5.5852  -10.3207  -43.1110 O.2       2 UNK        -0.5000 
     62 CA          6.5250  -11.5970  -44.9148 C.3       2 UNK         0.1400 
     63 CB          7.9330  -12.1638  -44.6490 C.3       2 UNK        -0.1800 
     64 N           5.8304  -12.3536  -45.9710 N.am      2 UNK        -0.5000 
     65 C           5.4836  -13.6500  -45.9850 C.2       1 UNK         0.5000 
     66 O           5.7143  -14.4297  -45.0618 O.2       1 UNK        -0.5000 
     67 C          -0.4788  -22.1043  -48.3625 C.2       11 UNK         0.5000 
     68 O          -0.3581  -23.0513  -49.1380 O.2       11 UNK        -0.5000 
     69 N          -1.6630  -21.6029  -47.9842 N.am      12 UNK        -0.5000 
     70 CA         -2.9636  -22.1184  -48.4094 C.3       12 UNK         0.1400 
     71 CB         -4.0782  -21.2193  -47.8626 C.3       12 UNK        -0.1800 
     72 C          -3.1998  -23.5744  -47.9786 C.2       12 UNK         0.5000 
     73 O          -3.6972  -24.3654  -48.7792 O.2       12 UNK        -0.5000 
     74 N          -2.8146  -23.9128  -46.7399 N.am      13 UNK        -0.5000 
     75 CA         -2.8722  -25.2720  -46.2024 C.3       13 UNK         0.1400 
     76 CB         -2.5644  -25.2519  -44.6977 C.3       13 UNK        -0.1800 
     77 C          -1.9356  -26.2397  -46.9487 C.2       13 UNK         0.5000 
     78 O          -2.3570  -27.3464  -47.2849 O.2       13 UNK        -0.5000 
     79 N          -0.7042  -25.7926  -47.2347 N.am      14 UNK        -0.5000 
     80 CA          0.2936  -26.5333  -48.0106 C.3       14 UNK         0.1400 
     81 CB          1.6473  -25.8119  -47.9257 C.3       14 UNK        -0.1800 
     82 C          -0.1230  -26.7464  -49.4791 C.2       14 UNK         0.5000 
     83 O           0.0943  -27.8300  -50.0222 O.2       14 UNK        -0.5000 
     84 N          -0.7397  -25.7220  -50.0835 N.am      15 UNK        -0.5000 
     85 CA         -1.2941  -25.7514  -51.4389 C.3       15 UNK         0.1400 
     86 CB         -1.5324  -24.3054  -51.9057 C.3       15 UNK        -0.1800 
     87 C          -2.5986  -26.5659  -51.5572 C.2       15 UNK         0.5000 
     88 O          -3.0043  -26.8808  -52.6763 O.2       15 UNK        -0.5000 
     89 N          -3.2382  -26.8654  -50.4158 N.am      16 UNK        -0.5000 
     90 CA         -4.5608  -27.4803  -50.2651 C.3       16 UNK         0.1400 
     91 CB         -4.5577  -28.9384  -50.7688 C.3       16 UNK        -0.1800 
     92 C          -5.6621  -26.6095  -50.9049 C.2       16 UNK         0.5000 
     93 O          -6.4799  -27.1029  -51.6838 O.2       16 UNK        -0.5000 
     94 N          -5.6138  -25.3058  -50.5958 N.am      17 UNK        -0.5000 
     95 CA         -6.4317  -24.1898  -51.0873 C.3       17 UNK         0.1400 
     96 CB         -7.9254  -24.3972  -50.7774 C.3       17 UNK        -0.1800 
     97 C          -6.2147  -23.8355  -52.5715 C.2       17 UNK         0.5000 
     98 O          -6.2195  -22.6499  -52.9023 O.2       17 UNK        -0.5000 
     99 N          -6.0175  -24.8454  -53.4298 N.am      18 UNK        -0.5000 
    100 CA        -5.7670  -24.7588  -54.8714 C.3       18 UNK         0.1400 
    101 CB        -4.3293  -24.2522  -55.1236 C.3       18 UNK        -0.1800 
    102 C         -6.8585  -23.9489  -55.6082 C.2       18 UNK         0.5000 
    103 O         -8.0429  -24.1036  -55.3006 O.2       18 UNK        -0.5000 
    104 N         -6.4568  -23.0802  -56.5440 N.am      19 UNK        -0.5000 
    105 CA        -7.3243  -22.1523  -57.2717 C.3       19 UNK         0.1400 
    106 CB        -6.6923  -21.8649  -58.6460 C.3       19 UNK        -0.1800 
    107 C         -7.5830  -20.8695  -56.4508 C.2       19 UNK         0.5000 
    108 O         -7.3201  -19.7656  -56.9315 O.2       19 UNK        -0.5000 
    109 N         -8.0724  -21.0491  -55.2148 N.am      20 UNK        -0.5000 
    110 CA        -8.3462  -20.0219  -54.2025 C.3       20 UNK         0.1400 
    111 CB        -9.5226  -19.1234  -54.6375 C.3       20 UNK        -0.1800 
    112 C         -7.0850  -19.2227  -53.8082 C.2       20 UNK         0.5000 
    113 O         -7.1230  -17.9943  -53.7064 O.2       20 UNK        -0.5000 
    114 N         -5.9811  -19.9439  -53.5808 N.am      21 UNK        -0.5000 
    115 CA        -4.6827  -19.4152  -53.1725 C.3       21 UNK         0.1400 
    116 CB        -3.5854  -20.3992  -53.6195 C.3       21 UNK        -0.1800 
    117 C         -4.6645  -19.1598  -51.6545 C.2       21 UNK         0.5000 
    118 O         -3.9829  -19.8714  -50.9179 O.2       21 UNK        -0.5000 
    119 N         -5.4443  -18.1613  -51.2199 N.am      22 UNK        -0.5000 
    120 CA        -5.6303  -17.7334  -49.8200 C.3       22 UNK         0.1400 
    121 C         -6.4068  -18.7449  -48.9199 C.2       22 UNK         0.5000 
    122 N         -6.9931  -19.8067  -49.4603 N.am      22 UNK        -0.7600 
    123 O         -6.5275  -18.5397  -47.7155 O.2       22 UNK        -0.5000 
    124 C124       -4.3161  -17.2066  -49.1648 C.3       23 UNK        -0.0398 
    125 S125       -3.8982  -15.5215  -49.7305 S.3       23 UNK        -0.2404 
    126 C126       -2.8276  -15.8155  -51.1724 C.3       23 UNK        -0.0205 
    127 H127        7.9360  -14.2637  -47.4741 H         1 UNK         0.0600 
    128 H128        8.3222  -14.9126  -49.0642 H         1 UNK         0.0600 
    129 H129        7.0426  -15.6541  -48.1180 H         1 UNK         0.0600 
    130 H130        4.6533  -12.9439  -48.9522 H         1 UNK         0.3000 
    131 H131        4.9661  -15.2441  -47.2810 H         1 UNK         0.0600 
    132 H132        2.9092  -13.8223  -46.0941 H         1 UNK         0.0800 
    133 H133        2.8955  -13.0712  -47.6505 H         1 UNK         0.0800 
    134 H134        1.4430  -13.9141  -49.3953 H         1 UNK         0.0800 
    135 H135        2.7224  -14.9219  -50.0400 H         1 UNK         0.0800 
    136 H136       -0.7685  -14.4215  -50.0677 H         1 UNK         0.1150 
    137 H137       -1.8235  -18.3347  -51.4487 H         1 UNK         0.1150 
    138 H138        2.1559  -17.5471  -50.0557 H         1 UNK         0.1150 
    139 H139       -0.3628  -20.1968  -50.9345 H         1 UNK         0.0800 
    140 H140        0.8151  -19.6642  -52.1104 H         1 UNK         0.0800 
    141 H141        0.3141  -19.4510  -48.3690 H         1 UNK         0.0800 
    142 H142        1.9307  -19.6452  -47.7664 H         1 UNK         0.0800 
    143 H143        1.6050  -22.1841  -47.8814 H         1 UNK         0.0600 
    144 H144        0.6976  -20.4052  -45.9011 H         1 UNK         0.3000 
    145 H145       -0.3329  -22.7936  -43.4552 H         1 UNK         0.0600 
    146 H146        1.2668  -21.4093  -42.1501 H         1 UNK         0.0600 
    147 H147        2.1247  -22.5166  -43.2118 H         1 UNK         0.0600 
    148 H148        2.0027  -20.8146  -43.6359 H         1 UNK         0.0600 
    149 H149       -0.3319  -19.9194  -43.5598 H         1 UNK         0.3000 
    150 H150       -3.6827  -19.5786  -44.7919 H         1 UNK         0.0600 
    151 H151       -3.8389  -20.0055  -42.3225 H         1 UNK         0.0600 
    152 H152       -3.8831  -18.2894  -42.6967 H         1 UNK         0.0600 
    153 H153       -2.4071  -19.0134  -42.0618 H         1 UNK         0.0600 
    154 H154       -1.7778  -17.6241  -44.0048 H         1 UNK         0.3000 
    155 H155       -0.0916  -17.3185  -47.1619 H         1 UNK         0.0600 
    156 H156       -2.0883  -15.5123  -45.7150 H         1 UNK         0.0600 
    157 H157       -0.7838  -14.9414  -46.7606 H         1 UNK         0.0600 
    158 H158       -2.0816  -15.9200  -47.4233 H         1 UNK         0.0600 
    159 H159        0.3283  -15.8807  -44.7874 H         1 UNK         0.3000 
    160 H160        2.6130  -18.1744  -43.2368 H         1 UNK         0.0600 
    161 H161        3.0638  -15.4128  -44.4440 H         1 UNK         0.0600 
    162 H162        3.7966  -16.8679  -45.1090 H         1 UNK         0.0600 
    163 H163        4.1755  -16.3737  -43.4723 H         1 UNK         0.0600 
    164 H164        1.4848  -15.5100  -42.7235 H         1 UNK         0.3000 
    165 H165       -0.8917  -16.6874  -40.3493 H         1 UNK         0.0600 
    166 H166        0.2874  -15.0341  -38.9280 H         1 UNK         0.0600 
    167 H167        1.2559  -16.4922  -39.0797 H         1 UNK         0.0600 
    168 H168        1.6831  -15.0573  -40.0045 H         1 UNK         0.0600 
    169 H169       -0.2009  -14.0705  -41.2741 H         1 UNK         0.3000 
    170 H170       -2.3675  -13.9646  -44.0880 H         1 UNK         0.0600 
    171 H171       -2.7872  -12.7524  -41.3098 H         1 UNK         0.0600 
    172 H172       -3.5062  -12.1858  -42.8179 H         1 UNK         0.0600 
    173 H173       -3.9531  -13.7538  -42.1666 H         1 UNK         0.0600 
    174 H174       -1.0723  -11.8259  -42.9183 H         1 UNK         0.3000 
    175 H175        1.3608  -11.6385  -45.1430 H         1 UNK         0.0600 
    176 H176        1.3679   -9.6208  -43.6930 H         1 UNK         0.0600 
    177 H177        0.4861  -10.4777  -42.4371 H         1 UNK         0.0600 
    178 H178       -0.2712  -10.1570  -43.9984 H         1 UNK         0.0600 
    179 H179        3.3100  -11.9786  -44.1445 H         1 UNK         0.3000 
    180 H180        4.6108  -11.8250  -41.2009 H         1 UNK         0.0600 
    181 H181        4.1618  -14.7914  -41.8107 H         1 UNK         0.0600 
    182 H182        3.9957  -14.0012  -40.2507 H         1 UNK         0.0600 
    183 H183        5.5811  -14.1431  -40.9897 H         1 UNK         0.0600 
    184 H184        5.3508  -13.4207  -43.5781 H         1 UNK         0.3000 
    185 H185        6.6563  -10.5912  -45.3174 H         1 UNK         0.0600 
    186 H186        8.4785  -11.5328  -43.9463 H         1 UNK         0.0600 
    187 H187        7.8997  -13.1672  -44.2240 H         1 UNK         0.0600 
    188 H188        8.5187  -12.2086  -45.5672 H         1 UNK         0.0600 
    189 H189        5.5902  -11.8080  -46.7874 H         1 UNK         0.3000 
    190 H190       -1.6833  -20.7799  -47.3860 H         1 UNK         0.3000 
    191 H191       -2.9953  -22.0797  -49.5001 H         1 UNK         0.0600 
    192 H192       -3.9456  -20.1905  -48.1945 H         1 UNK         0.0600 
    193 H193       -5.0541  -21.5537  -48.2153 H         1 UNK         0.0600 
    194 H194       -4.1043  -21.2156  -46.7733 H         1 UNK         0.0600 
    195 H195       -2.4665  -23.1887  -46.1198 H         1 UNK         0.3000 
    196 H196       -3.8939  -25.6355  -46.3311 H         1 UNK         0.0600 
    197 H197       -2.6348  -26.2535  -44.2720 H         1 UNK         0.0600 
    198 H198       -3.2710  -24.6192  -44.1602 H         1 UNK         0.0600 
    199 H199       -1.5611  -24.8786  -44.4936 H         1 UNK         0.0600 
    200 H200       -0.4217  -24.8817  -46.8833 H         1 UNK         0.3000 
    201 H201        0.4064  -27.5183  -47.5530 H         1 UNK         0.0600 
    202 H202        1.9833  -25.7258  -46.8922 H         1 UNK         0.0600 
    203 H203        1.5955  -24.8063  -48.3439 H         1 UNK         0.0600 
    204 H204        2.4162  -26.3572  -48.4743 H         1 UNK         0.0600 
    205 H205       -0.8030  -24.8340  -49.5908 H         1 UNK         0.3000 
    206 H206       -0.5582  -26.2094  -52.1028 H         1 UNK         0.0600 
    207 H207       -0.6114  -23.7229  -51.8748 H         1 UNK         0.0600 
    208 H208       -1.8979  -24.2775  -52.9324 H         1 UNK         0.0600 
    209 H209       -2.2696  -23.7989  -51.2814 H         1 UNK         0.0600 
    210 H210       -2.8210  -26.5313  -49.5571 H         1 UNK         0.3000 
    211 H211       -4.7679  -27.5016  -49.1941 H         1 UNK         0.0600 
    212 H212       -4.4048  -28.9988  -51.8465 H         1 UNK         0.0600 
    213 H213       -5.5066  -29.4278  -50.5467 H         1 UNK         0.0600 
    214 H214       -3.7718  -29.5188  -50.2854 H         1 UNK         0.0600 
    215 H215       -4.8683  -25.0185  -49.9615 H         1 UNK         0.3000 
    216 H216       -6.0994  -23.3214  -50.5157 H         1 UNK         0.0600 
    217 H217       -8.5017  -23.5095  -51.0413 H         1 UNK         0.0600 
    218 H218       -8.0854  -24.5853  -49.7158 H         1 UNK         0.0600 
    219 H219       -8.3467  -25.2337  -51.3354 H         1 UNK         0.0600 
    220 H220       -6.0945  -25.7835  -53.0486 H         1 UNK         0.3000 
    221 H221       -5.8334  -25.7776  -55.2550 H         1 UNK         0.0600 
    222 H222       -4.1968  -23.2202  -54.7976 H         1 UNK         0.0600 
    223 H223       -3.6057  -24.8634  -54.5848 H         1 UNK         0.0600 
    224 H224       -4.0632  -24.3102  -56.1795 H         1 UNK         0.0600 
    225 H225       -5.4658  -22.9847  -56.7120 H         1 UNK         0.3000 
    226 H226       -8.2933  -22.6243  -57.4468 H         1 UNK         0.0600 
    227 H227       -6.5557  -22.7839  -59.2164 H         1 UNK         0.0600 
    228 H228       -7.3291  -21.2084  -59.2405 H         1 UNK         0.0600 
    229 H229       -5.7190  -21.3821  -58.5498 H         1 UNK         0.0600 
    230 H230       -8.2174  -22.0076  -54.9172 H         1 UNK         0.3000 
    231 H231       -8.6571  -20.5566  -53.3039 H         1 UNK         0.0600 
    232 H232       -9.2717  -18.5181  -55.5091 H         1 UNK         0.0600 
    233 H233       -9.8080  -18.4398  -53.8371 H         1 UNK         0.0600 
    234 H234      -10.4023  -19.7179  -54.8840 H         1 UNK         0.0600 
    235 H235       -6.0630  -20.9593  -53.5736 H         1 UNK         0.3000 
    236 H236       -4.5037  -18.4630  -53.6762 H         1 UNK         0.0600 
    237 H237       -2.5951  -20.0259  -53.3558 H         1 UNK         0.0600 
    238 H238       -3.7031  -21.3766  -53.1494 H         1 UNK         0.0600 
    239 H239       -3.6024  -20.5438  -54.6997 H         1 UNK         0.0600 
    240 H240       -6.0137  -17.6803  -51.9071 H         1 UNK         0.3000 
    241 H241       -6.3196  -16.8904  -49.8796 H         1 UNK         0.0600 
    242 H242       -6.9006  -19.9947  -50.4442 H         1 UNK         0.3800 
    243 H243       -7.5150  -20.4345  -48.8706 H         1 UNK         0.3800 
    244 H244       -4.4188  -17.1370  -48.0809 H         1 UNK         0.0800 
    245 H245       -3.4766  -17.8828  -49.3265 H         1 UNK         0.0800 
    246 H246       -3.3185  -16.4983  -51.8652 H         1 UNK         0.0800 
    247 H247       -2.7184  -14.8750  -51.7142 H         1 UNK         0.0800 
@<TRIPOS>BOND
     1    1    2 1    
     2    1  127 1    
     3    1  128 1    
     4    1  129 1    
     5    2    3 2    
     6    2    4 am   BACKBONE|DICT|INTERRES
     7    4    5 1    
     8    4  130 1    
     9    5    6 1    
    10    5   65 1    
    11    5  131 1    
    12    6    7 1    
    13    6  132 1    
    14    6  133 1    
    15    7    8 1    
    16    8    9 1    
    17    8  134 1    
    18    8  135 1    
    19    9   10 ar   
    20    9   14 ar   
    21   10   11 ar   
    22   10  136 1    
    23   11   12 ar   
    24   11  126 1    
    25   12   13 ar   
    26   12  137 1    
    27   13   14 ar   
    28   13   15 1    
    29   14  138 1    
    30   15   16 1    
    31   15  139 1    
    32   15  140 1    
    33   16   17 1    
    34   17   18 1    
    35   17  141 1    
    36   17  142 1    
    37   18   19 1    
    38   18   67 1    
    39   18  143 1    
    40   19   20 am   BACKBONE|DICT|INTERRES
    41   19  144 1    
    42   20   21 2    
    43   20   22 1    
    44   22   23 1    
    45   22   24 1    
    46   22  145 1    
    47   23  146 1    
    48   23  147 1    
    49   23  148 1    
    50   24   25 am   BACKBONE|DICT|INTERRES
    51   24  149 1    
    52   25   26 2    
    53   25   27 1    
    54   27   28 1    
    55   27   29 1    
    56   27  150 1    
    57   28  151 1    
    58   28  152 1    
    59   28  153 1    
    60   29   30 am   BACKBONE|DICT|INTERRES
    61   29  154 1    
    62   30   31 2    
    63   30   32 1    
    64   32   33 1    
    65   32   34 1    
    66   32  155 1    
    67   33  156 1    
    68   33  157 1    
    69   33  158 1    
    70   34   35 am   BACKBONE|DICT|INTERRES
    71   34  159 1    
    72   35   36 2    
    73   35   37 1    
    74   37   38 1    
    75   37   39 1    
    76   37  160 1    
    77   38  161 1    
    78   38  162 1    
    79   38  163 1    
    80   39   40 am   BACKBONE|DICT|INTERRES
    81   39  164 1    
    82   40   41 2    
    83   40   42 1    
    84   42   43 1    
    85   42   44 1    
    86   42  165 1    
    87   43  166 1    
    88   43  167 1    
    89   43  168 1    
    90   44   45 am   BACKBONE|DICT|INTERRES
    91   44  169 1    
    92   45   46 2    
    93   45   47 1    
    94   47   48 1    
    95   47   49 1    
    96   47  170 1    
    97   48  171 1    
    98   48  172 1    
    99   48  173 1    
   100   49   50 am   BACKBONE|DICT|INTERRES
   101   49  174 1    
   102   50   51 2    
   103   50   52 1    
   104   52   53 1    
   105   52   54 1    
   106   52  175 1    
   107   53  176 1    
   108   53  177 1    
   109   53  178 1    
   110   54   55 am   BACKBONE|DICT|INTERRES
   111   54  179 1    
   112   55   56 2    
   113   55   57 1    
   114   57   58 1    
   115   57   59 1    
   116   57  180 1    
   117   58  181 1    
   118   58  182 1    
   119   58  183 1    
   120   59   60 am   BACKBONE|DICT|INTERRES
   121   59  184 1    
   122   60   61 2    
   123   60   62 1    
   124   62   63 1    
   125   62   64 1    
   126   62  185 1    
   127   63  186 1    
   128   63  187 1    
   129   63  188 1    
   130   64   65 am   BACKBONE|DICT|INTERRES
   131   64  189 1    
   132   65   66 2    
   133   67   68 2    
   134   67   69 am   BACKBONE|DICT|INTERRES
   135   69   70 1    
   136   69  190 1    
   137   70   71 1    
   138   70   72 1    
   139   70  191 1    
   140   71  192 1    
   141   71  193 1    
   142   71  194 1    
   143   72   73 2    
   144   72   74 am   BACKBONE|DICT|INTERRES
   145   74   75 1    
   146   74  195 1    
   147   75   76 1    
   148   75   77 1    
   149   75  196 1    
   150   76  197 1    
   151   76  198 1    
   152   76  199 1    
   153   77   78 2    
   154   77   79 am   BACKBONE|DICT|INTERRES
   155   79   80 1    
   156   79  200 1    
   157   80   81 1    
   158   80   82 1    
   159   80  201 1    
   160   81  202 1    
   161   81  203 1    
   162   81  204 1    
   163   82   83 2    
   164   82   84 am   BACKBONE|DICT|INTERRES
   165   84   85 1    
   166   84  205 1    
   167   85   86 1    
   168   85   87 1    
   169   85  206 1    
   170   86  207 1    
   171   86  208 1    
   172   86  209 1    
   173   87   88 2    
   174   87   89 am   BACKBONE|DICT|INTERRES
   175   89   90 1    
   176   89  210 1    
   177   90   91 1    
   178   90   92 1    
   179   90  211 1    
   180   91  212 1    
   181   91  213 1    
   182   91  214 1    
   183   92   93 2    
   184   92   94 am   BACKBONE|DICT|INTERRES
   185   94   95 1    
   186   94  215 1    
   187   95   96 1    
   188   95   97 1    
   189   95  216 1    
   190   96  217 1    
   191   96  218 1    
   192   96  219 1    
   193   97   98 2    
   194   97   99 am   BACKBONE|DICT|INTERRES
   195   99  100 1    
   196   99  220 1    
   197  100  101 1    
   198  100  102 1    
   199  100  221 1    
   200  101  222 1    
   201  101  223 1    
   202  101  224 1    
   203  102  103 2    
   204  102  104 am   BACKBONE|DICT|INTERRES
   205  104  105 1    
   206  104  225 1    
   207  105  106 1    
   208  105  107 1    
   209  105  226 1    
   210  106  227 1    
   211  106  228 1    
   212  106  229 1    
   213  107  108 2    
   214  107  109 am   BACKBONE|DICT|INTERRES
   215  109  110 1    
   216  109  230 1    
   217  110  111 1    
   218  110  112 1    
   219  110  231 1    
   220  111  232 1    
   221  111  233 1    
   222  111  234 1    
   223  112  113 2    
   224  112  114 am   BACKBONE|DICT|INTERRES
   225  114  115 1    
   226  114  235 1    
   227  115  116 1    
   228  115  117 1    
   229  115  236 1    
   230  116  237 1    
   231  116  238 1    
   232  116  239 1    
   233  117  118 2    
   234  117  119 am   BACKBONE|DICT|INTERRES
   235  119  120 1    
   236  119  240 1    
   237  120  121 1    
   238  120  124 1    
   239  120  241 1    
   240  121  122 am   BACKBONE|DICT|INTERRES
   241  121  123 2    
   242  122  242 1    
   243  122  243 1    
   244  124  125 1    
   245  124  244 1    
   246  124  245 1    
   247  125  126 1    
   248  126  246 1    
   249  126  247 1    
@<TRIPOS>SUBSTRUCTURE
     1 UNK         1 GROUP             0       ****    0 ROOT    
