@<TRIPOS>MOLECULE
3R540
247   249    1
SMALL
USER_CHARGES


@<TRIPOS>ATOM
      1 CA          3.4144  -14.9513  -47.0449 C.3       0 UNK        -0.1800 
      2 C           2.4943  -13.8757  -46.4869 C.2       0 UNK         0.5000 
      3 O           2.5608  -13.5739  -45.2948 O.2       0 UNK        -0.5000 
      4 N           1.6327  -13.3043  -47.3406 N.am      1 UNK        -0.5000 
      5 CA          0.6117  -12.3093  -46.9904 C.3       1 UNK         0.1400 
      6 C6         -0.2979  -11.9260  -48.1875 C.3       23 UNK        -0.0398 
      7 S7         -0.9816  -13.2934  -49.1907 S.3       23 UNK        -0.2404 
      8 C8         -1.3786  -14.6292  -48.0151 C.3       23 UNK        -0.0205 
      9 C9         -1.5746  -15.9283  -48.7773 C.ar      23 UNK        -0.0193 
     10 C10        -2.8521  -16.4294  -49.0318 C.ar      23 UNK        -0.1150 
     11 C11        -3.0320  -17.5867  -49.7982 C.ar      23 UNK        -0.0193 
     12 C12        -1.9022  -18.2464  -50.3097 C.ar      23 UNK        -0.1150 
     13 C13        -0.6167  -17.7527  -50.0553 C.ar      23 UNK        -0.0193 
     14 C14        -0.4626  -16.6028  -49.2796 C.ar      23 UNK        -0.1150 
     15 C15         0.6198  -18.4051  -50.6593 C.3       23 UNK        -0.0205 
     16 S16         1.1005  -19.9851  -49.8905 S.3       23 UNK        -0.2404 
     17 C17         0.9273  -19.7219  -48.0858 C.3       23 UNK        -0.0398 
     18 CA          0.2408  -20.9406  -47.4282 C.3       11 UNK         0.1400 
     19 N           0.4358  -21.0028  -45.9795 N.am      11 UNK        -0.5000 
     20 C           0.1770  -22.0997  -45.2516 C.2       10 UNK         0.5000 
     21 O          -0.2192  -23.1619  -45.7313 O.2       10 UNK        -0.5000 
     22 CA          0.3325  -21.9813  -43.7292 C.3       10 UNK         0.1400 
     23 CB          1.8145  -22.0250  -43.3287 C.3       10 UNK        -0.1800 
     24 N          -0.3033  -20.7754  -43.2001 N.am      10 UNK        -0.5000 
     25 C          -1.6176  -20.5186  -43.2763 C.2       9 UNK         0.5000 
     26 O          -2.4385  -21.2934  -43.7687 O.2       9 UNK        -0.5000 
     27 CA         -2.0950  -19.1580  -42.7395 C.3       9 UNK         0.1400 
     28 CB         -2.2345  -19.2004  -41.2107 C.3       9 UNK        -0.1800 
     29 N          -1.2240  -18.0467  -43.1268 N.am      9 UNK        -0.5000 
     30 C          -1.0104  -17.6498  -44.3906 C.2       8 UNK         0.5000 
     31 O          -1.5244  -18.1814  -45.3731 O.2       8 UNK        -0.5000 
     32 CA         -0.0107  -16.4988  -44.5983 C.3       8 UNK         0.1400 
     33 CB         -0.6197  -15.1518  -44.1804 C.3       8 UNK        -0.1800 
     34 N           1.2377  -16.7173  -43.8734 N.am      8 UNK        -0.5000 
     35 C           2.0643  -17.7528  -44.0764 C.2       7 UNK         0.5000 
     36 O           1.8952  -18.6153  -44.9406 O.2       7 UNK        -0.5000 
     37 CA          3.2545  -17.8661  -43.1114 C.3       7 UNK         0.1400 
     38 CB          4.3779  -16.8984  -43.5160 C.3       7 UNK        -0.1800 
     39 N           2.8574  -17.6246  -41.7215 N.am      7 UNK        -0.5000 
     40 C           2.0594  -18.4378  -41.0127 C.2       6 UNK         0.5000 
     41 O           1.5856  -19.4829  -41.4525 O.2       6 UNK        -0.5000 
     42 CA          1.6986  -17.9980  -39.5831 C.3       6 UNK         0.1400 
     43 CB          2.8227  -18.3647  -38.6028 C.3       6 UNK        -0.1800 
     44 N           1.4192  -16.5672  -39.4879 N.am      6 UNK        -0.5000 
     45 C           0.3842  -15.9504  -40.0757 C.2       5 UNK         0.5000 
     46 O          -0.4772  -16.5283  -40.7373 O.2       5 UNK        -0.5000 
     47 CA          0.3481  -14.4165  -39.9503 C.3       5 UNK         0.1400 
     48 CB         -0.3322  -13.9930  -38.6401 C.3       5 UNK        -0.1800 
     49 N           1.6835  -13.8153  -40.0276 N.am      5 UNK        -0.5000 
     50 C           2.4766  -13.9011  -41.1023 C.2       4 UNK         0.5000 
     51 O           2.1602  -14.4903  -42.1393 O.2       4 UNK        -0.5000 
     52 CA          3.8646  -13.2641  -40.9944 C.3       4 UNK         0.1400 
     53 CB          4.9108  -14.2979  -40.5396 C.3       4 UNK        -0.1800 
     54 N           4.1904  -12.7359  -42.3097 N.am      4 UNK        -0.5000 
     55 C           5.1403  -11.8399  -42.5966 C.2       3 UNK         0.5000 
     56 O           5.9698  -11.4236  -41.7872 O.2       3 UNK        -0.5000 
     57 CA          5.1017  -11.2679  -44.0229 C.3       3 UNK         0.1400 
     58 CB          5.6994  -12.2604  -45.0327 C.3       3 UNK        -0.1800 
     59 N           3.7213  -10.9454  -44.3923 N.am      3 UNK        -0.5000 
     60 C           3.0753   -9.8420  -43.9840 C.2       2 UNK         0.5000 
     61 O           3.6301   -8.9306  -43.3676 O.2       2 UNK        -0.5000 
     62 CA          1.5562   -9.7404  -44.2552 C.3       2 UNK         0.1400 
     63 CB          1.1495   -8.3503  -44.7887 C.3       2 UNK        -0.1800 
     64 N           1.0066  -10.8132  -45.0931 N.am      2 UNK        -0.5000 
     65 C           1.2608  -11.0470  -46.3878 C.2       1 UNK         0.5000 
     66 O           1.9970  -10.3501  -47.0889 O.2       1 UNK        -0.5000 
     67 C          -1.2472  -21.0661  -47.8141 C.2       11 UNK         0.5000 
     68 O          -1.5566  -21.8231  -48.7311 O.2       11 UNK        -0.5000 
     69 N          -2.1476  -20.3967  -47.0798 N.am      12 UNK        -0.5000 
     70 CA         -3.5941  -20.4787  -47.2958 C.3       12 UNK         0.1400 
     71 CB         -4.3192  -19.4817  -46.3810 C.3       12 UNK        -0.1800 
     72 C          -4.1707  -21.8984  -47.1352 C.2       12 UNK         0.5000 
     73 O          -5.1218  -22.2445  -47.8356 O.2       12 UNK        -0.5000 
     74 N          -3.5743  -22.6983  -46.2418 N.am      13 UNK        -0.5000 
     75 CA         -3.8751  -24.1173  -46.0816 C.3       13 UNK         0.1400 
     76 CB         -3.4171  -24.5809  -44.6898 C.3       13 UNK        -0.1800 
     77 C          -3.2318  -24.9737  -47.1888 C.2       13 UNK         0.5000 
     78 O          -3.9171  -25.8012  -47.7897 O.2       13 UNK        -0.5000 
     79 N          -1.9270  -24.7805  -47.4269 N.am      14 UNK        -0.5000 
     80 CA         -1.1204  -25.6016  -48.3326 C.3       14 UNK         0.1400 
     81 CB          0.3694  -25.3283  -48.0758 C.3       14 UNK        -0.1800 
     82 C          -1.4470  -25.4065  -49.8237 C.2       14 UNK         0.5000 
     83 O          -1.4794  -26.3865  -50.5685 O.2       14 UNK        -0.5000 
     84 N          -1.6745  -24.1549  -50.2386 N.am      15 UNK        -0.5000 
     85 CA         -1.8868  -23.7589  -51.6324 C.3       15 UNK         0.1400 
     86 CB         -1.2841  -22.3605  -51.8483 C.3       15 UNK        -0.1800 
     87 C          -3.3668  -23.7967  -52.0575 C.2       15 UNK         0.5000 
     88 O          -3.6843  -23.3377  -53.1554 O.2       15 UNK        -0.5000 
     89 N          -4.2405  -24.3451  -51.2006 N.am      16 UNK        -0.5000 
     90 CA         -5.6944  -24.4365  -51.3690 C.3       16 UNK         0.1400 
     91 CB         -6.3039  -24.9753  -50.0657 C.3       16 UNK        -0.1800 
     92 C          -6.1733  -25.2830  -52.5694 C.2       16 UNK         0.5000 
     93 O          -7.3563  -25.2320  -52.9068 O.2       16 UNK        -0.5000 
     94 N          -5.2693  -26.0411  -53.1962 N.am      17 UNK        -0.5000 
     95 CA         -5.4960  -26.7785  -54.4315 C.3       17 UNK         0.1400 
     96 CB         -5.8020  -28.2484  -54.1029 C.3       17 UNK        -0.1800 
     97 C          -4.2393  -26.6571  -55.3018 C.2       17 UNK         0.5000 
     98 O          -3.1372  -26.5236  -54.7625 O.2       17 UNK        -0.5000 
     99 N          -4.4332  -26.7127  -56.6266 N.am      18 UNK        -0.5000 
    100 CA        -3.4439  -26.7064  -57.7170 C.3       18 UNK         0.1400 
    101 CB        -2.5180  -27.9346  -57.6250 C.3       18 UNK        -0.1800 
    102 C         -2.6176  -25.4118  -57.8788 C.2       18 UNK         0.5000 
    103 O         -2.3587  -25.0073  -59.0131 O.2       18 UNK        -0.5000 
    104 N         -2.2059  -24.8024  -56.7634 N.am      19 UNK        -0.5000 
    105 CA        -1.3956  -23.5917  -56.6915 C.3       19 UNK         0.1400 
    106 CB        -0.4701  -23.7026  -55.4640 C.3       19 UNK        -0.1800 
    107 C         -2.2895  -22.3339  -56.6999 C.2       19 UNK         0.5000 
    108 O         -2.9369  -22.0573  -57.7110 O.2       19 UNK        -0.5000 
    109 N         -2.2918  -21.5755  -55.5950 N.am      20 UNK        -0.5000 
    110 CA        -3.0038  -20.3040  -55.4425 C.3       20 UNK         0.1400 
    111 CB        -2.5091  -19.6052  -54.1657 C.3       20 UNK        -0.1800 
    112 C         -4.5367  -20.4439  -55.4068 C.2       20 UNK         0.5000 
    113 O         -5.2338  -19.4834  -55.7358 O.2       20 UNK        -0.5000 
    114 N         -5.0309  -21.6118  -54.9727 N.am      21 UNK        -0.5000 
    115 CA        -6.4289  -22.0141  -54.7734 C.3       21 UNK         0.1400 
    116 CB        -7.2604  -21.8784  -56.0627 C.3       21 UNK        -0.1800 
    117 C         -7.1118  -21.3227  -53.5773 C.2       21 UNK         0.5000 
    118 O         -7.8658  -21.9776  -52.8588 O.2       21 UNK        -0.5000 
    119 N         -6.8163  -20.0352  -53.3615 N.am      22 UNK        -0.5000 
    120 CA        -7.2029  -19.2299  -52.1898 C.3       22 UNK         0.1400 
    121 C         -8.7360  -18.9826  -52.0288 C.2       22 UNK         0.5000 
    122 N         -9.5464  -19.1620  -53.0648 N.am      22 UNK        -0.7600 
    123 O         -9.1997  -18.5845  -50.9635 O.2       22 UNK        -0.5000 
    124 C124       -6.5253  -19.7335  -50.8823 C.3       23 UNK        -0.0398 
    125 S125       -4.7022  -19.6110  -50.9521 S.3       23 UNK        -0.2404 
    126 C126       -4.4719  -18.0374  -50.0536 C.3       23 UNK        -0.0205 
    127 H127        3.2214  -15.1426  -48.1007 H         1 UNK         0.0600 
    128 H128        3.2695  -15.8836  -46.4989 H         1 UNK         0.0600 
    129 H129        4.4558  -14.6493  -46.9368 H         1 UNK         0.0600 
    130 H130        1.6534  -13.5683  -48.3149 H         1 UNK         0.3000 
    131 H131       -0.0243  -12.7594  -46.2264 H         1 UNK         0.0600 
    132 H132        0.2459  -11.2858  -48.8851 H         1 UNK         0.0800 
    133 H133       -1.1382  -11.3269  -47.8324 H         1 UNK         0.0800 
    134 H134       -2.2730  -14.3662  -47.4485 H         1 UNK         0.0800 
    135 H135       -0.5797  -14.7747  -47.2909 H         1 UNK         0.0800 
    136 H136       -3.7149  -15.9014  -48.6503 H         1 UNK         0.1150 
    137 H137       -2.0086  -19.1330  -50.9168 H         1 UNK         0.1150 
    138 H138        0.5259  -16.2060  -49.0949 H         1 UNK         0.1150 
    139 H139        0.4450  -18.5777  -51.7222 H         1 UNK         0.0800 
    140 H140        1.4723  -17.7262  -50.6053 H         1 UNK         0.0800 
    141 H141        0.3908  -18.8039  -47.8489 H         1 UNK         0.0800 
    142 H142        1.9308  -19.5950  -47.6776 H         1 UNK         0.0800 
    143 H143        0.7366  -21.8292  -47.8261 H         1 UNK         0.0600 
    144 H144        0.7689  -20.1604  -45.5194 H         1 UNK         0.3000 
    145 H145       -0.1641  -22.8431  -43.2784 H         1 UNK         0.0600 
    146 H146        1.9276  -22.0663  -42.2454 H         1 UNK         0.0600 
    147 H147        2.3563  -21.1502  -43.6897 H         1 UNK         0.0600 
    148 H148        2.3050  -22.9088  -43.7386 H         1 UNK         0.0600 
    149 H149        0.3075  -20.1120  -42.7312 H         1 UNK         0.3000 
    150 H150       -3.0827  -18.9649  -43.1627 H         1 UNK         0.0600 
    151 H151       -2.8842  -20.0192  -40.8991 H         1 UNK         0.0600 
    152 H152       -2.6705  -18.2769  -40.8295 H         1 UNK         0.0600 
    153 H153       -1.2693  -19.3412  -40.7228 H         1 UNK         0.0600 
    154 H154       -0.7782  -17.5387  -42.3679 H         1 UNK         0.3000 
    155 H155        0.2304  -16.4515  -45.6622 H         1 UNK         0.0600 
    156 H156       -1.5225  -14.9366  -44.7530 H         1 UNK         0.0600 
    157 H157        0.0805  -14.3346  -44.3496 H         1 UNK         0.0600 
    158 H158       -0.8885  -15.1404  -43.1239 H         1 UNK         0.0600 
    159 H159        1.4833  -16.0277  -43.1686 H         1 UNK         0.3000 
    160 H160        3.6437  -18.8842  -43.1794 H         1 UNK         0.0600 
    161 H161        4.0541  -15.8576  -43.4789 H         1 UNK         0.0600 
    162 H162        4.7112  -17.0967  -44.5354 H         1 UNK         0.0600 
    163 H163        5.2458  -17.0066  -42.8657 H         1 UNK         0.0600 
    164 H164        3.1560  -16.7553  -41.3074 H         1 UNK         0.3000 
    165 H165        0.7970  -18.5382  -39.2863 H         1 UNK         0.0600 
    166 H166        2.5422  -18.1301  -37.5759 H         1 UNK         0.0600 
    167 H167        3.0414  -19.4327  -38.6427 H         1 UNK         0.0600 
    168 H168        3.7470  -17.8316  -38.8291 H         1 UNK         0.0600 
    169 H169        2.0770  -16.0075  -38.9663 H         1 UNK         0.3000 
    170 H170       -0.2435  -14.0310  -40.7834 H         1 UNK         0.0600 
    171 H171        0.2294  -14.3263  -37.7666 H         1 UNK         0.0600 
    172 H172       -0.4339  -12.9092  -38.5812 H         1 UNK         0.0600 
    173 H173       -1.3349  -14.4166  -38.5672 H         1 UNK         0.0600 
    174 H174        2.0065  -13.3191  -39.2093 H         1 UNK         0.3000 
    175 H175        3.8244  -12.4394  -40.2800 H         1 UNK         0.0600 
    176 H176        5.0106  -15.1122  -41.2564 H         1 UNK         0.0600 
    177 H177        5.8931  -13.8418  -40.4176 H         1 UNK         0.0600 
    178 H178        4.6381  -14.7353  -39.5785 H         1 UNK         0.0600 
    179 H179        3.5510  -13.0352  -43.0388 H         1 UNK         0.3000 
    180 H180        5.7027  -10.3563  -44.0485 H         1 UNK         0.0600 
    181 H181        5.6141  -11.8868  -46.0533 H         1 UNK         0.0600 
    182 H182        5.2090  -13.2327  -44.9878 H         1 UNK         0.0600 
    183 H183        6.7589  -12.4232  -44.8318 H         1 UNK         0.0600 
    184 H184        3.1952  -11.6757  -44.8600 H         1 UNK         0.3000 
    185 H185        1.0805   -9.8618  -43.2810 H         1 UNK         0.0600 
    186 H186        1.6545   -8.1083  -45.7240 H         1 UNK         0.0600 
    187 H187        0.0748   -8.2922  -44.9613 H         1 UNK         0.0600 
    188 H188        1.4033   -7.5674  -44.0731 H         1 UNK         0.0600 
    189 H189        0.4251  -11.4765  -44.5998 H         1 UNK         0.3000 
    190 H190       -1.8319  -19.7542  -46.3572 H         1 UNK         0.3000 
    191 H191       -3.7740  -20.1823  -48.3272 H         1 UNK         0.0600 
    192 H192       -3.9915  -18.4603  -46.5754 H         1 UNK         0.0600 
    193 H193       -4.1386  -19.6994  -45.3284 H         1 UNK         0.0600 
    194 H194       -5.3969  -19.5133  -46.5450 H         1 UNK         0.0600 
    195 H195       -2.8340  -22.3152  -45.6655 H         1 UNK         0.3000 
    196 H196       -4.9572  -24.2544  -46.1386 H         1 UNK         0.0600 
    197 H197       -3.9274  -24.0241  -43.9035 H         1 UNK         0.0600 
    198 H198       -2.3444  -24.4453  -44.5485 H         1 UNK         0.0600 
    199 H199       -3.6385  -25.6379  -44.5376 H         1 UNK         0.0600 
    200 H200       -1.4225  -24.0885  -46.8786 H         1 UNK         0.3000 
    201 H201       -1.3128  -26.6490  -48.0906 H         1 UNK         0.0600 
    202 H202        0.6394  -25.5528  -47.0438 H         1 UNK         0.0600 
    203 H203        0.6247  -24.2858  -48.2693 H         1 UNK         0.0600 
    204 H204        0.9984  -25.9460  -48.7181 H         1 UNK         0.0600 
    205 H205       -1.6499  -23.3901  -49.5632 H         1 UNK         0.3000 
    206 H206       -1.3514  -24.4548  -52.2806 H         1 UNK         0.0600 
    207 H207       -1.8570  -21.5918  -51.3288 H         1 UNK         0.0600 
    208 H208       -0.2561  -22.3126  -51.4893 H         1 UNK         0.0600 
    209 H209       -1.2669  -22.0950  -52.9036 H         1 UNK         0.0600 
    210 H210       -3.8733  -24.6980  -50.3280 H         1 UNK         0.3000 
    211 H211       -6.0628  -23.4214  -51.5217 H         1 UNK         0.0600 
    212 H212       -5.9547  -25.9853  -49.8479 H         1 UNK         0.0600 
    213 H213       -7.3926  -25.0079  -50.1240 H         1 UNK         0.0600 
    214 H214       -6.0467  -24.3425  -49.2169 H         1 UNK         0.0600 
    215 H215       -4.3016  -25.9947  -52.9046 H         1 UNK         0.3000 
    216 H216       -6.3362  -26.3456  -54.9791 H         1 UNK         0.0600 
    217 H217       -5.9705  -28.8267  -55.0121 H         1 UNK         0.0600 
    218 H218       -6.6996  -28.3358  -53.4905 H         1 UNK         0.0600 
    219 H219       -4.9800  -28.7180  -53.5609 H         1 UNK         0.0600 
    220 H220       -5.3891  -26.7909  -56.9459 H         1 UNK         0.3000 
    221 H221       -4.0263  -26.8107  -58.6339 H         1 UNK         0.0600 
    222 H222       -1.8539  -27.9869  -58.4886 H         1 UNK         0.0600 
    223 H223       -1.8898  -27.9057  -56.7341 H         1 UNK         0.0600 
    224 H224       -3.0923  -28.8607  -57.6008 H         1 UNK         0.0600 
    225 H225       -2.4663  -25.2351  -55.8806 H         1 UNK         0.3000 
    226 H226       -0.7581  -23.5291  -57.5758 H         1 UNK         0.0600 
    227 H227        0.2071  -24.5507  -55.5674 H         1 UNK         0.0600 
    228 H228        0.1507  -22.8135  -55.3456 H         1 UNK         0.0600 
    229 H229       -1.0368  -23.8512  -54.5460 H         1 UNK         0.0600 
    230 H230       -1.7555  -21.8868  -54.7999 H         1 UNK         0.3000 
    231 H231       -2.7517  -19.6729  -56.2972 H         1 UNK         0.0600 
    232 H232       -2.7556  -20.1816  -53.2739 H         1 UNK         0.0600 
    233 H233       -2.9705  -18.6233  -54.0528 H         1 UNK         0.0600 
    234 H234       -1.4294  -19.4560  -54.1839 H         1 UNK         0.0600 
    235 H235       -4.3581  -22.2811  -54.6066 H         1 UNK         0.3000 
    236 H236       -6.3842  -23.0765  -54.5331 H         1 UNK         0.0600 
    237 H237       -7.4031  -20.8374  -56.3527 H         1 UNK         0.0600 
    238 H238       -6.7842  -22.3976  -56.8945 H         1 UNK         0.0600 
    239 H239       -8.2507  -22.3155  -55.9298 H         1 UNK         0.0600 
    240 H240       -6.2216  -19.5770  -54.0440 H         1 UNK         0.3000 
    241 H241       -6.8044  -18.2345  -52.3883 H         1 UNK         0.0600 
    242 H242      -10.5340  -18.9898  -52.9599 H         1 UNK         0.3800 
    243 H243       -9.1826  -19.4828  -53.9477 H         1 UNK         0.3800 
    244 H244       -6.7945  -20.7715  -50.6832 H         1 UNK         0.0800 
    245 H245       -6.8770  -19.1714  -50.0163 H         1 UNK         0.0800 
    246 H246       -4.9830  -17.2505  -50.6101 H         1 UNK         0.0800 
    247 H247       -4.9781  -18.1140  -49.0903 H         1 UNK         0.0800 
@<TRIPOS>BOND
     1    1    2 1    
     2    1  127 1    
     3    1  128 1    
     4    1  129 1    
     5    2    3 2    
     6    2    4 am   BACKBONE|DICT|INTERRES
     7    4    5 1    
     8    4  130 1    
     9    5    6 1    
    10    5   65 1    
    11    5  131 1    
    12    6    7 1    
    13    6  132 1    
    14    6  133 1    
    15    7    8 1    
    16    8    9 1    
    17    8  134 1    
    18    8  135 1    
    19    9   10 ar   
    20    9   14 ar   
    21   10   11 ar   
    22   10  136 1    
    23   11   12 ar   
    24   11  126 1    
    25   12   13 ar   
    26   12  137 1    
    27   13   14 ar   
    28   13   15 1    
    29   14  138 1    
    30   15   16 1    
    31   15  139 1    
    32   15  140 1    
    33   16   17 1    
    34   17   18 1    
    35   17  141 1    
    36   17  142 1    
    37   18   19 1    
    38   18   67 1    
    39   18  143 1    
    40   19   20 am   BACKBONE|DICT|INTERRES
    41   19  144 1    
    42   20   21 2    
    43   20   22 1    
    44   22   23 1    
    45   22   24 1    
    46   22  145 1    
    47   23  146 1    
    48   23  147 1    
    49   23  148 1    
    50   24   25 am   BACKBONE|DICT|INTERRES
    51   24  149 1    
    52   25   26 2    
    53   25   27 1    
    54   27   28 1    
    55   27   29 1    
    56   27  150 1    
    57   28  151 1    
    58   28  152 1    
    59   28  153 1    
    60   29   30 am   BACKBONE|DICT|INTERRES
    61   29  154 1    
    62   30   31 2    
    63   30   32 1    
    64   32   33 1    
    65   32   34 1    
    66   32  155 1    
    67   33  156 1    
    68   33  157 1    
    69   33  158 1    
    70   34   35 am   BACKBONE|DICT|INTERRES
    71   34  159 1    
    72   35   36 2    
    73   35   37 1    
    74   37   38 1    
    75   37   39 1    
    76   37  160 1    
    77   38  161 1    
    78   38  162 1    
    79   38  163 1    
    80   39   40 am   BACKBONE|DICT|INTERRES
    81   39  164 1    
    82   40   41 2    
    83   40   42 1    
    84   42   43 1    
    85   42   44 1    
    86   42  165 1    
    87   43  166 1    
    88   43  167 1    
    89   43  168 1    
    90   44   45 am   BACKBONE|DICT|INTERRES
    91   44  169 1    
    92   45   46 2    
    93   45   47 1    
    94   47   48 1    
    95   47   49 1    
    96   47  170 1    
    97   48  171 1    
    98   48  172 1    
    99   48  173 1    
   100   49   50 am   BACKBONE|DICT|INTERRES
   101   49  174 1    
   102   50   51 2    
   103   50   52 1    
   104   52   53 1    
   105   52   54 1    
   106   52  175 1    
   107   53  176 1    
   108   53  177 1    
   109   53  178 1    
   110   54   55 am   BACKBONE|DICT|INTERRES
   111   54  179 1    
   112   55   56 2    
   113   55   57 1    
   114   57   58 1    
   115   57   59 1    
   116   57  180 1    
   117   58  181 1    
   118   58  182 1    
   119   58  183 1    
   120   59   60 am   BACKBONE|DICT|INTERRES
   121   59  184 1    
   122   60   61 2    
   123   60   62 1    
   124   62   63 1    
   125   62   64 1    
   126   62  185 1    
   127   63  186 1    
   128   63  187 1    
   129   63  188 1    
   130   64   65 am   BACKBONE|DICT|INTERRES
   131   64  189 1    
   132   65   66 2    
   133   67   68 2    
   134   67   69 am   BACKBONE|DICT|INTERRES
   135   69   70 1    
   136   69  190 1    
   137   70   71 1    
   138   70   72 1    
   139   70  191 1    
   140   71  192 1    
   141   71  193 1    
   142   71  194 1    
   143   72   73 2    
   144   72   74 am   BACKBONE|DICT|INTERRES
   145   74   75 1    
   146   74  195 1    
   147   75   76 1    
   148   75   77 1    
   149   75  196 1    
   150   76  197 1    
   151   76  198 1    
   152   76  199 1    
   153   77   78 2    
   154   77   79 am   BACKBONE|DICT|INTERRES
   155   79   80 1    
   156   79  200 1    
   157   80   81 1    
   158   80   82 1    
   159   80  201 1    
   160   81  202 1    
   161   81  203 1    
   162   81  204 1    
   163   82   83 2    
   164   82   84 am   BACKBONE|DICT|INTERRES
   165   84   85 1    
   166   84  205 1    
   167   85   86 1    
   168   85   87 1    
   169   85  206 1    
   170   86  207 1    
   171   86  208 1    
   172   86  209 1    
   173   87   88 2    
   174   87   89 am   BACKBONE|DICT|INTERRES
   175   89   90 1    
   176   89  210 1    
   177   90   91 1    
   178   90   92 1    
   179   90  211 1    
   180   91  212 1    
   181   91  213 1    
   182   91  214 1    
   183   92   93 2    
   184   92   94 am   BACKBONE|DICT|INTERRES
   185   94   95 1    
   186   94  215 1    
   187   95   96 1    
   188   95   97 1    
   189   95  216 1    
   190   96  217 1    
   191   96  218 1    
   192   96  219 1    
   193   97   98 2    
   194   97   99 am   BACKBONE|DICT|INTERRES
   195   99  100 1    
   196   99  220 1    
   197  100  101 1    
   198  100  102 1    
   199  100  221 1    
   200  101  222 1    
   201  101  223 1    
   202  101  224 1    
   203  102  103 2    
   204  102  104 am   BACKBONE|DICT|INTERRES
   205  104  105 1    
   206  104  225 1    
   207  105  106 1    
   208  105  107 1    
   209  105  226 1    
   210  106  227 1    
   211  106  228 1    
   212  106  229 1    
   213  107  108 2    
   214  107  109 am   BACKBONE|DICT|INTERRES
   215  109  110 1    
   216  109  230 1    
   217  110  111 1    
   218  110  112 1    
   219  110  231 1    
   220  111  232 1    
   221  111  233 1    
   222  111  234 1    
   223  112  113 2    
   224  112  114 am   BACKBONE|DICT|INTERRES
   225  114  115 1    
   226  114  235 1    
   227  115  116 1    
   228  115  117 1    
   229  115  236 1    
   230  116  237 1    
   231  116  238 1    
   232  116  239 1    
   233  117  118 2    
   234  117  119 am   BACKBONE|DICT|INTERRES
   235  119  120 1    
   236  119  240 1    
   237  120  121 1    
   238  120  124 1    
   239  120  241 1    
   240  121  122 am   BACKBONE|DICT|INTERRES
   241  121  123 2    
   242  122  242 1    
   243  122  243 1    
   244  124  125 1    
   245  124  244 1    
   246  124  245 1    
   247  125  126 1    
   248  126  246 1    
   249  126  247 1    
@<TRIPOS>SUBSTRUCTURE
     1 UNK         1 GROUP             0       ****    0 ROOT    
