@<TRIPOS>MOLECULE
3R540
247   249    1
SMALL
USER_CHARGES


@<TRIPOS>ATOM
      1 CA          3.3954  -15.0594  -45.2235 C.3       0 UNK        -0.1800 
      2 C           4.2623  -15.1416  -46.4784 C.2       0 UNK         0.5000 
      3 O           5.4303  -15.5117  -46.3832 O.2       0 UNK        -0.5000 
      4 N           3.7463  -14.8121  -47.6710 N.am      1 UNK        -0.5000 
      5 CA          2.3859  -14.3196  -47.9295 C.3       1 UNK         0.1400 
      6 C6          1.9135  -14.6489  -49.3668 C.3       23 UNK        -0.0398 
      7 S7          1.5594  -16.4243  -49.5672 S.3       23 UNK        -0.2404 
      8 C8          2.9101  -16.9664  -50.6520 C.3       23 UNK        -0.0205 
      9 C9          2.7726  -18.4512  -50.9383 C.ar      23 UNK        -0.0193 
     10 C10         2.0439  -18.8917  -52.0469 C.ar      23 UNK        -0.1150 
     11 C11         1.8791  -20.2583  -52.2843 C.ar      23 UNK        -0.0193 
     12 C12         2.4339  -21.1828  -51.3956 C.ar      23 UNK        -0.1150 
     13 C13         3.1609  -20.7582  -50.2801 C.ar      23 UNK        -0.0193 
     14 C14         3.3456  -19.3862  -50.0720 C.ar      23 UNK        -0.1150 
     15 C15         3.7426  -21.8077  -49.3351 C.3       23 UNK        -0.0205 
     16 S16         3.8202  -21.3263  -47.5736 S.3       23 UNK        -0.2404 
     17 C17         2.1105  -20.8121  -47.1913 C.3       23 UNK        -0.0398 
     18 CA          1.1796  -21.9921  -46.8102 C.3       11 UNK         0.1400 
     19 N           0.2743  -21.6554  -45.7070 N.am      11 UNK        -0.5000 
     20 C          -0.5137  -22.5328  -45.0689 C.2       10 UNK         0.5000 
     21 O          -0.5366  -23.7374  -45.3181 O.2       10 UNK        -0.5000 
     22 CA         -1.4721  -21.9670  -44.0051 C.3       10 UNK         0.1400 
     23 CB         -0.7390  -21.7222  -42.6782 C.3       10 UNK        -0.1800 
     24 N          -2.1366  -20.7385  -44.4412 N.am      10 UNK        -0.5000 
     25 C          -2.9783  -20.6669  -45.4827 C.2       9 UNK         0.5000 
     26 O          -3.3153  -21.6380  -46.1589 O.2       9 UNK        -0.5000 
     27 CA         -3.4990  -19.2728  -45.8644 C.3       9 UNK         0.1400 
     28 CB         -4.6715  -18.8596  -44.9630 C.3       9 UNK        -0.1800 
     29 N          -2.4615  -18.2457  -45.8229 N.am      9 UNK        -0.5000 
     30 C          -1.3650  -18.2326  -46.5947 C.2       8 UNK         0.5000 
     31 O          -1.1041  -19.0871  -47.4421 O.2       8 UNK        -0.5000 
     32 CA         -0.3641  -17.0965  -46.3205 C.3       8 UNK         0.1400 
     33 CB         -0.9181  -15.7573  -46.8414 C.3       8 UNK        -0.1800 
     34 N          -0.0444  -16.9813  -44.8954 N.am      8 UNK        -0.5000 
     35 C           0.4694  -17.9629  -44.1378 C.2       7 UNK         0.5000 
     36 O           0.7925  -19.0669  -44.5710 O.2       7 UNK        -0.5000 
     37 CA          0.5879  -17.6905  -42.6300 C.3       7 UNK         0.1400 
     38 CB          1.8931  -16.9524  -42.3020 C.3       7 UNK        -0.1800 
     39 N          -0.5583  -16.9354  -42.1265 N.am      7 UNK        -0.5000 
     40 C          -1.7972  -17.4368  -42.0156 C.2       6 UNK         0.5000 
     41 O          -2.0894  -18.6040  -42.2777 O.2       6 UNK        -0.5000 
     42 CA         -2.8998  -16.4520  -41.5853 C.3       6 UNK         0.1400 
     43 CB         -2.9013  -16.2684  -40.0604 C.3       6 UNK        -0.1800 
     44 N          -2.7609  -15.1464  -42.2338 N.am      6 UNK        -0.5000 
     45 C          -2.9204  -14.9395  -43.5487 C.2       5 UNK         0.5000 
     46 O          -3.2620  -15.8206  -44.3370 O.2       5 UNK        -0.5000 
     47 CA         -2.6060  -13.5260  -44.0787 C.3       5 UNK         0.1400 
     48 CB         -3.8672  -12.6505  -44.0575 C.3       5 UNK        -0.1800 
     49 N          -1.5325  -12.8429  -43.3498 N.am      5 UNK        -0.5000 
     50 C          -0.2702  -13.2779  -43.2487 C.2       4 UNK         0.5000 
     51 O           0.1330  -14.3198  -43.7679 O.2       4 UNK        -0.5000 
     52 CA          0.6899  -12.3971  -42.4296 C.3       4 UNK         0.1400 
     53 CB          1.8941  -13.1854  -41.8878 C.3       4 UNK        -0.1800 
     54 N           1.1838  -11.2802  -43.2272 N.am      4 UNK        -0.5000 
     55 C           0.5186  -10.1535  -43.4973 C.2       3 UNK         0.5000 
     56 O          -0.6279   -9.9336  -43.1031 O.2       3 UNK        -0.5000 
     57 CA          1.2521   -9.0824  -44.3313 C.3       3 UNK         0.1400 
     58 CB          2.2517   -8.2978  -43.4600 C.3       3 UNK        -0.1800 
     59 N           1.8912   -9.5652  -45.5651 N.am      3 UNK        -0.5000 
     60 C           2.9093  -10.4236  -45.7174 C.2       2 UNK         0.5000 
     61 O           3.4741  -11.0098  -44.7910 O.2       2 UNK        -0.5000 
     62 CA          3.3834  -10.6658  -47.1619 C.3       2 UNK         0.1400 
     63 CB          4.8090  -10.1302  -47.3660 C.3       2 UNK        -0.1800 
     64 N           3.3525  -12.0875  -47.4982 N.am      2 UNK        -0.5000 
     65 C           2.2332  -12.8109  -47.6388 C.2       1 UNK         0.5000 
     66 O           1.1029  -12.3315  -47.5455 O.2       1 UNK        -0.5000 
     67 C           0.4044  -22.5116  -48.0374 C.2       11 UNK         0.5000 
     68 O           0.7684  -23.5469  -48.5936 O.2       11 UNK        -0.5000 
     69 N          -0.6788  -21.8125  -48.4043 N.am      12 UNK        -0.5000 
     70 CA         -1.5799  -22.1926  -49.4906 C.3       12 UNK         0.1400 
     71 CB         -2.5973  -21.0685  -49.7232 C.3       12 UNK        -0.1800 
     72 C          -2.2821  -23.5401  -49.2452 C.2       12 UNK         0.5000 
     73 O          -2.3475  -24.3624  -50.1587 O.2       12 UNK        -0.5000 
     74 N          -2.7466  -23.7662  -48.0085 N.am      13 UNK        -0.5000 
     75 CA         -3.3330  -25.0307  -47.5660 C.3       13 UNK         0.1400 
     76 CB         -3.9449  -24.8596  -46.1680 C.3       13 UNK        -0.1800 
     77 C          -2.3223  -26.1926  -47.5883 C.2       13 UNK         0.5000 
     78 O          -2.6648  -27.2772  -48.0587 O.2       13 UNK        -0.5000 
     79 N          -1.0862  -25.9413  -47.1311 N.am      14 UNK        -0.5000 
     80 CA          0.0284  -26.8939  -47.1731 C.3       14 UNK         0.1400 
     81 CB          1.2147  -26.3386  -46.3706 C.3       14 UNK        -0.1800 
     82 C           0.4603  -27.2539  -48.6084 C.2       14 UNK         0.5000 
     83 O           0.8142  -28.4045  -48.8672 O.2       14 UNK        -0.5000 
     84 N           0.3781  -26.2780  -49.5223 N.am      15 UNK        -0.5000 
     85 CA          0.5916  -26.4409  -50.9619 C.3       15 UNK         0.1400 
     86 CB          0.8754  -25.0599  -51.5775 C.3       15 UNK        -0.1800 
     87 C          -0.5815  -27.1361  -51.6894 C.2       15 UNK         0.5000 
     88 O          -0.4542  -27.4252  -52.8800 O.2       15 UNK        -0.5000 
     89 N          -1.6919  -27.3865  -50.9772 N.am      16 UNK        -0.5000 
     90 CA         -2.9486  -27.9813  -51.4452 C.3       16 UNK         0.1400 
     91 CB         -2.7366  -29.4376  -51.9096 C.3       16 UNK        -0.1800 
     92 C          -3.6814  -27.1086  -52.4862 C.2       16 UNK         0.5000 
     93 O          -4.3632  -27.6355  -53.3680 O.2       16 UNK        -0.5000 
     94 N          -3.5341  -25.7866  -52.3549 N.am      17 UNK        -0.5000 
     95 CA         -4.1975  -24.7692  -53.1611 C.3       17 UNK         0.1400 
     96 CB         -3.1499  -23.7098  -53.5341 C.3       17 UNK        -0.1800 
     97 C          -5.3577  -24.1405  -52.3680 C.2       17 UNK         0.5000 
     98 O          -5.5907  -24.4953  -51.2088 O.2       17 UNK        -0.5000 
     99 N          -6.0721  -23.2072  -53.0100 N.am      18 UNK        -0.5000 
    100 CA        -7.1349  -22.4114  -52.3985 C.3       18 UNK         0.1400 
    101 CB        -7.8628  -21.6145  -53.4926 C.3       18 UNK        -0.1800 
    102 C         -6.5601  -21.4687  -51.3275 C.2       18 UNK         0.5000 
    103 O         -5.7929  -20.5645  -51.6653 O.2       18 UNK        -0.5000 
    104 N         -6.9458  -21.6837  -50.0634 N.am      19 UNK        -0.5000 
    105 CA        -6.4292  -20.9786  -48.8837 C.3       19 UNK         0.1400 
    106 CB        -7.0038  -21.6333  -47.6184 C.3       19 UNK        -0.1800 
    107 C         -6.6689  -19.4538  -48.8696 C.2       19 UNK         0.5000 
    108 O         -6.0394  -18.7510  -48.0815 O.2       19 UNK        -0.5000 
    109 N         -7.5640  -18.9643  -49.7359 N.am      20 UNK        -0.5000 
    110 CA        -7.8635  -17.5468  -49.9124 C.3       20 UNK         0.1400 
    111 CB        -9.1321  -17.4112  -50.7688 C.3       20 UNK        -0.1800 
    112 C         -6.7095  -16.7351  -50.5352 C.2       20 UNK         0.5000 
    113 O         -6.5959  -15.5477  -50.2260 O.2       20 UNK        -0.5000 
    114 N         -5.8980  -17.3536  -51.4099 N.am      21 UNK        -0.5000 
    115 CA        -4.8815  -16.6376  -52.1948 C.3       21 UNK         0.1400 
    116 CB        -5.5725  -15.8372  -53.3209 C.3       21 UNK        -0.1800 
    117 C         -3.7617  -17.5179  -52.7847 C.2       21 UNK         0.5000 
    118 O         -2.8524  -16.9645  -53.4046 O.2       21 UNK        -0.5000 
    119 N         -3.8330  -18.8473  -52.6318 N.am      22 UNK        -0.5000 
    120 CA        -2.9815  -19.8256  -53.3343 C.3       22 UNK         0.1400 
    121 C         -3.3152  -19.9653  -54.8549 C.2       22 UNK         0.5000 
    122 N         -4.5221  -19.6230  -55.2913 N.am      22 UNK        -0.7600 
    123 O         -2.4917  -20.4024  -55.6532 O.2       22 UNK        -0.5000 
    124 C124       -1.4614  -19.6595  -53.0317 C.3       23 UNK        -0.0398 
    125 S125       -0.5769  -21.2563  -53.0601 S.3       23 UNK        -0.2404 
    126 C126        1.1102  -20.7474  -53.5005 C.3       23 UNK        -0.0205 
    127 H127        3.9868  -15.2784  -44.3344 H         1 UNK         0.0600 
    128 H128        2.5844  -15.7853  -45.2706 H         1 UNK         0.0600 
    129 H129        2.9691  -14.0644  -45.0987 H         1 UNK         0.0600 
    130 H130        4.3383  -14.8895  -48.4852 H         1 UNK         0.3000 
    131 H131        1.7096  -14.8250  -47.2433 H         1 UNK         0.0600 
    132 H132        0.9850  -14.1247  -49.6022 H         1 UNK         0.0800 
    133 H133        2.6429  -14.3168  -50.1074 H         1 UNK         0.0800 
    134 H134        3.8704  -16.7602  -50.1771 H         1 UNK         0.0800 
    135 H135        2.8880  -16.3970  -51.5825 H         1 UNK         0.0800 
    136 H136        1.5983  -18.1711  -52.7182 H         1 UNK         0.1150 
    137 H137        2.2928  -22.2393  -51.5749 H         1 UNK         0.1150 
    138 H138        3.9093  -19.0388  -49.2179 H         1 UNK         0.1150 
    139 H139        3.1753  -22.7362  -49.4097 H         1 UNK         0.0800 
    140 H140        4.7530  -22.0443  -49.6700 H         1 UNK         0.0800 
    141 H141        1.6941  -20.1947  -47.9890 H         1 UNK         0.0800 
    142 H142        2.2146  -20.1338  -46.3462 H         1 UNK         0.0800 
    143 H143        1.7967  -22.8166  -46.4466 H         1 UNK         0.0600 
    144 H144        0.2617  -20.6826  -45.4106 H         1 UNK         0.3000 
    145 H145       -2.2471  -22.7153  -43.8276 H         1 UNK         0.0600 
    146 H146       -1.4266  -21.3784  -41.9053 H         1 UNK         0.0600 
    147 H147       -0.2739  -22.6397  -42.3157 H         1 UNK         0.0600 
    148 H148        0.0477  -20.9755  -42.7824 H         1 UNK         0.0600 
    149 H149       -1.9408  -19.8978  -43.9088 H         1 UNK         0.3000 
    150 H150       -3.8553  -19.3319  -46.8929 H         1 UNK         0.0600 
    151 H151       -5.4652  -19.6071  -44.9874 H         1 UNK         0.0600 
    152 H152       -5.1054  -17.9158  -45.2942 H         1 UNK         0.0600 
    153 H153       -4.3607  -18.7394  -43.9248 H         1 UNK         0.0600 
    154 H154       -2.6098  -17.4787  -45.1735 H         1 UNK         0.3000 
    155 H155        0.5672  -17.3204  -46.8438 H         1 UNK         0.0600 
    156 H156       -1.9601  -15.6064  -46.5634 H         1 UNK         0.0600 
    157 H157       -0.3589  -14.9049  -46.4587 H         1 UNK         0.0600 
    158 H158       -0.8763  -15.7207  -47.9298 H         1 UNK         0.0600 
    159 H159       -0.2194  -16.0811  -44.4582 H         1 UNK         0.3000 
    160 H160        0.6111  -18.6539  -42.1165 H         1 UNK         0.0600 
    161 H161        1.9475  -15.9871  -42.8020 H         1 UNK         0.0600 
    162 H162        2.7585  -17.5335  -42.6232 H         1 UNK         0.0600 
    163 H163        1.9940  -16.7830  -41.2300 H         1 UNK         0.0600 
    164 H164       -0.4126  -15.9525  -41.9516 H         1 UNK         0.3000 
    165 H165       -3.8612  -16.8788  -41.8792 H         1 UNK         0.0600 
    166 H166       -3.7261  -15.6309  -39.7413 H         1 UNK         0.0600 
    167 H167       -3.0179  -17.2270  -39.5529 H         1 UNK         0.0600 
    168 H168       -1.9728  -15.8196  -39.7053 H         1 UNK         0.0600 
    169 H169       -2.4887  -14.3683  -41.6517 H         1 UNK         0.3000 
    170 H170       -2.2824  -13.6291  -45.1159 H         1 UNK         0.0600 
    171 H171       -4.6781  -13.1201  -44.6160 H         1 UNK         0.0600 
    172 H172       -4.2229  -12.4812  -43.0405 H         1 UNK         0.0600 
    173 H173       -3.6800  -11.6784  -44.5143 H         1 UNK         0.0600 
    174 H174       -1.7572  -11.9414  -42.9483 H         1 UNK         0.3000 
    175 H175        0.1395  -12.0061  -41.5712 H         1 UNK         0.0600 
    176 H176        2.5221  -13.5697  -42.6918 H         1 UNK         0.0600 
    177 H177        2.5185  -12.5582  -41.2514 H         1 UNK         0.0600 
    178 H178        1.5674  -14.0333  -41.2850 H         1 UNK         0.0600 
    179 H179        2.1103  -11.3791  -43.6365 H         1 UNK         0.3000 
    180 H180        0.4884   -8.3752  -44.6591 H         1 UNK         0.0600 
    181 H181        3.0570   -8.9323  -43.0889 H         1 UNK         0.0600 
    182 H182        1.7539   -7.8640  -42.5919 H         1 UNK         0.0600 
    183 H183        2.7022   -7.4777  -44.0190 H         1 UNK         0.0600 
    184 H184        1.4837   -9.1885  -46.4099 H         1 UNK         0.3000 
    185 H185        2.7213  -10.1374  -47.8513 H         1 UNK         0.0600 
    186 H186        4.8621   -9.0656  -47.1344 H         1 UNK         0.0600 
    187 H187        5.5282  -10.6417  -46.7247 H         1 UNK         0.0600 
    188 H188        5.1332  -10.2541  -48.3995 H         1 UNK         0.0600 
    189 H189        4.2426  -12.5605  -47.5536 H         1 UNK         0.3000 
    190 H190       -0.8967  -20.9478  -47.9155 H         1 UNK         0.3000 
    191 H191       -0.9770  -22.3020  -50.3926 H         1 UNK         0.0600 
    192 H192       -3.1358  -20.8284  -48.8079 H         1 UNK         0.0600 
    193 H193       -3.3278  -21.3456  -50.4840 H         1 UNK         0.0600 
    194 H194       -2.1036  -20.1564  -50.0552 H         1 UNK         0.0600 
    195 H195       -2.7055  -23.0187  -47.3204 H         1 UNK         0.3000 
    196 H196       -4.1395  -25.2802  -48.2591 H         1 UNK         0.0600 
    197 H197       -4.4001  -25.7889  -45.8238 H         1 UNK         0.0600 
    198 H198       -4.7241  -24.0970  -46.1710 H         1 UNK         0.0600 
    199 H199       -3.1949  -24.5676  -45.4326 H         1 UNK         0.0600 
    200 H200       -0.8916  -25.0356  -46.7125 H         1 UNK         0.3000 
    201 H201       -0.3046  -27.8146  -46.6898 H         1 UNK         0.0600 
    202 H202        0.9378  -26.1591  -45.3317 H         1 UNK         0.0600 
    203 H203        1.5787  -25.3990  -46.7864 H         1 UNK         0.0600 
    204 H204        2.0485  -27.0416  -46.3682 H         1 UNK         0.0600 
    205 H205        0.1554  -25.3389  -49.2052 H         1 UNK         0.3000 
    206 H206        1.4759  -27.0639  -51.1088 H         1 UNK         0.0600 
    207 H207        1.7341  -24.5872  -51.1009 H         1 UNK         0.0600 
    208 H208        1.0987  -25.1404  -52.6419 H         1 UNK         0.0600 
    209 H209        0.0234  -24.3880  -51.4729 H         1 UNK         0.0600 
    210 H210       -1.6987  -27.0956  -50.0074 H         1 UNK         0.3000 
    211 H211       -3.6044  -28.0122  -50.5743 H         1 UNK         0.0600 
    212 H212       -2.1523  -29.4910  -52.8284 H         1 UNK         0.0600 
    213 H213       -3.6911  -29.9286  -52.1021 H         1 UNK         0.0600 
    214 H214       -2.2205  -30.0223  -51.1481 H         1 UNK         0.0600 
    215 H215       -3.0195  -25.4291  -51.5525 H         1 UNK         0.3000 
    216 H216       -4.6013  -25.2054  -54.0767 H         1 UNK         0.0600 
    217 H217       -3.5573  -22.9691  -54.2219 H         1 UNK         0.0600 
    218 H218       -2.2869  -24.1613  -54.0239 H         1 UNK         0.0600 
    219 H219       -2.7904  -23.1830  -52.6498 H         1 UNK         0.0600 
    220 H220       -5.8167  -22.9576  -53.9539 H         1 UNK         0.3000 
    221 H221       -7.8532  -23.0904  -51.9343 H         1 UNK         0.0600 
    222 H222       -7.1863  -20.9435  -54.0237 H         1 UNK         0.0600 
    223 H223       -8.3184  -22.2792  -54.2267 H         1 UNK         0.0600 
    224 H224       -8.6615  -21.0057  -53.0669 H         1 UNK         0.0600 
    225 H225       -7.5745  -22.4517  -49.8769 H         1 UNK         0.3000 
    226 H226       -5.3508  -21.1280  -48.8686 H         1 UNK         0.0600 
    227 H227       -6.7446  -22.6912  -47.5698 H         1 UNK         0.0600 
    228 H228       -6.6029  -21.1646  -46.7186 H         1 UNK         0.0600 
    229 H229       -8.0904  -21.5479  -47.5793 H         1 UNK         0.0600 
    230 H230       -8.0408  -19.6122  -50.3444 H         1 UNK         0.3000 
    231 H231       -8.0711  -17.1213  -48.9282 H         1 UNK         0.0600 
    232 H232       -9.4037  -16.3630  -50.9016 H         1 UNK         0.0600 
    233 H233       -9.9811  -17.9080  -50.2989 H         1 UNK         0.0600 
    234 H234       -8.9961  -17.8430  -51.7613 H         1 UNK         0.0600 
    235 H235       -6.0333  -18.3388  -51.5954 H         1 UNK         0.3000 
    236 H236       -4.3735  -15.9318  -51.5342 H         1 UNK         0.0600 
    237 H237       -6.2678  -15.0981  -52.9233 H         1 UNK         0.0600 
    238 H238       -4.8475  -15.2913  -53.9259 H         1 UNK         0.0600 
    239 H239       -6.1299  -16.4934  -53.9902 H         1 UNK         0.0600 
    240 H240       -4.5984  -19.2706  -52.1149 H         1 UNK         0.3000 
    241 H241       -3.2913  -20.7785  -52.9065 H         1 UNK         0.0600 
    242 H242       -5.2177  -19.2668  -54.6572 H         1 UNK         0.3800 
    243 H243       -4.7358  -19.7150  -56.2719 H         1 UNK         0.3800 
    244 H244       -1.0024  -18.9613  -53.7331 H         1 UNK         0.0800 
    245 H245       -1.3113  -19.2266  -52.0427 H         1 UNK         0.0800 
    246 H246        1.6297  -21.6042  -53.9321 H         1 UNK         0.0800 
    247 H247        1.0834  -19.9864  -54.2817 H         1 UNK         0.0800 
@<TRIPOS>BOND
     1    1    2 1    
     2    1  127 1    
     3    1  128 1    
     4    1  129 1    
     5    2    3 2    
     6    2    4 am   BACKBONE|DICT|INTERRES
     7    4    5 1    
     8    4  130 1    
     9    5    6 1    
    10    5   65 1    
    11    5  131 1    
    12    6    7 1    
    13    6  132 1    
    14    6  133 1    
    15    7    8 1    
    16    8    9 1    
    17    8  134 1    
    18    8  135 1    
    19    9   10 ar   
    20    9   14 ar   
    21   10   11 ar   
    22   10  136 1    
    23   11   12 ar   
    24   11  126 1    
    25   12   13 ar   
    26   12  137 1    
    27   13   14 ar   
    28   13   15 1    
    29   14  138 1    
    30   15   16 1    
    31   15  139 1    
    32   15  140 1    
    33   16   17 1    
    34   17   18 1    
    35   17  141 1    
    36   17  142 1    
    37   18   19 1    
    38   18   67 1    
    39   18  143 1    
    40   19   20 am   BACKBONE|DICT|INTERRES
    41   19  144 1    
    42   20   21 2    
    43   20   22 1    
    44   22   23 1    
    45   22   24 1    
    46   22  145 1    
    47   23  146 1    
    48   23  147 1    
    49   23  148 1    
    50   24   25 am   BACKBONE|DICT|INTERRES
    51   24  149 1    
    52   25   26 2    
    53   25   27 1    
    54   27   28 1    
    55   27   29 1    
    56   27  150 1    
    57   28  151 1    
    58   28  152 1    
    59   28  153 1    
    60   29   30 am   BACKBONE|DICT|INTERRES
    61   29  154 1    
    62   30   31 2    
    63   30   32 1    
    64   32   33 1    
    65   32   34 1    
    66   32  155 1    
    67   33  156 1    
    68   33  157 1    
    69   33  158 1    
    70   34   35 am   BACKBONE|DICT|INTERRES
    71   34  159 1    
    72   35   36 2    
    73   35   37 1    
    74   37   38 1    
    75   37   39 1    
    76   37  160 1    
    77   38  161 1    
    78   38  162 1    
    79   38  163 1    
    80   39   40 am   BACKBONE|DICT|INTERRES
    81   39  164 1    
    82   40   41 2    
    83   40   42 1    
    84   42   43 1    
    85   42   44 1    
    86   42  165 1    
    87   43  166 1    
    88   43  167 1    
    89   43  168 1    
    90   44   45 am   BACKBONE|DICT|INTERRES
    91   44  169 1    
    92   45   46 2    
    93   45   47 1    
    94   47   48 1    
    95   47   49 1    
    96   47  170 1    
    97   48  171 1    
    98   48  172 1    
    99   48  173 1    
   100   49   50 am   BACKBONE|DICT|INTERRES
   101   49  174 1    
   102   50   51 2    
   103   50   52 1    
   104   52   53 1    
   105   52   54 1    
   106   52  175 1    
   107   53  176 1    
   108   53  177 1    
   109   53  178 1    
   110   54   55 am   BACKBONE|DICT|INTERRES
   111   54  179 1    
   112   55   56 2    
   113   55   57 1    
   114   57   58 1    
   115   57   59 1    
   116   57  180 1    
   117   58  181 1    
   118   58  182 1    
   119   58  183 1    
   120   59   60 am   BACKBONE|DICT|INTERRES
   121   59  184 1    
   122   60   61 2    
   123   60   62 1    
   124   62   63 1    
   125   62   64 1    
   126   62  185 1    
   127   63  186 1    
   128   63  187 1    
   129   63  188 1    
   130   64   65 am   BACKBONE|DICT|INTERRES
   131   64  189 1    
   132   65   66 2    
   133   67   68 2    
   134   67   69 am   BACKBONE|DICT|INTERRES
   135   69   70 1    
   136   69  190 1    
   137   70   71 1    
   138   70   72 1    
   139   70  191 1    
   140   71  192 1    
   141   71  193 1    
   142   71  194 1    
   143   72   73 2    
   144   72   74 am   BACKBONE|DICT|INTERRES
   145   74   75 1    
   146   74  195 1    
   147   75   76 1    
   148   75   77 1    
   149   75  196 1    
   150   76  197 1    
   151   76  198 1    
   152   76  199 1    
   153   77   78 2    
   154   77   79 am   BACKBONE|DICT|INTERRES
   155   79   80 1    
   156   79  200 1    
   157   80   81 1    
   158   80   82 1    
   159   80  201 1    
   160   81  202 1    
   161   81  203 1    
   162   81  204 1    
   163   82   83 2    
   164   82   84 am   BACKBONE|DICT|INTERRES
   165   84   85 1    
   166   84  205 1    
   167   85   86 1    
   168   85   87 1    
   169   85  206 1    
   170   86  207 1    
   171   86  208 1    
   172   86  209 1    
   173   87   88 2    
   174   87   89 am   BACKBONE|DICT|INTERRES
   175   89   90 1    
   176   89  210 1    
   177   90   91 1    
   178   90   92 1    
   179   90  211 1    
   180   91  212 1    
   181   91  213 1    
   182   91  214 1    
   183   92   93 2    
   184   92   94 am   BACKBONE|DICT|INTERRES
   185   94   95 1    
   186   94  215 1    
   187   95   96 1    
   188   95   97 1    
   189   95  216 1    
   190   96  217 1    
   191   96  218 1    
   192   96  219 1    
   193   97   98 2    
   194   97   99 am   BACKBONE|DICT|INTERRES
   195   99  100 1    
   196   99  220 1    
   197  100  101 1    
   198  100  102 1    
   199  100  221 1    
   200  101  222 1    
   201  101  223 1    
   202  101  224 1    
   203  102  103 2    
   204  102  104 am   BACKBONE|DICT|INTERRES
   205  104  105 1    
   206  104  225 1    
   207  105  106 1    
   208  105  107 1    
   209  105  226 1    
   210  106  227 1    
   211  106  228 1    
   212  106  229 1    
   213  107  108 2    
   214  107  109 am   BACKBONE|DICT|INTERRES
   215  109  110 1    
   216  109  230 1    
   217  110  111 1    
   218  110  112 1    
   219  110  231 1    
   220  111  232 1    
   221  111  233 1    
   222  111  234 1    
   223  112  113 2    
   224  112  114 am   BACKBONE|DICT|INTERRES
   225  114  115 1    
   226  114  235 1    
   227  115  116 1    
   228  115  117 1    
   229  115  236 1    
   230  116  237 1    
   231  116  238 1    
   232  116  239 1    
   233  117  118 2    
   234  117  119 am   BACKBONE|DICT|INTERRES
   235  119  120 1    
   236  119  240 1    
   237  120  121 1    
   238  120  124 1    
   239  120  241 1    
   240  121  122 am   BACKBONE|DICT|INTERRES
   241  121  123 2    
   242  122  242 1    
   243  122  243 1    
   244  124  125 1    
   245  124  244 1    
   246  124  245 1    
   247  125  126 1    
   248  126  246 1    
   249  126  247 1    
@<TRIPOS>SUBSTRUCTURE
     1 UNK         1 GROUP             0       ****    0 ROOT    
