@<TRIPOS>MOLECULE
3R540
247   249    1
SMALL
USER_CHARGES


@<TRIPOS>ATOM
      1 CA          6.5304   -9.4207  -49.0979 C.3       0 UNK        -0.1800 
      2 C           6.8990  -10.7702  -48.4980 C.2       0 UNK         0.5000 
      3 O           7.8876  -10.8688  -47.7710 O.2       0 UNK        -0.5000 
      4 N           6.1094  -11.8083  -48.8002 N.am      1 UNK        -0.5000 
      5 CA          6.2741  -13.1755  -48.2884 C.3       1 UNK         0.1400 
      6 C6          5.4538  -14.2004  -49.1140 C.3       23 UNK        -0.0398 
      7 S7          3.6665  -13.8159  -49.2076 S.3       23 UNK        -0.2404 
      8 C8          2.9486  -15.1374  -48.1788 C.3       23 UNK        -0.0205 
      9 C9          2.9272  -16.4804  -48.8960 C.ar      23 UNK        -0.0193 
     10 C10         2.2243  -16.6215  -50.0965 C.ar      23 UNK        -0.1150 
     11 C11         2.1631  -17.8560  -50.7470 C.ar      23 UNK        -0.0193 
     12 C12         2.8290  -18.9540  -50.1968 C.ar      23 UNK        -0.1150 
     13 C13         3.5218  -18.8329  -48.9882 C.ar      23 UNK        -0.0193 
     14 C14         3.5724  -17.5919  -48.3447 C.ar      23 UNK        -0.1150 
     15 C15         4.2051  -20.0468  -48.3747 C.3       23 UNK        -0.0205 
     16 S16         3.1447  -20.8872  -47.1531 S.3       23 UNK        -0.2404 
     17 C17         1.7963  -21.5075  -48.2132 C.3       23 UNK        -0.0398 
     18 CA          0.8889  -22.5353  -47.4952 C.3       11 UNK         0.1400 
     19 N           0.0792  -21.9355  -46.4271 N.am      11 UNK        -0.5000 
     20 C          -0.7032  -22.6248  -45.5832 C.2       10 UNK         0.5000 
     21 O          -0.7867  -23.8530  -45.5805 O.2       10 UNK        -0.5000 
     22 CA         -1.5722  -21.8153  -44.6034 C.3       10 UNK         0.1400 
     23 CB         -0.7472  -21.3354  -43.4002 C.3       10 UNK        -0.1800 
     24 N          -2.2398  -20.6785  -45.2383 N.am      10 UNK        -0.5000 
     25 C          -3.1773  -20.7852  -46.1920 C.2       9 UNK         0.5000 
     26 O          -3.6066  -21.8591  -46.6114 O.2       9 UNK        -0.5000 
     27 CA         -3.6920  -19.4747  -46.8158 C.3       9 UNK         0.1400 
     28 CB         -4.7147  -18.7923  -45.8960 C.3       9 UNK        -0.1800 
     29 N          -2.6190  -18.5311  -47.1212 N.am      9 UNK        -0.5000 
     30 C          -1.5782  -18.7813  -47.9281 C.2       8 UNK         0.5000 
     31 O          -1.4141  -19.8363  -48.5386 O.2       8 UNK        -0.5000 
     32 CA         -0.4993  -17.6882  -47.9902 C.3       8 UNK         0.1400 
     33 CB         -0.9548  -16.5001  -48.8560 C.3       8 UNK        -0.1800 
     34 N          -0.1359  -17.2106  -46.6553 N.am      8 UNK        -0.5000 
     35 C           0.4037  -17.9753  -45.6946 C.2       7 UNK         0.5000 
     36 O           0.6727  -19.1657  -45.8340 O.2       7 UNK        -0.5000 
     37 CA          0.6284  -17.3063  -44.3293 C.3       7 UNK         0.1400 
     38 CB          1.8876  -16.4338  -44.3668 C.3       7 UNK        -0.1800 
     39 N          -0.5174  -16.4925  -43.9244 N.am      7 UNK        -0.5000 
     40 C          -1.7210  -16.9940  -43.6080 C.2       6 UNK         0.5000 
     41 O          -1.9664  -18.1988  -43.5564 O.2       6 UNK        -0.5000 
     42 CA         -2.8542  -15.9781  -43.3616 C.3       6 UNK         0.1400 
     43 CB         -2.8844  -15.5492  -41.8873 C.3       6 UNK        -0.1800 
     44 N          -2.7458  -14.7870  -44.2068 N.am      6 UNK        -0.5000 
     45 C          -2.7552  -14.7925  -45.5472 C.2       5 UNK         0.5000 
     46 O          -2.9543  -15.8083  -46.2129 O.2       5 UNK        -0.5000 
     47 CA         -2.4642  -13.4635  -46.2742 C.3       5 UNK         0.1400 
     48 CB         -3.6910  -13.0132  -47.0822 C.3       5 UNK        -0.1800 
     49 N          -2.0443  -12.3676  -45.3936 N.am      5 UNK        -0.5000 
     50 C          -0.8747  -12.2861  -44.7450 C.2       4 UNK         0.5000 
     51 O           0.0003  -13.1557  -44.7844 O.2       4 UNK        -0.5000 
     52 CA         -0.6944  -11.0471  -43.8580 C.3       4 UNK         0.1400 
     53 CB         -1.4419  -11.2220  -42.5230 C.3       4 UNK        -0.1800 
     54 N           0.7226  -10.8131  -43.5968 N.am      4 UNK        -0.5000 
     55 C           1.2641   -9.6167  -43.3314 C.2       3 UNK         0.5000 
     56 O           0.6125   -8.5715  -43.3000 O.2       3 UNK        -0.5000 
     57 CA          2.7763   -9.5588  -43.0295 C.3       3 UNK         0.1400 
     58 CB          3.0123   -9.3310  -41.5276 C.3       3 UNK        -0.1800 
     59 N           3.5100  -10.7573  -43.4404 N.am      3 UNK        -0.5000 
     60 C           3.8477  -11.0471  -44.7017 C.2       2 UNK         0.5000 
     61 O           3.5854  -10.3257  -45.6688 O.2       2 UNK        -0.5000 
     62 CA          4.5828  -12.3783  -44.9098 C.3       2 UNK         0.1400 
     63 CB          3.6391  -13.5630  -44.6392 C.3       2 UNK        -0.1800 
     64 N           5.0691  -12.4330  -46.2815 N.am      2 UNK        -0.5000 
     65 C           5.9629  -13.2944  -46.7796 C.2       1 UNK         0.5000 
     66 O           6.5299  -14.1581  -46.1088 O.2       1 UNK        -0.5000 
     67 C           0.0145  -23.2852  -48.5205 C.2       11 UNK         0.5000 
     68 O           0.3420  -24.4159  -48.8819 O.2       11 UNK        -0.5000 
     69 N          -1.0964  -22.6660  -48.9420 N.am      12 UNK        -0.5000 
     70 CA         -2.0793  -23.2660  -49.8412 C.3       12 UNK         0.1400 
     71 CB         -3.0950  -22.2075  -50.2761 C.3       12 UNK        -0.1800 
     72 C          -2.7817  -24.4859  -49.2243 C.2       12 UNK         0.5000 
     73 O          -2.8934  -25.5109  -49.8944 O.2       12 UNK        -0.5000 
     74 N          -3.1913  -24.3832  -47.9518 N.am      13 UNK        -0.5000 
     75 CA         -3.7936  -25.4786  -47.1901 C.3       13 UNK         0.1400 
     76 CB         -4.2758  -24.9642  -45.8258 C.3       13 UNK        -0.1800 
     77 C          -2.8442  -26.6793  -47.0196 C.2       13 UNK         0.5000 
     78 O          -3.2759  -27.8187  -47.1957 O.2       13 UNK        -0.5000 
     79 N          -1.5610  -26.4075  -46.7395 N.am      14 UNK        -0.5000 
     80 CA         -0.4942  -27.4097  -46.6585 C.3       14 UNK         0.1400 
     81 CB          0.7827  -26.7554  -46.1103 C.3       14 UNK        -0.1800 
     82 C          -0.2151  -28.1078  -48.0049 C.2       14 UNK         0.5000 
     83 O           0.0958  -29.2991  -48.0189 O.2       14 UNK        -0.5000 
     84 N          -0.3689  -27.3674  -49.1106 N.am      15 UNK        -0.5000 
     85 CA         -0.2802  -27.8682  -50.4844 C.3       15 UNK         0.1400 
     86 CB          0.0664  -26.6933  -51.4143 C.3       15 UNK        -0.1800 
     87 C          -1.5615  -28.5869  -50.9644 C.2       15 UNK         0.5000 
     88 O          -1.5678  -29.1078  -52.0806 O.2       15 UNK        -0.5000 
     89 N          -2.6158  -28.5958  -50.1337 N.am      16 UNK        -0.5000 
     90 CA         -3.9548  -29.1424  -50.3811 C.3       16 UNK         0.1400 
     91 CB         -3.9050  -30.6692  -50.6005 C.3       16 UNK        -0.1800 
     92 C          -4.7330  -28.3926  -51.4851 C.2       16 UNK         0.5000 
     93 O          -5.5886  -28.9835  -52.1474 O.2       16 UNK        -0.5000 
     94 N          -4.4401  -27.0978  -51.6467 N.am      17 UNK        -0.5000 
     95 CA         -5.1651  -26.1603  -52.4983 C.3       17 UNK         0.1400 
     96 CB         -4.1442  -25.2049  -53.1407 C.3       17 UNK        -0.1800 
     97 C          -6.2003  -25.3824  -51.6631 C.2       17 UNK         0.5000 
     98 O          -6.2240  -25.4944  -50.4338 O.2       17 UNK        -0.5000 
     99 N          -7.0417  -24.5946  -52.3455 N.am      18 UNK        -0.5000 
    100 CA        -8.0010  -23.6813  -51.7227 C.3       18 UNK         0.1400 
    101 CB        -8.9412  -23.1168  -52.7991 C.3       18 UNK        -0.1800 
    102 C         -7.2727  -22.5446  -50.9822 C.2       18 UNK         0.5000 
    103 O         -6.4175  -21.8862  -51.5745 O.2       18 UNK        -0.5000 
    104 N         -7.6320  -22.3293  -49.7122 N.am      19 UNK        -0.5000 
    105 CA        -6.9607  -21.4145  -48.7839 C.3       19 UNK         0.1400 
    106 CB        -7.1704  -21.9369  -47.3521 C.3       19 UNK        -0.1800 
    107 C         -7.3772  -19.9336  -48.9304 C.2       19 UNK         0.5000 
    108 O         -7.2025  -19.1566  -47.9903 O.2       19 UNK        -0.5000 
    109 N         -7.9054  -19.5429  -50.0977 N.am      20 UNK        -0.5000 
    110 CA        -8.2077  -18.1596  -50.4734 C.3       20 UNK         0.1400 
    111 CB        -9.2470  -18.1738  -51.6082 C.3       20 UNK        -0.1800 
    112 C         -6.9059  -17.4313  -50.8662 C.2       20 UNK         0.5000 
    113 O         -6.6694  -17.1693  -52.0486 O.2       20 UNK        -0.5000 
    114 N         -6.0408  -17.2123  -49.8642 N.am      21 UNK        -0.5000 
    115 CA        -4.6109  -16.9183  -49.9987 C.3       21 UNK         0.1400 
    116 CB        -4.3811  -15.4975  -50.5613 C.3       21 UNK        -0.1800 
    117 C         -3.9350  -18.0538  -50.7983 C.2       21 UNK         0.5000 
    118 O         -4.1474  -19.2142  -50.4504 O.2       21 UNK        -0.5000 
    119 N         -3.2050  -17.7171  -51.8665 N.am      22 UNK        -0.5000 
    120 CA        -2.7171  -18.6707  -52.8796 C.3       22 UNK         0.1400 
    121 C         -3.5649  -18.6313  -54.1876 C.2       22 UNK         0.5000 
    122 N         -4.7562  -18.0418  -54.2015 N.am      22 UNK        -0.7600 
    123 O         -3.1455  -19.1546  -55.2164 O.2       22 UNK        -0.5000 
    124 C124       -1.1978  -18.5020  -53.1535 C.3       23 UNK        -0.0398 
    125 S125       -0.1998  -18.9039  -51.6821 S.3       23 UNK        -0.2404 
    126 C126        1.3474  -18.0102  -52.0208 C.3       23 UNK        -0.0205 
    127 H127        6.3285   -8.7009  -48.3046 H         1 UNK         0.0600 
    128 H128        5.6447   -9.4865  -49.7304 H         1 UNK         0.0600 
    129 H129        7.3533   -9.0414  -49.7036 H         1 UNK         0.0600 
    130 H130        5.3091  -11.6682  -49.4014 H         1 UNK         0.3000 
    131 H131        7.3276  -13.4385  -48.4062 H         1 UNK         0.0600 
    132 H132        5.6005  -15.2112  -48.7289 H         1 UNK         0.0800 
    133 H133        5.8360  -14.2252  -50.1351 H         1 UNK         0.0800 
    134 H134        3.4959  -15.2036  -47.2375 H         1 UNK         0.0800 
    135 H135        1.9263  -14.8626  -47.9172 H         1 UNK         0.0800 
    136 H136        1.7078  -15.7686  -50.5139 H         1 UNK         0.1150 
    137 H137        2.7774  -19.9118  -50.6952 H         1 UNK         0.1150 
    138 H138        4.1018  -17.4986  -47.4069 H         1 UNK         0.1150 
    139 H139        4.4987  -20.7539  -49.1520 H         1 UNK         0.0800 
    140 H140        5.1285  -19.7366  -47.8836 H         1 UNK         0.0800 
    141 H141        2.2548  -21.9542  -49.0976 H         1 UNK         0.0800 
    142 H142        1.2055  -20.6602  -48.5649 H         1 UNK         0.0800 
    143 H143        1.5327  -23.2832  -47.0273 H         1 UNK         0.0600 
    144 H144        0.1375  -20.9242  -46.3313 H         1 UNK         0.3000 
    145 H145       -2.3499  -22.4829  -44.2272 H         1 UNK         0.0600 
    146 H146       -1.3783  -20.8376  -42.6638 H         1 UNK         0.0600 
    147 H147       -0.2635  -22.1750  -42.8997 H         1 UNK         0.0600 
    148 H148        0.0344  -20.6364  -43.6968 H         1 UNK         0.0600 
    149 H149       -1.9639  -19.7556  -44.9212 H         1 UNK         0.3000 
    150 H150       -4.1888  -19.7259  -47.7546 H         1 UNK         0.0600 
    151 H151       -5.5461  -19.4595  -45.6694 H         1 UNK         0.0600 
    152 H152       -5.1324  -17.9011  -46.3649 H         1 UNK         0.0600 
    153 H153       -4.2697  -18.4937  -44.9477 H         1 UNK         0.0600 
    154 H154       -2.6715  -17.6207  -46.6710 H         1 UNK         0.3000 
    155 H155        0.3928  -18.1269  -48.4398 H         1 UNK         0.0600 
    156 H156       -0.2094  -15.7063  -48.8683 H         1 UNK         0.0600 
    157 H157       -1.1130  -16.8100  -49.8879 H         1 UNK         0.0600 
    158 H158       -1.8894  -16.0667  -48.5056 H         1 UNK         0.0600 
    159 H159       -0.3756  -16.2570  -46.4337 H         1 UNK         0.3000 
    160 H160        0.7746  -18.0914  -43.5844 H         1 UNK         0.0600 
    161 H161        1.7870  -15.6355  -45.1014 H         1 UNK         0.0600 
    162 H162        2.7648  -17.0225  -44.6387 H         1 UNK         0.0600 
    163 H163        2.0852  -15.9794  -43.3959 H         1 UNK         0.0600 
    164 H164       -0.4015  -15.4885  -43.9604 H         1 UNK         0.3000 
    165 H165       -3.7999  -16.4701  -43.5968 H         1 UNK         0.0600 
    166 H166       -3.7304  -14.8922  -41.6847 H         1 UNK         0.0600 
    167 H167       -2.9824  -16.4152  -41.2312 H         1 UNK         0.0600 
    168 H168       -1.9731  -15.0219  -41.6019 H         1 UNK         0.0600 
    169 H169       -2.5866  -13.9091  -43.7371 H         1 UNK         0.3000 
    170 H170       -1.6508  -13.6604  -46.9756 H         1 UNK         0.0600 
    171 H171       -4.0093  -13.7904  -47.7782 H         1 UNK         0.0600 
    172 H172       -4.5384  -12.7867  -46.4340 H         1 UNK         0.0600 
    173 H173       -3.4705  -12.1236  -47.6725 H         1 UNK         0.0600 
    174 H174       -2.7101  -11.6159  -45.2829 H         1 UNK         0.3000 
    175 H175       -1.1085  -10.1914  -44.3959 H         1 UNK         0.0600 
    176 H176       -2.5070  -11.3926  -42.6837 H         1 UNK         0.0600 
    177 H177       -1.0541  -12.0685  -41.9546 H         1 UNK         0.0600 
    178 H178       -1.3506  -10.3325  -41.8993 H         1 UNK         0.0600 
    179 H179        1.3123  -11.6315  -43.6665 H         1 UNK         0.3000 
    180 H180        3.1826   -8.7008  -43.5696 H         1 UNK         0.0600 
    181 H181        2.6305  -10.1598  -40.9301 H         1 UNK         0.0600 
    182 H182        2.5132   -8.4233  -41.1857 H         1 UNK         0.0600 
    183 H183        4.0739   -9.2176  -41.3072 H         1 UNK         0.0600 
    184 H184        3.7599  -11.4021  -42.7042 H         1 UNK         0.3000 
    185 H185        5.4345  -12.4149  -44.2277 H         1 UNK         0.0600 
    186 H186        3.2596  -13.5487  -43.6172 H         1 UNK         0.0600 
    187 H187        2.7794  -13.5374  -45.3097 H         1 UNK         0.0600 
    188 H188        4.1456  -14.5181  -44.7763 H         1 UNK         0.0600 
    189 H189        4.6744  -11.7214  -46.8846 H         1 UNK         0.3000 
    190 H190       -1.2806  -21.7122  -48.6359 H         1 UNK         0.3000 
    191 H191       -1.5501  -23.6070  -50.7333 H         1 UNK         0.0600 
    192 H192       -3.5964  -21.7586  -49.4192 H         1 UNK         0.0600 
    193 H193       -3.8615  -22.6327  -50.9242 H         1 UNK         0.0600 
    194 H194       -2.6050  -21.4067  -50.8290 H         1 UNK         0.0600 
    195 H195       -3.1068  -23.4894  -47.4742 H         1 UNK         0.3000 
    196 H196       -4.6660  -25.8239  -47.7492 H         1 UNK         0.0600 
    197 H197       -4.7411  -25.7640  -45.2485 H         1 UNK         0.0600 
    198 H198       -5.0176  -24.1742  -45.9426 H         1 UNK         0.0600 
    199 H199       -3.4533  -24.5650  -45.2323 H         1 UNK         0.0600 
    200 H200       -1.2929  -25.4432  -46.5595 H         1 UNK         0.3000 
    201 H201       -0.8126  -28.1772  -45.9501 H         1 UNK         0.0600 
    202 H202        0.6136  -26.3300  -45.1209 H         1 UNK         0.0600 
    203 H203        1.1368  -25.9556  -46.7611 H         1 UNK         0.0600 
    204 H204        1.5879  -27.4852  -46.0176 H         1 UNK         0.0600 
    205 H205       -0.5784  -26.3810  -49.0062 H         1 UNK         0.3000 
    206 H206        0.5352  -28.5922  -50.5393 H         1 UNK         0.0600 
    207 H207       -0.7251  -25.9441  -51.4292 H         1 UNK         0.0600 
    208 H208        0.2137  -27.0337  -52.4398 H         1 UNK         0.0600 
    209 H209        0.9870  -26.2005  -51.1012 H         1 UNK         0.0600 
    210 H210       -2.5114  -28.1197  -49.2463 H         1 UNK         0.3000 
    211 H211       -4.5152  -28.9682  -49.4617 H         1 UNK         0.0600 
    212 H212       -3.4336  -30.9293  -51.5484 H         1 UNK         0.0600 
    213 H213       -4.9089  -31.0950  -50.6096 H         1 UNK         0.0600 
    214 H214       -3.3519  -31.1641  -49.8023 H         1 UNK         0.0600 
    215 H215       -3.7836  -26.6671  -50.9977 H         1 UNK         0.3000 
    216 H216       -5.6918  -26.6964  -53.2903 H         1 UNK         0.0600 
    217 H217       -3.6206  -24.6105  -52.3920 H         1 UNK         0.0600 
    218 H218       -4.6269  -24.5116  -53.8301 H         1 UNK         0.0600 
    219 H219       -3.3952  -25.7565  -53.7091 H         1 UNK         0.0600 
    220 H220       -6.9488  -24.5293  -53.3485 H         1 UNK         0.3000 
    221 H221       -8.5998  -24.2506  -51.0084 H         1 UNK         0.0600 
    222 H222       -9.4885  -23.9138  -53.3027 H         1 UNK         0.0600 
    223 H223       -8.3951  -22.5533  -53.5569 H         1 UNK         0.0600 
    224 H224       -9.6789  -22.4446  -52.3588 H         1 UNK         0.0600 
    225 H225       -8.3701  -22.8929  -49.3153 H         1 UNK         0.3000 
    226 H226       -5.8889  -21.4483  -48.9869 H         1 UNK         0.0600 
    227 H227       -6.8409  -22.9720  -47.2598 H         1 UNK         0.0600 
    228 H228       -6.5944  -21.3575  -46.6309 H         1 UNK         0.0600 
    229 H229       -8.2185  -21.8875  -47.0550 H         1 UNK         0.0600 
    230 H230       -7.9367  -20.2253  -50.8416 H         1 UNK         0.3000 
    231 H231       -8.6451  -17.6364  -49.6204 H         1 UNK         0.0600 
    232 H232       -8.8813  -18.7088  -52.4856 H         1 UNK         0.0600 
    233 H233       -9.4963  -17.1591  -51.9211 H         1 UNK         0.0600 
    234 H234      -10.1729  -18.6515  -51.2874 H         1 UNK         0.0600 
    235 H235       -6.3228  -17.5595  -48.9535 H         1 UNK         0.3000 
    236 H236       -4.1918  -16.9523  -48.9923 H         1 UNK         0.0600 
    237 H237       -4.8986  -14.7541  -49.9552 H         1 UNK         0.0600 
    238 H238       -3.3225  -15.2360  -50.5501 H         1 UNK         0.0600 
    239 H239       -4.7408  -15.3915  -51.5851 H         1 UNK         0.0600 
    240 H240       -3.1097  -16.7407  -52.1029 H         1 UNK         0.3000 
    241 H241       -2.8542  -19.6893  -52.5139 H         1 UNK         0.0600 
    242 H242       -5.2843  -18.0328  -55.0594 H         1 UNK         0.3800 
    243 H243       -5.1788  -17.6662  -53.3595 H         1 UNK         0.3800 
    244 H244       -0.9845  -17.4837  -53.4810 H         1 UNK         0.0800 
    245 H245       -0.8664  -19.1627  -53.9561 H         1 UNK         0.0800 
    246 H246        1.9253  -18.5516  -52.7710 H         1 UNK         0.0800 
    247 H247        1.1233  -17.0303  -52.4447 H         1 UNK         0.0800 
@<TRIPOS>BOND
     1    1    2 1    
     2    1  127 1    
     3    1  128 1    
     4    1  129 1    
     5    2    3 2    
     6    2    4 am   BACKBONE|DICT|INTERRES
     7    4    5 1    
     8    4  130 1    
     9    5    6 1    
    10    5   65 1    
    11    5  131 1    
    12    6    7 1    
    13    6  132 1    
    14    6  133 1    
    15    7    8 1    
    16    8    9 1    
    17    8  134 1    
    18    8  135 1    
    19    9   10 ar   
    20    9   14 ar   
    21   10   11 ar   
    22   10  136 1    
    23   11   12 ar   
    24   11  126 1    
    25   12   13 ar   
    26   12  137 1    
    27   13   14 ar   
    28   13   15 1    
    29   14  138 1    
    30   15   16 1    
    31   15  139 1    
    32   15  140 1    
    33   16   17 1    
    34   17   18 1    
    35   17  141 1    
    36   17  142 1    
    37   18   19 1    
    38   18   67 1    
    39   18  143 1    
    40   19   20 am   BACKBONE|DICT|INTERRES
    41   19  144 1    
    42   20   21 2    
    43   20   22 1    
    44   22   23 1    
    45   22   24 1    
    46   22  145 1    
    47   23  146 1    
    48   23  147 1    
    49   23  148 1    
    50   24   25 am   BACKBONE|DICT|INTERRES
    51   24  149 1    
    52   25   26 2    
    53   25   27 1    
    54   27   28 1    
    55   27   29 1    
    56   27  150 1    
    57   28  151 1    
    58   28  152 1    
    59   28  153 1    
    60   29   30 am   BACKBONE|DICT|INTERRES
    61   29  154 1    
    62   30   31 2    
    63   30   32 1    
    64   32   33 1    
    65   32   34 1    
    66   32  155 1    
    67   33  156 1    
    68   33  157 1    
    69   33  158 1    
    70   34   35 am   BACKBONE|DICT|INTERRES
    71   34  159 1    
    72   35   36 2    
    73   35   37 1    
    74   37   38 1    
    75   37   39 1    
    76   37  160 1    
    77   38  161 1    
    78   38  162 1    
    79   38  163 1    
    80   39   40 am   BACKBONE|DICT|INTERRES
    81   39  164 1    
    82   40   41 2    
    83   40   42 1    
    84   42   43 1    
    85   42   44 1    
    86   42  165 1    
    87   43  166 1    
    88   43  167 1    
    89   43  168 1    
    90   44   45 am   BACKBONE|DICT|INTERRES
    91   44  169 1    
    92   45   46 2    
    93   45   47 1    
    94   47   48 1    
    95   47   49 1    
    96   47  170 1    
    97   48  171 1    
    98   48  172 1    
    99   48  173 1    
   100   49   50 am   BACKBONE|DICT|INTERRES
   101   49  174 1    
   102   50   51 2    
   103   50   52 1    
   104   52   53 1    
   105   52   54 1    
   106   52  175 1    
   107   53  176 1    
   108   53  177 1    
   109   53  178 1    
   110   54   55 am   BACKBONE|DICT|INTERRES
   111   54  179 1    
   112   55   56 2    
   113   55   57 1    
   114   57   58 1    
   115   57   59 1    
   116   57  180 1    
   117   58  181 1    
   118   58  182 1    
   119   58  183 1    
   120   59   60 am   BACKBONE|DICT|INTERRES
   121   59  184 1    
   122   60   61 2    
   123   60   62 1    
   124   62   63 1    
   125   62   64 1    
   126   62  185 1    
   127   63  186 1    
   128   63  187 1    
   129   63  188 1    
   130   64   65 am   BACKBONE|DICT|INTERRES
   131   64  189 1    
   132   65   66 2    
   133   67   68 2    
   134   67   69 am   BACKBONE|DICT|INTERRES
   135   69   70 1    
   136   69  190 1    
   137   70   71 1    
   138   70   72 1    
   139   70  191 1    
   140   71  192 1    
   141   71  193 1    
   142   71  194 1    
   143   72   73 2    
   144   72   74 am   BACKBONE|DICT|INTERRES
   145   74   75 1    
   146   74  195 1    
   147   75   76 1    
   148   75   77 1    
   149   75  196 1    
   150   76  197 1    
   151   76  198 1    
   152   76  199 1    
   153   77   78 2    
   154   77   79 am   BACKBONE|DICT|INTERRES
   155   79   80 1    
   156   79  200 1    
   157   80   81 1    
   158   80   82 1    
   159   80  201 1    
   160   81  202 1    
   161   81  203 1    
   162   81  204 1    
   163   82   83 2    
   164   82   84 am   BACKBONE|DICT|INTERRES
   165   84   85 1    
   166   84  205 1    
   167   85   86 1    
   168   85   87 1    
   169   85  206 1    
   170   86  207 1    
   171   86  208 1    
   172   86  209 1    
   173   87   88 2    
   174   87   89 am   BACKBONE|DICT|INTERRES
   175   89   90 1    
   176   89  210 1    
   177   90   91 1    
   178   90   92 1    
   179   90  211 1    
   180   91  212 1    
   181   91  213 1    
   182   91  214 1    
   183   92   93 2    
   184   92   94 am   BACKBONE|DICT|INTERRES
   185   94   95 1    
   186   94  215 1    
   187   95   96 1    
   188   95   97 1    
   189   95  216 1    
   190   96  217 1    
   191   96  218 1    
   192   96  219 1    
   193   97   98 2    
   194   97   99 am   BACKBONE|DICT|INTERRES
   195   99  100 1    
   196   99  220 1    
   197  100  101 1    
   198  100  102 1    
   199  100  221 1    
   200  101  222 1    
   201  101  223 1    
   202  101  224 1    
   203  102  103 2    
   204  102  104 am   BACKBONE|DICT|INTERRES
   205  104  105 1    
   206  104  225 1    
   207  105  106 1    
   208  105  107 1    
   209  105  226 1    
   210  106  227 1    
   211  106  228 1    
   212  106  229 1    
   213  107  108 2    
   214  107  109 am   BACKBONE|DICT|INTERRES
   215  109  110 1    
   216  109  230 1    
   217  110  111 1    
   218  110  112 1    
   219  110  231 1    
   220  111  232 1    
   221  111  233 1    
   222  111  234 1    
   223  112  113 2    
   224  112  114 am   BACKBONE|DICT|INTERRES
   225  114  115 1    
   226  114  235 1    
   227  115  116 1    
   228  115  117 1    
   229  115  236 1    
   230  116  237 1    
   231  116  238 1    
   232  116  239 1    
   233  117  118 2    
   234  117  119 am   BACKBONE|DICT|INTERRES
   235  119  120 1    
   236  119  240 1    
   237  120  121 1    
   238  120  124 1    
   239  120  241 1    
   240  121  122 am   BACKBONE|DICT|INTERRES
   241  121  123 2    
   242  122  242 1    
   243  122  243 1    
   244  124  125 1    
   245  124  244 1    
   246  124  245 1    
   247  125  126 1    
   248  126  246 1    
   249  126  247 1    
@<TRIPOS>SUBSTRUCTURE
     1 UNK         1 GROUP             0       ****    0 ROOT    
