@<TRIPOS>MOLECULE
3R540
247   249    1
SMALL
USER_CHARGES


@<TRIPOS>ATOM
      1 CA         -3.8897  -11.9469  -42.3617 C.3       0 UNK        -0.1800 
      2 C          -2.9966  -12.1759  -43.5718 C.2       0 UNK         0.5000 
      3 O          -2.7151  -11.2361  -44.3151 O.2       0 UNK        -0.5000 
      4 N          -2.5291  -13.4169  -43.7656 N.am      1 UNK        -0.5000 
      5 CA         -1.7121  -13.8512  -44.9106 C.3       1 UNK         0.1400 
      6 C6         -1.5075  -15.3859  -44.9582 C.3       23 UNK        -0.0398 
      7 S7         -3.0052  -16.3658  -44.6003 S.3       23 UNK        -0.2404 
      8 C8         -4.0647  -15.9889  -46.0320 C.3       23 UNK        -0.0205 
      9 C9         -3.5158  -16.5409  -47.3394 C.ar      23 UNK        -0.0193 
     10 C10        -3.2362  -15.6834  -48.4086 C.ar      23 UNK        -0.1150 
     11 C11        -2.7973  -16.1982  -49.6326 C.ar      23 UNK        -0.0193 
     12 C12        -2.6462  -17.5775  -49.7797 C.ar      23 UNK        -0.1150 
     13 C13        -2.8721  -18.4417  -48.7061 C.ar      23 UNK        -0.0193 
     14 C14        -3.3157  -17.9162  -47.4897 C.ar      23 UNK        -0.1150 
     15 C15        -2.5726  -19.9246  -48.8656 C.3       23 UNK        -0.0205 
     16 S16        -3.9459  -21.0034  -48.3655 S.3       23 UNK        -0.2404 
     17 C17        -3.3837  -21.5619  -46.7213 C.3       23 UNK        -0.0398 
     18 CA         -2.5147  -22.8418  -46.8312 C.3       11 UNK         0.1400 
     19 N          -1.0776  -22.5510  -46.8694 N.am      11 UNK        -0.5000 
     20 C          -0.1439  -23.4445  -47.2256 C.2       10 UNK         0.5000 
     21 O          -0.3989  -24.5954  -47.5735 O.2       10 UNK        -0.5000 
     22 CA          1.3217  -23.0005  -47.1213 C.3       10 UNK         0.1400 
     23 CB          1.7059  -22.0739  -48.2863 C.3       10 UNK        -0.1800 
     24 N           1.5977  -22.3508  -45.8408 N.am      10 UNK        -0.5000 
     25 C           1.5909  -22.9818  -44.6575 C.2       9 UNK         0.5000 
     26 O           1.3652  -24.1847  -44.5257 O.2       9 UNK        -0.5000 
     27 CA          1.8505  -22.1203  -43.4082 C.3       9 UNK         0.1400 
     28 CB          3.3577  -22.0003  -43.1392 C.3       9 UNK        -0.1800 
     29 N           1.2707  -20.7811  -43.5108 N.am      9 UNK        -0.5000 
     30 C          -0.0446  -20.5246  -43.5304 C.2       8 UNK         0.5000 
     31 O          -0.9156  -21.3912  -43.4521 O.2       8 UNK        -0.5000 
     32 CA         -0.4471  -19.0522  -43.7376 C.3       8 UNK         0.1400 
     33 CB         -0.3358  -18.2750  -42.4164 C.3       8 UNK        -0.1800 
     34 N           0.3357  -18.3748  -44.7792 N.am      8 UNK        -0.5000 
     35 C           0.4356  -18.7959  -46.0481 C.2       7 UNK         0.5000 
     36 O          -0.1034  -19.8251  -46.4534 O.2       7 UNK        -0.5000 
     37 CA          1.2821  -17.9673  -47.0335 C.3       7 UNK         0.1400 
     38 CB          0.4758  -17.5958  -48.2846 C.3       7 UNK        -0.1800 
     39 N           1.8523  -16.7366  -46.4851 N.am      7 UNK        -0.5000 
     40 C           2.9821  -16.6645  -45.7688 C.2       6 UNK         0.5000 
     41 O           3.5435  -17.6492  -45.2879 O.2       6 UNK        -0.5000 
     42 CA          3.6015  -15.2599  -45.6375 C.3       6 UNK         0.1400 
     43 CB          5.0884  -15.2889  -45.2319 C.3       6 UNK        -0.1800 
     44 N           3.4280  -14.5550  -46.9087 N.am      6 UNK        -0.5000 
     45 C           3.4227  -13.2312  -47.0890 C.2       5 UNK         0.5000 
     46 O           3.6895  -12.4207  -46.2034 O.2       5 UNK        -0.5000 
     47 CA          3.0150  -12.7188  -48.4796 C.3       5 UNK         0.1400 
     48 CB          3.0067  -13.8075  -49.5782 C.3       5 UNK        -0.1800 
     49 N           1.6910  -12.1224  -48.3480 N.am      5 UNK        -0.5000 
     50 C           1.1136  -11.2874  -49.2186 C.2       4 UNK         0.5000 
     51 O           1.6537  -10.8845  -50.2497 O.2       4 UNK        -0.5000 
     52 CA         -0.3044  -10.8088  -48.8662 C.3       4 UNK         0.1400 
     53 CB         -1.3346  -11.9315  -49.0731 C.3       4 UNK        -0.1800 
     54 N          -0.3760  -10.3333  -47.4862 N.am      4 UNK        -0.5000 
     55 C          -0.0920   -9.0822  -47.0976 C.2       3 UNK         0.5000 
     56 O           0.2409   -8.1845  -47.8723 O.2       3 UNK        -0.5000 
     57 CA         -0.2058   -8.7733  -45.5922 C.3       3 UNK         0.1400 
     58 CB         -1.5881   -8.1874  -45.2665 C.3       3 UNK        -0.1800 
     59 N           0.0254   -9.9599  -44.7669 N.am      3 UNK        -0.5000 
     60 C           1.2457  -10.4364  -44.4753 C.2       2 UNK         0.5000 
     61 O           2.2865   -9.8518  -44.7766 O.2       2 UNK        -0.5000 
     62 CA          1.3289  -11.7828  -43.7241 C.3       2 UNK         0.1400 
     63 CB          1.6068  -11.5483  -42.2316 C.3       2 UNK        -0.1800 
     64 N           0.1285  -12.6096  -43.8533 N.am      2 UNK        -0.5000 
     65 C          -0.3443  -13.1398  -44.9901 C.2       1 UNK         0.5000 
     66 O           0.2319  -13.0571  -46.0744 O.2       1 UNK        -0.5000 
     67 C          -2.8720  -23.8795  -45.7496 C.2       11 UNK         0.5000 
     68 O          -3.7489  -24.7073  -45.9971 O.2       11 UNK        -0.5000 
     69 N          -2.1766  -23.8611  -44.6034 N.am      12 UNK        -0.5000 
     70 CA         -2.3166  -24.8741  -43.5555 C.3       12 UNK         0.1400 
     71 CB         -1.5483  -24.4389  -42.2987 C.3       12 UNK        -0.1800 
     72 C          -1.8640  -26.2714  -44.0213 C.2       12 UNK         0.5000 
     73 O          -2.5723  -27.2487  -43.7780 O.2       12 UNK        -0.5000 
     74 N          -0.7117  -26.3372  -44.7031 N.am      13 UNK        -0.5000 
     75 CA         -0.1425  -27.5701  -45.2485 C.3       13 UNK         0.1400 
     76 CB          1.3157  -27.3182  -45.6619 C.3       13 UNK        -0.1800 
     77 C          -0.9499  -28.1365  -46.4310 C.2       13 UNK         0.5000 
     78 O          -1.1823  -29.3447  -46.4860 O.2       13 UNK        -0.5000 
     79 N          -1.3600  -27.2577  -47.3544 N.am      14 UNK        -0.5000 
     80 CA         -2.0695  -27.6114  -48.5856 C.3       14 UNK         0.1400 
     81 CB         -1.8154  -26.5119  -49.6281 C.3       14 UNK        -0.1800 
     82 C          -3.5837  -27.8228  -48.3987 C.2       14 UNK         0.5000 
     83 O          -4.2432  -28.2349  -49.3525 O.2       14 UNK        -0.5000 
     84 N          -4.1163  -27.5068  -47.2087 N.am      15 UNK        -0.5000 
     85 CA         -5.5397  -27.5140  -46.8499 C.3       15 UNK         0.1400 
     86 CB         -6.1096  -28.9479  -46.8571 C.3       15 UNK        -0.1800 
     87 C          -6.3455  -26.5271  -47.7210 C.2       15 UNK         0.5000 
     88 O          -7.3239  -26.9056  -48.3664 O.2       15 UNK        -0.5000 
     89 N          -5.8661  -25.2764  -47.7399 N.am      16 UNK        -0.5000 
     90 CA         -6.3708  -24.0997  -48.4571 C.3       16 UNK         0.1400 
     91 CB         -7.8359  -23.7964  -48.0859 C.3       16 UNK        -0.1800 
     92 C          -6.1584  -24.1138  -49.9857 C.2       16 UNK         0.5000 
     93 O          -6.4519  -23.1091  -50.6335 O.2       16 UNK        -0.5000 
     94 N          -5.6201  -25.2038  -50.5529 N.am      17 UNK        -0.5000 
     95 CA         -5.3822  -25.3487  -51.9951 C.3       17 UNK         0.1400 
     96 CB         -5.0770  -26.8186  -52.3168 C.3       17 UNK        -0.1800 
     97 C          -4.2737  -24.4258  -52.5448 C.2       17 UNK         0.5000 
     98 O          -4.2441  -24.1634  -53.7474 O.2       17 UNK        -0.5000 
     99 N          -3.4001  -23.9274  -51.6587 N.am      18 UNK        -0.5000 
    100 CA        -2.3241  -22.9852  -51.9728 C.3       18 UNK         0.1400 
    101 CB        -1.2857  -23.0145  -50.8390 C.3       18 UNK        -0.1800 
    102 C         -2.8062  -21.5407  -52.2147 C.2       18 UNK         0.5000 
    103 O         -1.9873  -20.7016  -52.5935 O.2       18 UNK        -0.5000 
    104 N         -4.0952  -21.2498  -51.9750 N.am      19 UNK        -0.5000 
    105 CA        -4.6932  -19.9109  -52.0519 C.3       19 UNK         0.1400 
    106 CB        -6.1702  -19.9884  -51.6418 C.3       19 UNK        -0.1800 
    107 C         -4.5461  -19.2188  -53.4203 C.2       19 UNK         0.5000 
    108 O         -4.4421  -17.9932  -53.4737 O.2       19 UNK        -0.5000 
    109 N         -4.5124  -20.0174  -54.4948 N.am      20 UNK        -0.5000 
    110 CA        -4.2832  -19.5564  -55.8636 C.3       20 UNK         0.1400 
    111 CB        -4.7801  -20.6384  -56.8350 C.3       20 UNK        -0.1800 
    112 C         -2.8078  -19.2118  -56.1543 C.2       20 UNK         0.5000 
    113 O         -2.5448  -18.4684  -57.1006 O.2       20 UNK        -0.5000 
    114 N         -1.8767  -19.7653  -55.3653 N.am      21 UNK        -0.5000 
    115 CA        -0.4360  -19.5822  -55.5256 C.3       21 UNK         0.1400 
    116 CB         0.2853  -20.9057  -55.2195 C.3       21 UNK        -0.1800 
    117 C          0.0882  -18.4520  -54.6271 C.2       21 UNK         0.5000 
    118 O          0.8023  -17.5771  -55.1182 O.2       21 UNK        -0.5000 
    119 N         -0.2749  -18.4871  -53.3355 N.am      22 UNK        -0.5000 
    120 CA         0.1744  -17.5337  -52.3018 C.3       22 UNK         0.1400 
    121 C          1.7072  -17.5889  -52.0022 C.2       22 UNK         0.5000 
    122 N          2.3687  -18.7203  -52.2171 N.am      22 UNK        -0.7600 
    123 O          2.3088  -16.6165  -51.5572 O.2       22 UNK        -0.5000 
    124 C124       -0.3767  -16.0992  -52.5584 C.3       23 UNK        -0.0398 
    125 S125       -0.6728  -15.1196  -51.0409 S.3       23 UNK        -0.2404 
    126 C126       -2.4751  -15.2722  -50.7948 C.3       23 UNK        -0.0205 
    127 H127       -4.8639  -11.5767  -42.6808 H         1 UNK         0.0600 
    128 H128       -3.4418  -11.2054  -41.7003 H         1 UNK         0.0600 
    129 H129       -4.0434  -12.8638  -41.7924 H         1 UNK         0.0600 
    130 H130       -2.8029  -14.1536  -43.1301 H         1 UNK         0.3000 
    131 H131       -2.2572  -13.5617  -45.8113 H         1 UNK         0.0600 
    132 H132       -0.7531  -15.6861  -44.2305 H         1 UNK         0.0800 
    133 H133       -1.1210  -15.6873  -45.9333 H         1 UNK         0.0800 
    134 H134       -4.2248  -14.9119  -46.0941 H         1 UNK         0.0800 
    135 H135       -5.0475  -16.4289  -45.8585 H         1 UNK         0.0800 
    136 H136       -3.3704  -14.6171  -48.2934 H         1 UNK         0.1150 
    137 H137       -2.3229  -17.9743  -50.7293 H         1 UNK         0.1150 
    138 H138       -3.5059  -18.5743  -46.6551 H         1 UNK         0.1150 
    139 H139       -2.3258  -20.1417  -49.9011 H         1 UNK         0.0800 
    140 H140       -1.6759  -20.1767  -48.3076 H         1 UNK         0.0800 
    141 H141       -4.2895  -21.7361  -46.1370 H         1 UNK         0.0800 
    142 H142       -2.8506  -20.7640  -46.2021 H         1 UNK         0.0800 
    143 H143       -2.7561  -23.3395  -47.7731 H         1 UNK         0.0600 
    144 H144       -0.7817  -21.6162  -46.5993 H         1 UNK         0.3000 
    145 H145        1.9457  -23.8947  -47.1850 H         1 UNK         0.0600 
    146 H146        2.7500  -21.7683  -48.2203 H         1 UNK         0.0600 
    147 H147        1.5772  -22.5838  -49.2419 H         1 UNK         0.0600 
    148 H148        1.0939  -21.1729  -48.3176 H         1 UNK         0.0600 
    149 H149        1.7209  -21.3496  -45.8553 H         1 UNK         0.3000 
    150 H150        1.3913  -22.6245  -42.5554 H         1 UNK         0.0600 
    151 H151        3.8161  -22.9854  -43.0416 H         1 UNK         0.0600 
    152 H152        3.5509  -21.4599  -42.2124 H         1 UNK         0.0600 
    153 H153        3.8715  -21.4771  -43.9468 H         1 UNK         0.0600 
    154 H154        1.9145  -20.0086  -43.6039 H         1 UNK         0.3000 
    155 H155       -1.4922  -19.0428  -44.0538 H         1 UNK         0.0600 
    156 H156        0.7003  -18.1789  -42.0898 H         1 UNK         0.0600 
    157 H157       -0.8853  -18.7794  -41.6204 H         1 UNK         0.0600 
    158 H158       -0.7545  -17.2737  -42.5056 H         1 UNK         0.0600 
    159 H159        0.8412  -17.5451  -44.5106 H         1 UNK         0.3000 
    160 H160        2.1027  -18.6135  -47.3528 H         1 UNK         0.0600 
    161 H161       -0.3809  -16.9700  -48.0352 H         1 UNK         0.0600 
    162 H162        0.1051  -18.4851  -48.7943 H         1 UNK         0.0600 
    163 H163        1.0877  -17.0494  -49.0019 H         1 UNK         0.0600 
    164 H164        1.4268  -15.8751  -46.7959 H         1 UNK         0.3000 
    165 H165        3.0367  -14.7362  -44.8635 H         1 UNK         0.0600 
    166 H166        5.4896  -14.2821  -45.1167 H         1 UNK         0.0600 
    167 H167        5.2255  -15.7996  -44.2781 H         1 UNK         0.0600 
    168 H168        5.6947  -15.8077  -45.9752 H         1 UNK         0.0600 
    169 H169        3.2310  -15.1450  -47.7057 H         1 UNK         0.3000 
    170 H170        3.7296  -11.9419  -48.7583 H         1 UNK         0.0600 
    171 H171        3.9689  -14.3172  -49.6409 H         1 UNK         0.0600 
    172 H172        2.2354  -14.5595  -49.4051 H         1 UNK         0.0600 
    173 H173        2.8175  -13.3749  -50.5606 H         1 UNK         0.0600 
    174 H174        1.1820  -12.3862  -47.5060 H         1 UNK         0.3000 
    175 H175       -0.5647   -9.9924  -49.5435 H         1 UNK         0.0600 
    176 H176       -1.1212  -12.8057  -48.4568 H         1 UNK         0.0600 
    177 H177       -2.3426  -11.5921  -48.8349 H         1 UNK         0.0600 
    178 H178       -1.3404  -12.2586  -50.1131 H         1 UNK         0.0600 
    179 H179       -0.5891  -11.0228  -46.7798 H         1 UNK         0.3000 
    180 H180        0.5433   -8.0170  -45.3479 H         1 UNK         0.0600 
    181 H181       -1.6833   -7.9647  -44.2037 H         1 UNK         0.0600 
    182 H182       -2.3919   -8.8716  -45.5401 H         1 UNK         0.0600 
    183 H183       -1.7533   -7.2566  -45.8105 H         1 UNK         0.0600 
    184 H184       -0.7984  -10.4773  -44.4782 H         1 UNK         0.3000 
    185 H185        2.1656  -12.3448  -44.1390 H         1 UNK         0.0600 
    186 H186        1.7444  -12.4913  -41.7022 H         1 UNK         0.0600 
    187 H187        2.5166  -10.9631  -42.0909 H         1 UNK         0.0600 
    188 H188        0.7907  -11.0073  -41.7509 H         1 UNK         0.0600 
    189 H189       -0.4264  -12.7240  -43.0176 H         1 UNK         0.3000 
    190 H190       -1.5103  -23.1153  -44.4342 H         1 UNK         0.3000 
    191 H191       -3.3750  -24.9397  -43.2943 H         1 UNK         0.0600 
    192 H192       -1.6541  -25.1759  -41.5017 H         1 UNK         0.0600 
    193 H193       -1.9253  -23.4906  -41.9155 H         1 UNK         0.0600 
    194 H194       -0.4832  -24.3204  -42.4964 H         1 UNK         0.0600 
    195 H195       -0.1650  -25.4915  -44.8303 H         1 UNK         0.3000 
    196 H196       -0.1424  -28.3218  -44.4564 H         1 UNK         0.0600 
    197 H197        1.3899  -26.5408  -46.4235 H         1 UNK         0.0600 
    198 H198        1.9179  -27.0063  -44.8084 H         1 UNK         0.0600 
    199 H199        1.7703  -28.2227  -46.0680 H         1 UNK         0.0600 
    200 H200       -1.0830  -26.2821  -47.2626 H         1 UNK         0.3000 
    201 H201       -1.6559  -28.5448  -48.9728 H         1 UNK         0.0600 
    202 H202       -2.2651  -25.5659  -49.3253 H         1 UNK         0.0600 
    203 H203       -2.2307  -26.7813  -50.5985 H         1 UNK         0.0600 
    204 H204       -0.7478  -26.3459  -49.7727 H         1 UNK         0.0600 
    205 H205       -3.4924  -27.1326  -46.5063 H         1 UNK         0.3000 
    206 H206       -5.5998  -27.1427  -45.8256 H         1 UNK         0.0600 
    207 H207       -5.5228  -29.6069  -46.2172 H         1 UNK         0.0600 
    208 H208       -7.1340  -28.9595  -46.4834 H         1 UNK         0.0600 
    209 H209       -6.1243  -29.3790  -47.8584 H         1 UNK         0.0600 
    210 H210       -5.0511  -25.0979  -47.1534 H         1 UNK         0.3000 
    211 H211       -5.7728  -23.2681  -48.0864 H         1 UNK         0.0600 
    212 H212       -8.1476  -22.8321  -48.4891 H         1 UNK         0.0600 
    213 H213       -7.9685  -23.7522  -47.0049 H         1 UNK         0.0600 
    214 H214       -8.5208  -24.5474  -48.4800 H         1 UNK         0.0600 
    215 H215       -5.4257  -26.0090  -49.9734 H         1 UNK         0.3000 
    216 H216       -6.3064  -25.0804  -52.5115 H         1 UNK         0.0600 
    217 H217       -4.1467  -27.1491  -51.8570 H         1 UNK         0.0600 
    218 H218       -4.9808  -26.9706  -53.3926 H         1 UNK         0.0600 
    219 H219       -5.8745  -27.4742  -51.9663 H         1 UNK         0.0600 
    220 H220       -3.5114  -24.1840  -50.6902 H         1 UNK         0.3000 
    221 H221       -1.8319  -23.3139  -52.8904 H         1 UNK         0.0600 
    222 H222       -0.8432  -24.0042  -50.7323 H         1 UNK         0.0600 
    223 H223       -1.7267  -22.7370  -49.8823 H         1 UNK         0.0600 
    224 H224       -0.4670  -22.3205  -51.0335 H         1 UNK         0.0600 
    225 H225       -4.7047  -21.9876  -51.6458 H         1 UNK         0.3000 
    226 H226       -4.1827  -19.2846  -51.3225 H         1 UNK         0.0600 
    227 H227       -6.7320  -20.6644  -52.2876 H         1 UNK         0.0600 
    228 H228       -6.2733  -20.3409  -50.6153 H         1 UNK         0.0600 
    229 H229       -6.6453  -19.0080  -51.6948 H         1 UNK         0.0600 
    230 H230       -4.6052  -21.0136  -54.3564 H         1 UNK         0.3000 
    231 H231       -4.8722  -18.6520  -56.0311 H         1 UNK         0.0600 
    232 H232       -4.2354  -21.5748  -56.7070 H         1 UNK         0.0600 
    233 H233       -4.6521  -20.3229  -57.8713 H         1 UNK         0.0600 
    234 H234       -5.8406  -20.8437  -56.6881 H         1 UNK         0.0600 
    235 H235       -2.1729  -20.2948  -54.5542 H         1 UNK         0.3000 
    236 H236       -0.2090  -19.3188  -56.5611 H         1 UNK         0.0600 
    237 H237       -0.0437  -21.6958  -55.8946 H         1 UNK         0.0600 
    238 H238        1.3634  -20.7993  -55.3460 H         1 UNK         0.0600 
    239 H239        0.1071  -21.2450  -54.1988 H         1 UNK         0.0600 
    240 H240       -0.8651  -19.2518  -53.0170 H         1 UNK         0.3000 
    241 H241       -0.2711  -17.9000  -51.3802 H         1 UNK         0.0600 
    242 H242        3.3566  -18.7569  -52.0225 H         1 UNK         0.3800 
    243 H243        1.8971  -19.5333  -52.5778 H         1 UNK         0.3800 
    244 H244       -1.3111  -16.1522  -53.1179 H         1 UNK         0.0800 
    245 H245        0.3050  -15.5404  -53.2015 H         1 UNK         0.0800 
    246 H246       -2.8833  -14.2782  -50.6071 H         1 UNK         0.0800 
    247 H247       -2.9699  -15.6329  -51.6974 H         1 UNK         0.0800 
@<TRIPOS>BOND
     1    1    2 1    
     2    1  127 1    
     3    1  128 1    
     4    1  129 1    
     5    2    3 2    
     6    2    4 am   BACKBONE|DICT|INTERRES
     7    4    5 1    
     8    4  130 1    
     9    5    6 1    
    10    5   65 1    
    11    5  131 1    
    12    6    7 1    
    13    6  132 1    
    14    6  133 1    
    15    7    8 1    
    16    8    9 1    
    17    8  134 1    
    18    8  135 1    
    19    9   10 ar   
    20    9   14 ar   
    21   10   11 ar   
    22   10  136 1    
    23   11   12 ar   
    24   11  126 1    
    25   12   13 ar   
    26   12  137 1    
    27   13   14 ar   
    28   13   15 1    
    29   14  138 1    
    30   15   16 1    
    31   15  139 1    
    32   15  140 1    
    33   16   17 1    
    34   17   18 1    
    35   17  141 1    
    36   17  142 1    
    37   18   19 1    
    38   18   67 1    
    39   18  143 1    
    40   19   20 am   BACKBONE|DICT|INTERRES
    41   19  144 1    
    42   20   21 2    
    43   20   22 1    
    44   22   23 1    
    45   22   24 1    
    46   22  145 1    
    47   23  146 1    
    48   23  147 1    
    49   23  148 1    
    50   24   25 am   BACKBONE|DICT|INTERRES
    51   24  149 1    
    52   25   26 2    
    53   25   27 1    
    54   27   28 1    
    55   27   29 1    
    56   27  150 1    
    57   28  151 1    
    58   28  152 1    
    59   28  153 1    
    60   29   30 am   BACKBONE|DICT|INTERRES
    61   29  154 1    
    62   30   31 2    
    63   30   32 1    
    64   32   33 1    
    65   32   34 1    
    66   32  155 1    
    67   33  156 1    
    68   33  157 1    
    69   33  158 1    
    70   34   35 am   BACKBONE|DICT|INTERRES
    71   34  159 1    
    72   35   36 2    
    73   35   37 1    
    74   37   38 1    
    75   37   39 1    
    76   37  160 1    
    77   38  161 1    
    78   38  162 1    
    79   38  163 1    
    80   39   40 am   BACKBONE|DICT|INTERRES
    81   39  164 1    
    82   40   41 2    
    83   40   42 1    
    84   42   43 1    
    85   42   44 1    
    86   42  165 1    
    87   43  166 1    
    88   43  167 1    
    89   43  168 1    
    90   44   45 am   BACKBONE|DICT|INTERRES
    91   44  169 1    
    92   45   46 2    
    93   45   47 1    
    94   47   48 1    
    95   47   49 1    
    96   47  170 1    
    97   48  171 1    
    98   48  172 1    
    99   48  173 1    
   100   49   50 am   BACKBONE|DICT|INTERRES
   101   49  174 1    
   102   50   51 2    
   103   50   52 1    
   104   52   53 1    
   105   52   54 1    
   106   52  175 1    
   107   53  176 1    
   108   53  177 1    
   109   53  178 1    
   110   54   55 am   BACKBONE|DICT|INTERRES
   111   54  179 1    
   112   55   56 2    
   113   55   57 1    
   114   57   58 1    
   115   57   59 1    
   116   57  180 1    
   117   58  181 1    
   118   58  182 1    
   119   58  183 1    
   120   59   60 am   BACKBONE|DICT|INTERRES
   121   59  184 1    
   122   60   61 2    
   123   60   62 1    
   124   62   63 1    
   125   62   64 1    
   126   62  185 1    
   127   63  186 1    
   128   63  187 1    
   129   63  188 1    
   130   64   65 am   BACKBONE|DICT|INTERRES
   131   64  189 1    
   132   65   66 2    
   133   67   68 2    
   134   67   69 am   BACKBONE|DICT|INTERRES
   135   69   70 1    
   136   69  190 1    
   137   70   71 1    
   138   70   72 1    
   139   70  191 1    
   140   71  192 1    
   141   71  193 1    
   142   71  194 1    
   143   72   73 2    
   144   72   74 am   BACKBONE|DICT|INTERRES
   145   74   75 1    
   146   74  195 1    
   147   75   76 1    
   148   75   77 1    
   149   75  196 1    
   150   76  197 1    
   151   76  198 1    
   152   76  199 1    
   153   77   78 2    
   154   77   79 am   BACKBONE|DICT|INTERRES
   155   79   80 1    
   156   79  200 1    
   157   80   81 1    
   158   80   82 1    
   159   80  201 1    
   160   81  202 1    
   161   81  203 1    
   162   81  204 1    
   163   82   83 2    
   164   82   84 am   BACKBONE|DICT|INTERRES
   165   84   85 1    
   166   84  205 1    
   167   85   86 1    
   168   85   87 1    
   169   85  206 1    
   170   86  207 1    
   171   86  208 1    
   172   86  209 1    
   173   87   88 2    
   174   87   89 am   BACKBONE|DICT|INTERRES
   175   89   90 1    
   176   89  210 1    
   177   90   91 1    
   178   90   92 1    
   179   90  211 1    
   180   91  212 1    
   181   91  213 1    
   182   91  214 1    
   183   92   93 2    
   184   92   94 am   BACKBONE|DICT|INTERRES
   185   94   95 1    
   186   94  215 1    
   187   95   96 1    
   188   95   97 1    
   189   95  216 1    
   190   96  217 1    
   191   96  218 1    
   192   96  219 1    
   193   97   98 2    
   194   97   99 am   BACKBONE|DICT|INTERRES
   195   99  100 1    
   196   99  220 1    
   197  100  101 1    
   198  100  102 1    
   199  100  221 1    
   200  101  222 1    
   201  101  223 1    
   202  101  224 1    
   203  102  103 2    
   204  102  104 am   BACKBONE|DICT|INTERRES
   205  104  105 1    
   206  104  225 1    
   207  105  106 1    
   208  105  107 1    
   209  105  226 1    
   210  106  227 1    
   211  106  228 1    
   212  106  229 1    
   213  107  108 2    
   214  107  109 am   BACKBONE|DICT|INTERRES
   215  109  110 1    
   216  109  230 1    
   217  110  111 1    
   218  110  112 1    
   219  110  231 1    
   220  111  232 1    
   221  111  233 1    
   222  111  234 1    
   223  112  113 2    
   224  112  114 am   BACKBONE|DICT|INTERRES
   225  114  115 1    
   226  114  235 1    
   227  115  116 1    
   228  115  117 1    
   229  115  236 1    
   230  116  237 1    
   231  116  238 1    
   232  116  239 1    
   233  117  118 2    
   234  117  119 am   BACKBONE|DICT|INTERRES
   235  119  120 1    
   236  119  240 1    
   237  120  121 1    
   238  120  124 1    
   239  120  241 1    
   240  121  122 am   BACKBONE|DICT|INTERRES
   241  121  123 2    
   242  122  242 1    
   243  122  243 1    
   244  124  125 1    
   245  124  244 1    
   246  124  245 1    
   247  125  126 1    
   248  126  246 1    
   249  126  247 1    
@<TRIPOS>SUBSTRUCTURE
     1 UNK         1 GROUP             0       ****    0 ROOT    
