@<TRIPOS>MOLECULE
3R540
247   249    1
SMALL
USER_CHARGES


@<TRIPOS>ATOM
      1 CA          3.5859   -9.1422  -50.0802 C.3       0 UNK        -0.1800 
      2 C           3.8801  -10.6276  -50.2348 C.2       0 UNK         0.5000 
      3 O           4.8789  -10.9930  -50.8547 O.2       0 UNK        -0.5000 
      4 N           3.0157  -11.4830  -49.6735 N.am      1 UNK        -0.5000 
      5 CA          3.1284  -12.9478  -49.7265 C.3       1 UNK         0.1400 
      6 C6          1.7891  -13.6433  -49.3803 C.3       23 UNK        -0.0398 
      7 S7          0.4779  -13.2601  -50.5920 S.3       23 UNK        -0.2404 
      8 C8          0.8000  -14.4903  -51.8988 C.3       23 UNK        -0.0205 
      9 C9          0.3355  -15.8842  -51.5050 C.ar      23 UNK        -0.0193 
     10 C10        -0.9878  -16.2737  -51.7320 C.ar      23 UNK        -0.1150 
     11 C11        -1.4240  -17.5518  -51.3696 C.ar      23 UNK        -0.0193 
     12 C12        -0.5263  -18.4410  -50.7762 C.ar      23 UNK        -0.1150 
     13 C13         0.7977  -18.0623  -50.5401 C.ar      23 UNK        -0.0193 
     14 C14         1.2276  -16.7899  -50.9237 C.ar      23 UNK        -0.1150 
     15 C15         1.7649  -19.0256  -49.8711 C.3       23 UNK        -0.0205 
     16 S16         2.1537  -18.5389  -48.1574 S.3       23 UNK        -0.2404 
     17 C17         0.5276  -18.6134  -47.3315 C.3       23 UNK        -0.0398 
     18 CA          0.1124  -20.0587  -46.9455 C.3       11 UNK         0.1400 
     19 N          -0.3218  -20.1607  -45.5511 N.am      11 UNK        -0.5000 
     20 C          -0.5291  -21.3153  -44.9036 C.2       10 UNK         0.5000 
     21 O          -0.3148  -22.4240  -45.3926 O.2       10 UNK        -0.5000 
     22 CA         -1.1205  -21.2102  -43.4892 C.3       10 UNK         0.1400 
     23 CB         -0.0051  -21.0297  -42.4530 C.3       10 UNK        -0.1800 
     24 N          -2.0824  -20.1114  -43.3832 N.am      10 UNK        -0.5000 
     25 C          -3.2973  -20.1337  -43.9513 C.2       9 UNK         0.5000 
     26 O          -3.7372  -21.0996  -44.5753 O.2       9 UNK        -0.5000 
     27 CA         -4.1441  -18.8506  -43.8490 C.3       9 UNK         0.1400 
     28 CB         -4.8871  -18.7990  -42.5059 C.3       9 UNK        -0.1800 
     29 N          -3.3581  -17.6268  -44.0136 N.am      9 UNK        -0.5000 
     30 C          -2.6789  -17.2931  -45.1204 C.2       8 UNK         0.5000 
     31 O          -2.6731  -17.9701  -46.1458 O.2       8 UNK        -0.5000 
     32 CA         -1.8197  -16.0162  -45.0648 C.3       8 UNK         0.1400 
     33 CB         -2.5838  -14.8268  -45.6638 C.3       8 UNK        -0.1800 
     34 N          -1.3550  -15.6663  -43.7194 N.am      8 UNK        -0.5000 
     35 C          -0.5734  -16.4370  -42.9507 C.2       7 UNK         0.5000 
     36 O          -0.1863  -17.5575  -43.2932 O.2       7 UNK        -0.5000 
     37 CA         -0.1754  -15.8263  -41.5922 C.3       7 UNK         0.1400 
     38 CB         -1.4023  -15.6243  -40.6781 C.3       7 UNK        -0.1800 
     39 N           0.8828  -16.5651  -40.8988 N.am      7 UNK        -0.5000 
     40 C           0.8295  -17.7914  -40.3539 C.2       6 UNK         0.5000 
     41 O          -0.1826  -18.4918  -40.3180 O.2       6 UNK        -0.5000 
     42 CA          2.1286  -18.3211  -39.7101 C.3       6 UNK         0.1400 
     43 CB          2.8520  -19.2898  -40.6576 C.3       6 UNK        -0.1800 
     44 N           3.0533  -17.2514  -39.3292 N.am      6 UNK        -0.5000 
     45 C           2.8632  -16.4204  -38.2946 C.2       5 UNK         0.5000 
     46 O           1.9308  -16.5299  -37.4973 O.2       5 UNK        -0.5000 
     47 CA          3.8672  -15.2628  -38.1204 C.3       5 UNK         0.1400 
     48 CB          4.8611  -15.5809  -36.9924 C.3       5 UNK        -0.1800 
     49 N           4.6222  -14.9145  -39.3285 N.am      5 UNK        -0.5000 
     50 C           4.1048  -14.4433  -40.4716 C.2       4 UNK         0.5000 
     51 O           2.8948  -14.3009  -40.6617 O.2       4 UNK        -0.5000 
     52 CA          5.1002  -14.0537  -41.5866 C.3       4 UNK         0.1400 
     53 CB          6.5267  -14.6146  -41.3848 C.3       4 UNK        -0.1800 
     54 N           4.6089  -14.3923  -42.9251 N.am      4 UNK        -0.5000 
     55 C           4.2915  -15.6094  -43.3932 C.2       3 UNK         0.5000 
     56 O           4.3260  -16.6369  -42.7149 O.2       3 UNK        -0.5000 
     57 CA          3.8792  -15.6968  -44.8787 C.3       3 UNK         0.1400 
     58 CB          2.3595  -15.8639  -45.0146 C.3       3 UNK        -0.1800 
     59 N           4.2992  -14.5383  -45.6738 N.am      3 UNK        -0.5000 
     60 C           5.5610  -14.2869  -46.0520 C.2       2 UNK         0.5000 
     61 O           6.5151  -15.0099  -45.7595 O.2       2 UNK        -0.5000 
     62 CA          5.7798  -13.0051  -46.8866 C.3       2 UNK         0.1400 
     63 CB          7.1398  -12.9848  -47.6157 C.3       2 UNK        -0.1800 
     64 N           4.6854  -12.7235  -47.8259 N.am      2 UNK        -0.5000 
     65 C           4.2689  -13.4980  -48.8420 C.2       1 UNK         0.5000 
     66 O           4.7436  -14.6037  -49.1034 O.2       1 UNK        -0.5000 
     67 C          -0.9568  -20.6298  -47.9007 C.2       11 UNK         0.5000 
     68 O          -0.6248  -21.4186  -48.7830 O.2       11 UNK        -0.5000 
     69 N          -2.2268  -20.2637  -47.6775 N.am      12 UNK        -0.5000 
     70 CA         -3.3900  -20.7768  -48.4005 C.3       12 UNK         0.1400 
     71 CB         -4.6504  -20.0290  -47.9433 C.3       12 UNK        -0.1800 
     72 C          -3.5663  -22.2961  -48.2338 C.2       12 UNK         0.5000 
     73 O          -3.8342  -22.9836  -49.2182 O.2       12 UNK        -0.5000 
     74 N          -3.3667  -22.8017  -47.0075 N.am      13 UNK        -0.5000 
     75 CA         -3.3568  -24.2324  -46.6995 C.3       13 UNK         0.1400 
     76 CB         -3.2476  -24.4458  -45.1826 C.3       13 UNK        -0.1800 
     77 C          -2.2443  -24.9859  -47.4525 C.2       13 UNK         0.5000 
     78 O          -2.5233  -26.0164  -48.0687 O.2       13 UNK        -0.5000 
     79 N          -1.0245  -24.4264  -47.4335 N.am      14 UNK        -0.5000 
     80 CA          0.1436  -24.9284  -48.1613 C.3       14 UNK         0.1400 
     81 CB          1.3917  -24.1327  -47.7508 C.3       14 UNK        -0.1800 
     82 C          -0.0379  -24.9148  -49.6915 C.2       14 UNK         0.5000 
     83 O           0.4357  -25.8326  -50.3626 O.2       14 UNK        -0.5000 
     84 N          -0.7735  -23.9242  -50.2152 N.am      15 UNK        -0.5000 
     85 CA         -1.2066  -23.8021  -51.6114 C.3       15 UNK         0.1400 
     86 CB         -1.5677  -22.3322  -51.8985 C.3       15 UNK        -0.1800 
     87 C          -2.3524  -24.7787  -51.9716 C.2       15 UNK         0.5000 
     88 O          -3.3464  -24.3738  -52.5790 O.2       15 UNK        -0.5000 
     89 N          -2.1805  -26.0515  -51.5845 N.am      16 UNK        -0.5000 
     90 CA         -3.0505  -27.2068  -51.8159 C.3       16 UNK         0.1400 
     91 CB         -2.9164  -27.6779  -53.2775 C.3       16 UNK        -0.1800 
     92 C          -4.5101  -26.9805  -51.3699 C.2       16 UNK         0.5000 
     93 O          -5.4387  -27.2977  -52.1151 O.2       16 UNK        -0.5000 
     94 N          -4.6733  -26.4302  -50.1563 N.am      17 UNK        -0.5000 
     95 CA         -5.9453  -26.0568  -49.5271 C.3       17 UNK         0.1400 
     96 CB         -6.7731  -27.3108  -49.1752 C.3       17 UNK        -0.1800 
     97 C          -6.7273  -25.0180  -50.3587 C.2       17 UNK         0.5000 
     98 O          -7.9037  -25.2209  -50.6656 O.2       17 UNK        -0.5000 
     99 N          -6.0329  -23.9253  -50.7026 N.am      18 UNK        -0.5000 
    100 CA        -6.4782  -22.7864  -51.5053 C.3       18 UNK         0.1400 
    101 CB        -7.5334  -21.9627  -50.7399 C.3       18 UNK        -0.1800 
    102 C         -6.9361  -23.2016  -52.9176 C.2       18 UNK         0.5000 
    103 O         -8.0737  -22.9311  -53.3118 O.2       18 UNK        -0.5000 
    104 N         -6.0448  -23.8828  -53.6501 N.am      19 UNK        -0.5000 
    105 CA        -6.2571  -24.3229  -55.0284 C.3       19 UNK         0.1400 
    106 CB        -5.2136  -25.3932  -55.3824 C.3       19 UNK        -0.1800 
    107 C         -6.2163  -23.1279  -55.9999 C.2       19 UNK         0.5000 
    108 O         -5.1558  -22.8062  -56.5406 O.2       19 UNK        -0.5000 
    109 N         -7.3710  -22.4661  -56.1575 N.am      20 UNK        -0.5000 
    110 CA        -7.6444  -21.2379  -56.9157 C.3       20 UNK         0.1400 
    111 CB        -7.2874  -21.3823  -58.4079 C.3       20 UNK        -0.1800 
    112 C         -6.9984  -19.9892  -56.2878 C.2       20 UNK         0.5000 
    113 O         -7.7046  -19.0257  -55.9831 O.2       20 UNK        -0.5000 
    114 N         -5.6806  -20.0407  -56.0599 N.am      21 UNK        -0.5000 
    115 CA        -4.9188  -19.0616  -55.2896 C.3       21 UNK         0.1400 
    116 CB        -3.4259  -19.4191  -55.3636 C.3       21 UNK        -0.1800 
    117 C         -5.4119  -19.0408  -53.8323 C.2       21 UNK         0.5000 
    118 O         -5.4871  -20.1007  -53.2099 O.2       21 UNK        -0.5000 
    119 N         -5.7616  -17.8476  -53.3355 N.am      22 UNK        -0.5000 
    120 CA        -6.4171  -17.6161  -52.0333 C.3       22 UNK         0.1400 
    121 C         -7.8899  -18.1333  -51.9575 C.2       22 UNK         0.5000 
    122 N         -8.5280  -18.5174  -53.0579 N.am      22 UNK        -0.7600 
    123 O         -8.4870  -18.1513  -50.8848 O.2       22 UNK        -0.5000 
    124 C124       -5.5615  -18.0729  -50.8129 C.3       23 UNK        -0.0398 
    125 S125       -4.0377  -17.0958  -50.5765 S.3       23 UNK        -0.2404 
    126 C126       -2.8563  -17.9811  -51.6376 C.3       23 UNK        -0.0205 
    127 H127        2.6716   -8.9665  -49.5129 H         1 UNK         0.0600 
    128 H128        3.4720   -8.6786  -51.0601 H         1 UNK         0.0600 
    129 H129        4.4081   -8.6489  -49.5618 H         1 UNK         0.0600 
    130 H130        2.1984  -11.1227  -49.2013 H         1 UNK         0.3000 
    131 H131        3.3887  -13.2191  -50.7517 H         1 UNK         0.0600 
    132 H132        1.9091  -14.7239  -49.3120 H         1 UNK         0.0800 
    133 H133        1.4422  -13.3269  -48.3953 H         1 UNK         0.0800 
    134 H134        0.2801  -14.1780  -52.8057 H         1 UNK         0.0800 
    135 H135        1.8614  -14.4982  -52.1504 H         1 UNK         0.0800 
    136 H136       -1.6821  -15.5806  -52.1862 H         1 UNK         0.1150 
    137 H137       -0.8607  -19.4300  -50.5009 H         1 UNK         0.1150 
    138 H138        2.2556  -16.5027  -50.7522 H         1 UNK         0.1150 
    139 H139        1.3742  -20.0436  -49.8833 H         1 UNK         0.0800 
    140 H140        2.6924  -19.0542  -50.4446 H         1 UNK         0.0800 
    141 H141       -0.2265  -18.1006  -47.9315 H         1 UNK         0.0800 
    142 H142        0.6264  -18.0022  -46.4339 H         1 UNK         0.0800 
    143 H143        0.9865  -20.7081  -47.0319 H         1 UNK         0.0600 
    144 H144       -0.5270  -19.2980  -45.0659 H         1 UNK         0.3000 
    145 H145       -1.6379  -22.1465  -43.2699 H         1 UNK         0.0600 
    146 H146       -0.4073  -21.0114  -41.4402 H         1 UNK         0.0600 
    147 H147        0.7128  -21.8492  -42.5035 H         1 UNK         0.0600 
    148 H148        0.5435  -20.1014  -42.6150 H         1 UNK         0.0600 
    149 H149       -1.7598  -19.2677  -42.9266 H         1 UNK         0.3000 
    150 H150       -4.8862  -18.8799  -44.6495 H         1 UNK         0.0600 
    151 H151       -5.4953  -19.6930  -42.3619 H         1 UNK         0.0600 
    152 H152       -5.5573  -17.9405  -42.4584 H         1 UNK         0.0600 
    153 H153       -4.1957  -18.7329  -41.6647 H         1 UNK         0.0600 
    154 H154       -3.2997  -17.0126  -43.2153 H         1 UNK         0.3000 
    155 H155       -0.9362  -16.1944  -45.6807 H         1 UNK         0.0600 
    156 H156       -3.4653  -14.5756  -45.0727 H         1 UNK         0.0600 
    157 H157       -1.9522  -13.9402  -45.7217 H         1 UNK         0.0600 
    158 H158       -2.9204  -15.0500  -46.6774 H         1 UNK         0.0600 
    159 H159       -1.6344  -14.7589  -43.3755 H         1 UNK         0.3000 
    160 H160        0.2509  -14.8443  -41.8030 H         1 UNK         0.0600 
    161 H161       -1.9489  -16.5536  -40.5151 H         1 UNK         0.0600 
    162 H162       -2.1034  -14.9089  -41.1087 H         1 UNK         0.0600 
    163 H163       -1.1065  -15.2352  -39.7037 H         1 UNK         0.0600 
    164 H164        1.7679  -16.0736  -40.8504 H         1 UNK         0.3000 
    165 H165        1.8518  -18.8723  -38.8089 H         1 UNK         0.0600 
    166 H166        3.7889  -19.6423  -40.2262 H         1 UNK         0.0600 
    167 H167        2.2388  -20.1689  -40.8542 H         1 UNK         0.0600 
    168 H168        3.0768  -18.8229  -41.6173 H         1 UNK         0.0600 
    169 H169        3.8367  -17.0865  -39.9456 H         1 UNK         0.3000 
    170 H170        3.2911  -14.3823  -37.8285 H         1 UNK         0.0600 
    171 H171        5.4880  -16.4386  -37.2396 H         1 UNK         0.0600 
    172 H172        5.5152  -14.7324  -36.7905 H         1 UNK         0.0600 
    173 H173        4.3387  -15.8133  -36.0633 H         1 UNK         0.0600 
    174 H174        5.6254  -15.0118  -39.2670 H         1 UNK         0.3000 
    175 H175        5.1685  -12.9655  -41.5568 H         1 UNK         0.0600 
    176 H176        7.1757  -14.3331  -42.2144 H         1 UNK         0.0600 
    177 H177        6.5322  -15.7034  -41.3191 H         1 UNK         0.0600 
    178 H178        6.9869  -14.2208  -40.4780 H         1 UNK         0.0600 
    179 H179        4.5024  -13.6135  -43.5579 H         1 UNK         0.3000 
    180 H180        4.3544  -16.5866  -45.2973 H         1 UNK         0.0600 
    181 H181        2.0607  -15.9384  -46.0604 H         1 UNK         0.0600 
    182 H182        1.8174  -15.0307  -44.5661 H         1 UNK         0.0600 
    183 H183        2.0331  -16.7789  -44.5202 H         1 UNK         0.0600 
    184 H184        3.5749  -13.8971  -45.9612 H         1 UNK         0.3000 
    185 H185        5.7842  -12.1819  -46.1709 H         1 UNK         0.0600 
    186 H186        7.9659  -13.0472  -46.9064 H         1 UNK         0.0600 
    187 H187        7.2407  -13.8203  -48.3091 H         1 UNK         0.0600 
    188 H188        7.2693  -12.0624  -48.1820 H         1 UNK         0.0600 
    189 H189        4.2253  -11.8320  -47.7060 H         1 UNK         0.3000 
    190 H190       -2.4132  -19.5521  -46.9733 H         1 UNK         0.3000 
    191 H191       -3.2373  -20.5701  -49.4612 H         1 UNK         0.0600 
    192 H192       -4.5405  -18.9532  -48.0787 H         1 UNK         0.0600 
    193 H193       -5.5214  -20.3443  -48.5178 H         1 UNK         0.0600 
    194 H194       -4.8684  -20.2094  -46.8908 H         1 UNK         0.0600 
    195 H195       -3.2094  -22.1648  -46.2336 H         1 UNK         0.3000 
    196 H196       -4.3145  -24.6422  -47.0206 H         1 UNK         0.0600 
    197 H197       -3.2899  -25.5073  -44.9357 H         1 UNK         0.0600 
    198 H198       -4.0671  -23.9565  -44.6559 H         1 UNK         0.0600 
    199 H199       -2.3131  -24.0548  -44.7823 H         1 UNK         0.0600 
    200 H200       -0.8800  -23.5914  -46.8731 H         1 UNK         0.3000 
    201 H201        0.2927  -25.9672  -47.8603 H         1 UNK         0.0600 
    202 H202        1.5653  -24.1982  -46.6766 H         1 UNK         0.0600 
    203 H203        1.3032  -23.0781  -48.0108 H         1 UNK         0.0600 
    204 H204        2.2819  -24.5191  -48.2485 H         1 UNK         0.0600 
    205 H205       -1.0755  -23.1821  -49.5919 H         1 UNK         0.3000 
    206 H206       -0.3616  -24.0616  -52.2520 H         1 UNK         0.0600 
    207 H207       -0.7329  -21.6695  -51.6705 H         1 UNK         0.0600 
    208 H208       -1.8188  -22.1864  -52.9498 H         1 UNK         0.0600 
    209 H209       -2.4248  -22.0060  -51.3100 H         1 UNK         0.0600 
    210 H210       -1.3176  -26.2509  -51.0879 H         1 UNK         0.3000 
    211 H211       -2.6698  -28.0077  -51.1806 H         1 UNK         0.0600 
    212 H212       -3.2069  -26.8984  -53.9794 H         1 UNK         0.0600 
    213 H213       -3.5385  -28.5519  -53.4735 H         1 UNK         0.0600 
    214 H214       -1.8877  -27.9580  -53.5037 H         1 UNK         0.0600 
    215 H215       -3.8403  -26.2109  -49.6181 H         1 UNK         0.3000 
    216 H216       -5.6928  -25.5641  -48.5892 H         1 UNK         0.0600 
    217 H217       -7.6660  -27.0411  -48.6103 H         1 UNK         0.0600 
    218 H218       -6.1972  -28.0024  -48.5603 H         1 UNK         0.0600 
    219 H219       -7.1010  -27.8471  -50.0661 H         1 UNK         0.0600 
    220 H220       -5.0774  -23.8457  -50.3628 H         1 UNK         0.3000 
    221 H221       -5.5978  -22.1562  -51.6342 H         1 UNK         0.0600 
    222 H222       -8.4532  -22.5259  -50.5808 H         1 UNK         0.0600 
    223 H223       -7.1591  -21.6485  -49.7663 H         1 UNK         0.0600 
    224 H224       -7.7939  -21.0614  -51.2949 H         1 UNK         0.0600 
    225 H225       -5.1243  -24.0630  -53.2551 H         1 UNK         0.3000 
    226 H226       -7.2422  -24.7888  -55.1002 H         1 UNK         0.0600 
    227 H227       -5.3396  -26.2767  -54.7571 H         1 UNK         0.0600 
    228 H228       -5.3159  -25.7129  -56.4200 H         1 UNK         0.0600 
    229 H229       -4.1957  -25.0249  -55.2485 H         1 UNK         0.0600 
    230 H230       -8.1349  -22.7656  -55.5631 H         1 UNK         0.3000 
    231 H231       -8.7243  -21.0936  -56.8560 H         1 UNK         0.0600 
    232 H232       -6.2153  -21.4971  -58.5681 H         1 UNK         0.0600 
    233 H233       -7.6043  -20.5011  -58.9669 H         1 UNK         0.0600 
    234 H234       -7.7866  -22.2444  -58.8501 H         1 UNK         0.0600 
    235 H235       -5.2101  -20.9128  -56.2845 H         1 UNK         0.3000 
    236 H236       -5.0675  -18.0794  -55.7426 H         1 UNK         0.0600 
    237 H237       -3.0820  -19.4629  -56.3972 H         1 UNK         0.0600 
    238 H238       -2.8171  -18.6732  -54.8528 H         1 UNK         0.0600 
    239 H239       -3.2201  -20.3862  -54.9019 H         1 UNK         0.0600 
    240 H240       -5.6794  -17.0319  -53.9253 H         1 UNK         0.3000 
    241 H241       -6.5211  -16.5332  -51.9581 H         1 UNK         0.0600 
    242 H242       -8.0748  -18.5169  -53.9634 H         1 UNK         0.3800 
    243 H243       -9.4822  -18.8316  -52.9839 H         1 UNK         0.3800 
    244 H244       -6.1291  -17.9524  -49.8891 H         1 UNK         0.0800 
    245 H245       -5.3206  -19.1346  -50.8637 H         1 UNK         0.0800 
    246 H246       -3.0861  -17.7691  -52.6799 H         1 UNK         0.0800 
    247 H247       -2.9701  -19.0579  -51.5020 H         1 UNK         0.0800 
@<TRIPOS>BOND
     1    1    2 1    
     2    1  127 1    
     3    1  128 1    
     4    1  129 1    
     5    2    3 2    
     6    2    4 am   BACKBONE|DICT|INTERRES
     7    4    5 1    
     8    4  130 1    
     9    5    6 1    
    10    5   65 1    
    11    5  131 1    
    12    6    7 1    
    13    6  132 1    
    14    6  133 1    
    15    7    8 1    
    16    8    9 1    
    17    8  134 1    
    18    8  135 1    
    19    9   10 ar   
    20    9   14 ar   
    21   10   11 ar   
    22   10  136 1    
    23   11   12 ar   
    24   11  126 1    
    25   12   13 ar   
    26   12  137 1    
    27   13   14 ar   
    28   13   15 1    
    29   14  138 1    
    30   15   16 1    
    31   15  139 1    
    32   15  140 1    
    33   16   17 1    
    34   17   18 1    
    35   17  141 1    
    36   17  142 1    
    37   18   19 1    
    38   18   67 1    
    39   18  143 1    
    40   19   20 am   BACKBONE|DICT|INTERRES
    41   19  144 1    
    42   20   21 2    
    43   20   22 1    
    44   22   23 1    
    45   22   24 1    
    46   22  145 1    
    47   23  146 1    
    48   23  147 1    
    49   23  148 1    
    50   24   25 am   BACKBONE|DICT|INTERRES
    51   24  149 1    
    52   25   26 2    
    53   25   27 1    
    54   27   28 1    
    55   27   29 1    
    56   27  150 1    
    57   28  151 1    
    58   28  152 1    
    59   28  153 1    
    60   29   30 am   BACKBONE|DICT|INTERRES
    61   29  154 1    
    62   30   31 2    
    63   30   32 1    
    64   32   33 1    
    65   32   34 1    
    66   32  155 1    
    67   33  156 1    
    68   33  157 1    
    69   33  158 1    
    70   34   35 am   BACKBONE|DICT|INTERRES
    71   34  159 1    
    72   35   36 2    
    73   35   37 1    
    74   37   38 1    
    75   37   39 1    
    76   37  160 1    
    77   38  161 1    
    78   38  162 1    
    79   38  163 1    
    80   39   40 am   BACKBONE|DICT|INTERRES
    81   39  164 1    
    82   40   41 2    
    83   40   42 1    
    84   42   43 1    
    85   42   44 1    
    86   42  165 1    
    87   43  166 1    
    88   43  167 1    
    89   43  168 1    
    90   44   45 am   BACKBONE|DICT|INTERRES
    91   44  169 1    
    92   45   46 2    
    93   45   47 1    
    94   47   48 1    
    95   47   49 1    
    96   47  170 1    
    97   48  171 1    
    98   48  172 1    
    99   48  173 1    
   100   49   50 am   BACKBONE|DICT|INTERRES
   101   49  174 1    
   102   50   51 2    
   103   50   52 1    
   104   52   53 1    
   105   52   54 1    
   106   52  175 1    
   107   53  176 1    
   108   53  177 1    
   109   53  178 1    
   110   54   55 am   BACKBONE|DICT|INTERRES
   111   54  179 1    
   112   55   56 2    
   113   55   57 1    
   114   57   58 1    
   115   57   59 1    
   116   57  180 1    
   117   58  181 1    
   118   58  182 1    
   119   58  183 1    
   120   59   60 am   BACKBONE|DICT|INTERRES
   121   59  184 1    
   122   60   61 2    
   123   60   62 1    
   124   62   63 1    
   125   62   64 1    
   126   62  185 1    
   127   63  186 1    
   128   63  187 1    
   129   63  188 1    
   130   64   65 am   BACKBONE|DICT|INTERRES
   131   64  189 1    
   132   65   66 2    
   133   67   68 2    
   134   67   69 am   BACKBONE|DICT|INTERRES
   135   69   70 1    
   136   69  190 1    
   137   70   71 1    
   138   70   72 1    
   139   70  191 1    
   140   71  192 1    
   141   71  193 1    
   142   71  194 1    
   143   72   73 2    
   144   72   74 am   BACKBONE|DICT|INTERRES
   145   74   75 1    
   146   74  195 1    
   147   75   76 1    
   148   75   77 1    
   149   75  196 1    
   150   76  197 1    
   151   76  198 1    
   152   76  199 1    
   153   77   78 2    
   154   77   79 am   BACKBONE|DICT|INTERRES
   155   79   80 1    
   156   79  200 1    
   157   80   81 1    
   158   80   82 1    
   159   80  201 1    
   160   81  202 1    
   161   81  203 1    
   162   81  204 1    
   163   82   83 2    
   164   82   84 am   BACKBONE|DICT|INTERRES
   165   84   85 1    
   166   84  205 1    
   167   85   86 1    
   168   85   87 1    
   169   85  206 1    
   170   86  207 1    
   171   86  208 1    
   172   86  209 1    
   173   87   88 2    
   174   87   89 am   BACKBONE|DICT|INTERRES
   175   89   90 1    
   176   89  210 1    
   177   90   91 1    
   178   90   92 1    
   179   90  211 1    
   180   91  212 1    
   181   91  213 1    
   182   91  214 1    
   183   92   93 2    
   184   92   94 am   BACKBONE|DICT|INTERRES
   185   94   95 1    
   186   94  215 1    
   187   95   96 1    
   188   95   97 1    
   189   95  216 1    
   190   96  217 1    
   191   96  218 1    
   192   96  219 1    
   193   97   98 2    
   194   97   99 am   BACKBONE|DICT|INTERRES
   195   99  100 1    
   196   99  220 1    
   197  100  101 1    
   198  100  102 1    
   199  100  221 1    
   200  101  222 1    
   201  101  223 1    
   202  101  224 1    
   203  102  103 2    
   204  102  104 am   BACKBONE|DICT|INTERRES
   205  104  105 1    
   206  104  225 1    
   207  105  106 1    
   208  105  107 1    
   209  105  226 1    
   210  106  227 1    
   211  106  228 1    
   212  106  229 1    
   213  107  108 2    
   214  107  109 am   BACKBONE|DICT|INTERRES
   215  109  110 1    
   216  109  230 1    
   217  110  111 1    
   218  110  112 1    
   219  110  231 1    
   220  111  232 1    
   221  111  233 1    
   222  111  234 1    
   223  112  113 2    
   224  112  114 am   BACKBONE|DICT|INTERRES
   225  114  115 1    
   226  114  235 1    
   227  115  116 1    
   228  115  117 1    
   229  115  236 1    
   230  116  237 1    
   231  116  238 1    
   232  116  239 1    
   233  117  118 2    
   234  117  119 am   BACKBONE|DICT|INTERRES
   235  119  120 1    
   236  119  240 1    
   237  120  121 1    
   238  120  124 1    
   239  120  241 1    
   240  121  122 am   BACKBONE|DICT|INTERRES
   241  121  123 2    
   242  122  242 1    
   243  122  243 1    
   244  124  125 1    
   245  124  244 1    
   246  124  245 1    
   247  125  126 1    
   248  126  246 1    
   249  126  247 1    
@<TRIPOS>SUBSTRUCTURE
     1 UNK         1 GROUP             0       ****    0 ROOT    
