@<TRIPOS>MOLECULE
3R540
247   249    1
SMALL
USER_CHARGES


@<TRIPOS>ATOM
      1 CA         -3.5507  -12.0635  -49.5185 C.3       0 UNK        -0.1800 
      2 C          -4.3010  -13.3722  -49.2760 C.2       0 UNK         0.5000 
      3 O          -5.4996  -13.4349  -49.5400 O.2       0 UNK        -0.5000 
      4 N          -3.6491  -14.4372  -48.7892 N.am      1 UNK        -0.5000 
      5 CA         -2.2592  -14.4759  -48.3190 C.3       1 UNK         0.1400 
      6 C6         -1.6868  -15.9151  -48.2952 C.3       23 UNK        -0.0398 
      7 S7         -1.7045  -16.6941  -49.9440 S.3       23 UNK        -0.2404 
      8 C8         -0.1885  -16.0091  -50.6900 C.3       23 UNK        -0.0205 
      9 C9          0.8177  -17.1052  -50.9988 C.ar      23 UNK        -0.0193 
     10 C10         0.9004  -17.6416  -52.2862 C.ar      23 UNK        -0.1150 
     11 C11         1.7954  -18.6766  -52.5701 C.ar      23 UNK        -0.0193 
     12 C12         2.6160  -19.1751  -51.5528 C.ar      23 UNK        -0.1150 
     13 C13         2.5488  -18.6402  -50.2622 C.ar      23 UNK        -0.0193 
     14 C14         1.6592  -17.5934  -49.9962 C.ar      23 UNK        -0.1150 
     15 C15         3.4044  -19.2172  -49.1408 C.3       23 UNK        -0.0205 
     16 S16         2.6958  -20.7520  -48.4520 S.3       23 UNK        -0.2404 
     17 C17         1.0238  -20.1833  -48.0091 C.3       23 UNK        -0.0398 
     18 CA          0.1271  -21.2891  -47.4145 C.3       11 UNK         0.1400 
     19 N           0.4584  -21.6304  -46.0282 N.am      11 UNK        -0.5000 
     20 C          -0.1385  -22.6053  -45.3245 C.2       10 UNK         0.5000 
     21 O          -0.9801  -23.3724  -45.7912 O.2       10 UNK        -0.5000 
     22 CA          0.2048  -22.6997  -43.8288 C.3       10 UNK         0.1400 
     23 CB          1.5586  -23.3920  -43.6137 C.3       10 UNK        -0.1800 
     24 N           0.1936  -21.3899  -43.1766 N.am      10 UNK        -0.5000 
     25 C          -0.8908  -20.6073  -43.0705 C.2       9 UNK         0.5000 
     26 O          -2.0141  -20.9414  -43.4505 O.2       9 UNK        -0.5000 
     27 CA         -0.6779  -19.1962  -42.4917 C.3       9 UNK         0.1400 
     28 CB         -0.6463  -19.2207  -40.9570 C.3       9 UNK        -0.1800 
     29 N           0.5395  -18.5599  -42.9940 N.am      9 UNK        -0.5000 
     30 C           0.7430  -18.2118  -44.2722 C.2       8 UNK         0.5000 
     31 O          -0.1045  -18.3241  -45.1562 O.2       8 UNK        -0.5000 
     32 CA          2.1444  -17.6930  -44.6335 C.3       8 UNK         0.1400 
     33 CB          2.2765  -16.1967  -44.3218 C.3       8 UNK        -0.1800 
     34 N           3.2005  -18.4369  -43.9484 N.am      8 UNK        -0.5000 
     35 C           3.5035  -19.7164  -44.2077 C.2       7 UNK         0.5000 
     36 O           2.9276  -20.3945  -45.0569 O.2       7 UNK        -0.5000 
     37 CA          4.6031  -20.3546  -43.3410 C.3       7 UNK         0.1400 
     38 CB          5.9962  -19.9661  -43.8583 C.3       7 UNK        -0.1800 
     39 N           4.4858  -19.9863  -41.9294 N.am      7 UNK        -0.5000 
     40 C           3.4726  -20.3588  -41.1347 C.2       6 UNK         0.5000 
     41 O           2.5415  -21.0733  -41.5023 O.2       6 UNK        -0.5000 
     42 CA          3.4734  -19.7964  -39.7022 C.3       6 UNK         0.1400 
     43 CB          4.3433  -20.6640  -38.7804 C.3       6 UNK        -0.1800 
     44 N           3.9165  -18.4015  -39.6219 N.am      6 UNK        -0.5000 
     45 C           3.3079  -17.3758  -40.2299 C.2       5 UNK         0.5000 
     46 O           2.3404  -17.4995  -40.9879 O.2       5 UNK        -0.5000 
     47 CA          3.8978  -15.9772  -39.9813 C.3       5 UNK         0.1400 
     48 CB          4.9546  -15.6494  -41.0472 C.3       5 UNK        -0.1800 
     49 N           2.8373  -14.9750  -40.0409 N.am      5 UNK        -0.5000 
     50 C           1.9014  -14.8071  -39.0954 C.2       4 UNK         0.5000 
     51 O           1.9472  -15.3193  -37.9765 O.2       4 UNK        -0.5000 
     52 CA          0.6718  -13.9979  -39.5182 C.3       4 UNK         0.1400 
     53 CB          1.0219  -12.5067  -39.6986 C.3       4 UNK        -0.1800 
     54 N           0.1639  -14.5903  -40.7537 N.am      4 UNK        -0.5000 
     55 C          -0.9760  -14.2826  -41.3756 C.2       3 UNK         0.5000 
     56 O          -1.7866  -13.4465  -40.9705 O.2       3 UNK        -0.5000 
     57 CA         -1.2493  -15.0397  -42.6886 C.3       3 UNK         0.1400 
     58 CB         -2.5375  -15.8706  -42.5890 C.3       3 UNK        -0.1800 
     59 N          -1.3540  -14.1286  -43.8264 N.am      3 UNK        -0.5000 
     60 C          -0.4001  -13.2925  -44.2544 C.2       2 UNK         0.5000 
     61 O           0.7333  -13.2460  -43.7731 O.2       2 UNK        -0.5000 
     62 CA         -0.7798  -12.3780  -45.4380 C.3       2 UNK         0.1400 
     63 CB          0.2990  -11.3214  -45.7382 C.3       2 UNK        -0.1800 
     64 N          -1.0455  -13.1330  -46.6650 N.am      2 UNK        -0.5000 
     65 C          -2.1612  -13.8257  -46.9244 C.2       1 UNK         0.5000 
     66 O          -3.0870  -13.9550  -46.1191 O.2       1 UNK        -0.5000 
     67 C          -1.3480  -20.8780  -47.5677 C.2       11 UNK         0.5000 
     68 O          -2.0168  -21.4037  -48.4535 O.2       11 UNK        -0.5000 
     69 N          -1.8368  -19.9741  -46.7049 N.am      12 UNK        -0.5000 
     70 CA         -3.2187  -19.4882  -46.7125 C.3       12 UNK         0.1400 
     71 CB         -3.4221  -18.4564  -45.5925 C.3       12 UNK        -0.1800 
     72 C          -4.2533  -20.6216  -46.5999 C.2       12 UNK         0.5000 
     73 O          -5.2413  -20.6089  -47.3340 O.2       12 UNK        -0.5000 
     74 N          -3.9743  -21.5982  -45.7270 N.am      13 UNK        -0.5000 
     75 CA         -4.7607  -22.8172  -45.5714 C.3       13 UNK         0.1400 
     76 CB         -4.3464  -23.5270  -44.2725 C.3       13 UNK        -0.1800 
     77 C          -4.6399  -23.7605  -46.7840 C.2       13 UNK         0.5000 
     78 O          -5.6615  -24.1427  -47.3553 O.2       13 UNK        -0.5000 
     79 N          -3.4033  -24.1282  -47.1489 N.am      14 UNK        -0.5000 
     80 CA         -3.1053  -25.1392  -48.1675 C.3       14 UNK         0.1400 
     81 CB         -1.6217  -25.5291  -48.0826 C.3       14 UNK        -0.1800 
     82 C          -3.4611  -24.7104  -49.6013 C.2       14 UNK         0.5000 
     83 O          -3.9813  -25.5231  -50.3665 O.2       14 UNK        -0.5000 
     84 N          -3.1745  -23.4487  -49.9393 N.am      15 UNK        -0.5000 
     85 CA         -3.4152  -22.8613  -51.2565 C.3       15 UNK         0.1400 
     86 CB         -2.3000  -21.8410  -51.5482 C.3       15 UNK        -0.1800 
     87 C          -4.8028  -22.2017  -51.3569 C.2       15 UNK         0.5000 
     88 O          -5.1413  -21.6938  -52.4247 O.2       15 UNK        -0.5000 
     89 N          -5.5709  -22.1850  -50.2551 N.am      16 UNK        -0.5000 
     90 CA         -6.8996  -21.5761  -50.1154 C.3       16 UNK         0.1400 
     91 CB         -7.9436  -22.3808  -50.9176 C.3       16 UNK        -0.1800 
     92 C          -6.8796  -20.0772  -50.4813 C.2       16 UNK         0.5000 
     93 O          -7.6212  -19.6387  -51.3608 O.2       16 UNK        -0.5000 
     94 N          -5.9634  -19.3390  -49.8383 N.am      17 UNK        -0.5000 
     95 CA         -5.6243  -17.9327  -50.0942 C.3       17 UNK         0.1400 
     96 CB         -6.7830  -17.0098  -49.6659 C.3       17 UNK        -0.1800 
     97 C          -5.1465  -17.6804  -51.5442 C.2       17 UNK         0.5000 
     98 O          -5.4872  -16.6603  -52.1445 O.2       17 UNK        -0.5000 
     99 N          -4.3695  -18.6378  -52.0718 N.am      18 UNK        -0.5000 
    100 CA        -3.7905  -18.6897  -53.4193 C.3       18 UNK         0.1400 
    101 CB        -2.8148  -17.5186  -53.6548 C.3       18 UNK        -0.1800 
    102 C         -4.8288  -18.8484  -54.5513 C.2       18 UNK         0.5000 
    103 O         -4.5338  -18.5118  -55.6998 O.2       18 UNK        -0.5000 
    104 N         -6.0142  -19.3865  -54.2300 N.am      19 UNK        -0.5000 
    105 CA        -7.0190  -19.8031  -55.2114 C.3       19 UNK         0.1400 
    106 CB        -8.3870  -19.9169  -54.5236 C.3       19 UNK        -0.1800 
    107 C         -6.6464  -21.1369  -55.8896 C.2       19 UNK         0.5000 
    108 O         -7.0571  -21.3768  -57.0260 O.2       19 UNK        -0.5000 
    109 N         -5.8744  -21.9689  -55.1840 N.am      20 UNK        -0.5000 
    110 CA        -5.3035  -23.2302  -55.6393 C.3       20 UNK         0.1400 
    111 CB        -5.9723  -24.3704  -54.8500 C.3       20 UNK        -0.1800 
    112 C         -3.7814  -23.2080  -55.4067 C.2       20 UNK         0.5000 
    113 O         -3.2529  -22.2310  -54.8721 O.2       20 UNK        -0.5000 
    114 N         -3.1076  -24.2982  -55.8005 N.am      21 UNK        -0.5000 
    115 CA        -1.6686  -24.5450  -55.6418 C.3       21 UNK         0.1400 
    116 CB        -1.3234  -24.7415  -54.1468 C.3       21 UNK        -0.1800 
    117 C         -0.7935  -23.4824  -56.3486 C.2       21 UNK         0.5000 
    118 O         -1.1963  -22.9635  -57.3929 O.2       21 UNK        -0.5000 
    119 N          0.3931  -23.2047  -55.7893 N.am      22 UNK        -0.5000 
    120 CA         1.3626  -22.1900  -56.2479 C.3       22 UNK         0.1400 
    121 C          1.9987  -22.4663  -57.6473 C.2       22 UNK         0.5000 
    122 N          1.9545  -23.6886  -58.1634 N.am      22 UNK        -0.7600 
    123 O          2.5753  -21.5739  -58.2637 O.2       22 UNK        -0.5000 
    124 C124        0.8228  -20.7375  -56.1037 C.3       23 UNK        -0.0398 
    125 S125        0.4464  -20.2992  -54.3697 S.3       23 UNK        -0.2404 
    126 C126        1.8762  -19.2411  -53.9799 C.3       23 UNK        -0.0205 
    127 H127       -3.1726  -11.6481  -48.5848 H         1 UNK         0.0600 
    128 H128       -4.2137  -11.3219  -49.9646 H         1 UNK         0.0600 
    129 H129       -2.7171  -12.2131  -50.2044 H         1 UNK         0.0600 
    130 H130       -4.1768  -15.2786  -48.6183 H         1 UNK         0.3000 
    131 H131       -1.6443  -13.8934  -49.0069 H         1 UNK         0.0600 
    132 H132       -0.6663  -15.9318  -47.9075 H         1 UNK         0.0800 
    133 H133       -2.2727  -16.5446  -47.6264 H         1 UNK         0.0800 
    134 H134       -0.4604  -15.4791  -51.6041 H         1 UNK         0.0800 
    135 H135        0.2681  -15.2648  -50.0367 H         1 UNK         0.0800 
    136 H136        0.2600  -17.2633  -53.0702 H         1 UNK         0.1150 
    137 H137        3.2991  -19.9869  -51.7598 H         1 UNK         0.1150 
    138 H138        1.5926  -17.1838  -48.9981 H         1 UNK         0.1150 
    139 H139        4.4078  -19.4254  -49.5146 H         1 UNK         0.0800 
    140 H140        3.5234  -18.4884  -48.3374 H         1 UNK         0.0800 
    141 H141        0.5685  -19.8088  -48.9273 H         1 UNK         0.0800 
    142 H142        1.0999  -19.3321  -47.3323 H         1 UNK         0.0800 
    143 H143        0.2635  -22.1946  -48.0100 H         1 UNK         0.0600 
    144 H144        1.1897  -21.0792  -45.5876 H         1 UNK         0.3000 
    145 H145       -0.5639  -23.3117  -43.3523 H         1 UNK         0.0600 
    146 H146        1.7607  -23.5394  -42.5528 H         1 UNK         0.0600 
    147 H147        1.5731  -24.3747  -44.0866 H         1 UNK         0.0600 
    148 H148        2.3815  -22.8140  -44.0335 H         1 UNK         0.0600 
    149 H149        1.0736  -21.0725  -42.7814 H         1 UNK         0.3000 
    150 H150       -1.5269  -18.5868  -42.8041 H         1 UNK         0.0600 
    151 H151       -1.5600  -19.6598  -40.5548 H         1 UNK         0.0600 
    152 H152       -0.5605  -18.2133  -40.5488 H         1 UNK         0.0600 
    153 H153        0.1936  -19.8053  -40.5813 H         1 UNK         0.0600 
    154 H154        1.2805  -18.3929  -42.3188 H         1 UNK         0.3000 
    155 H155        2.2813  -17.8252  -45.7088 H         1 UNK         0.0600 
    156 H156        2.1341  -15.9847  -43.2621 H         1 UNK         0.0600 
    157 H157        3.2564  -15.8170  -44.6111 H         1 UNK         0.0600 
    158 H158        1.5324  -15.6239  -44.8757 H         1 UNK         0.0600 
    159 H159        3.6793  -17.9657  -43.1961 H         1 UNK         0.3000 
    160 H160        4.5010  -21.4391  -43.4188 H         1 UNK         0.0600 
    161 H161        6.1731  -18.8928  -43.7789 H         1 UNK         0.0600 
    162 H162        6.1126  -20.2415  -44.9075 H         1 UNK         0.0600 
    163 H163        6.7804  -20.4780  -43.3003 H         1 UNK         0.0600 
    164 H164        5.2079  -19.3947  -41.5460 H         1 UNK         0.3000 
    165 H165        2.4457  -19.8367  -39.3353 H         1 UNK         0.0600 
    166 H166        4.2727  -20.3324  -37.7444 H         1 UNK         0.0600 
    167 H167        4.0225  -21.7063  -38.8087 H         1 UNK         0.0600 
    168 H168        5.3939  -20.6357  -39.0720 H         1 UNK         0.0600 
    169 H169        4.7112  -18.2169  -39.0267 H         1 UNK         0.3000 
    170 H170        4.3633  -15.9493  -38.9939 H         1 UNK         0.0600 
    171 H171        4.5345  -15.6678  -42.0537 H         1 UNK         0.0600 
    172 H172        5.3851  -14.6614  -40.8828 H         1 UNK         0.0600 
    173 H173        5.7748  -16.3679  -41.0202 H         1 UNK         0.0600 
    174 H174        2.7198  -14.5038  -40.9257 H         1 UNK         0.3000 
    175 H175       -0.0889  -14.0976  -38.7413 H         1 UNK         0.0600 
    176 H176        0.1305  -11.9054  -39.8755 H         1 UNK         0.0600 
    177 H177        1.7003  -12.3483  -40.5377 H         1 UNK         0.0600 
    178 H178        1.5034  -12.1082  -38.8047 H         1 UNK         0.0600 
    179 H179        0.7404  -15.3310  -41.1314 H         1 UNK         0.3000 
    180 H180       -0.4212  -15.7222  -42.8857 H         1 UNK         0.0600 
    181 H181       -3.4150  -15.2377  -42.4506 H         1 UNK         0.0600 
    182 H182       -2.4944  -16.5599  -41.7450 H         1 UNK         0.0600 
    183 H183       -2.6931  -16.4639  -43.4893 H         1 UNK         0.0600 
    184 H184       -2.2397  -14.1164  -44.3216 H         1 UNK         0.3000 
    185 H185       -1.6891  -11.8444  -45.1524 H         1 UNK         0.0600 
    186 H186        0.5100  -10.7164  -44.8554 H         1 UNK         0.0600 
    187 H187        1.2369  -11.7798  -46.0544 H         1 UNK         0.0600 
    188 H188       -0.0242  -10.6405  -46.5259 H         1 UNK         0.0600 
    189 H189       -0.3163  -13.0969  -47.3626 H         1 UNK         0.3000 
    190 H190       -1.2110  -19.5491  -46.0247 H         1 UNK         0.3000 
    191 H191       -3.3763  -18.9875  -47.6696 H         1 UNK         0.0600 
    192 H192       -2.6985  -17.6454  -45.6574 H         1 UNK         0.0600 
    193 H193       -4.4160  -18.0112  -45.6496 H         1 UNK         0.0600 
    194 H194       -3.3229  -18.9072  -44.6053 H         1 UNK         0.0600 
    195 H195       -3.1454  -21.5090  -45.1489 H         1 UNK         0.3000 
    196 H196       -5.8105  -22.5319  -45.4761 H         1 UNK         0.0600 
    197 H197       -4.9202  -24.4429  -44.1267 H         1 UNK         0.0600 
    198 H198       -4.5220  -22.8905  -43.4050 H         1 UNK         0.0600 
    199 H199       -3.2897  -23.7966  -44.2762 H         1 UNK         0.0600 
    200 H200       -2.6043  -23.7575  -46.6385 H         1 UNK         0.3000 
    201 H201       -3.6975  -26.0269  -47.9353 H         1 UNK         0.0600 
    202 H202       -1.3724  -25.9192  -47.0956 H         1 UNK         0.0600 
    203 H203       -0.9710  -24.6758  -48.2791 H         1 UNK         0.0600 
    204 H204       -1.3772  -26.3040  -48.8101 H         1 UNK         0.0600 
    205 H205       -2.7536  -22.8256  -49.2504 H         1 UNK         0.3000 
    206 H206       -3.3664  -23.6412  -52.0190 H         1 UNK         0.0600 
    207 H207       -1.3143  -22.2554  -51.3360 H         1 UNK         0.0600 
    208 H208       -2.2996  -21.5500  -52.5966 H         1 UNK         0.0600 
    209 H209       -2.4139  -20.9295  -50.9614 H         1 UNK         0.0600 
    210 H210       -5.1977  -22.6136  -49.4191 H         1 UNK         0.3000 
    211 H211       -7.1688  -21.6403  -49.0602 H         1 UNK         0.0600 
    212 H212       -7.7396  -22.3606  -51.9886 H         1 UNK         0.0600 
    213 H213       -8.9460  -21.9782  -50.7677 H         1 UNK         0.0600 
    214 H214       -7.9615  -23.4237  -50.6015 H         1 UNK         0.0600 
    215 H215       -5.4560  -19.7949  -49.0851 H         1 UNK         0.3000 
    216 H216       -4.7711  -17.7038  -49.4545 H         1 UNK         0.0600 
    217 H217       -6.4971  -15.9609  -49.7435 H         1 UNK         0.0600 
    218 H218       -7.0694  -17.1915  -48.6301 H         1 UNK         0.0600 
    219 H219       -7.6663  -17.1522  -50.2889 H         1 UNK         0.0600 
    220 H220       -4.2014  -19.4568  -51.5066 H         1 UNK         0.3000 
    221 H221       -3.1984  -19.6039  -53.4492 H         1 UNK         0.0600 
    222 H222       -3.3351  -16.5642  -53.7354 H         1 UNK         0.0600 
    223 H223       -2.0958  -17.4419  -52.8410 H         1 UNK         0.0600 
    224 H224       -2.2460  -17.6617  -54.5742 H         1 UNK         0.0600 
    225 H225       -6.1828  -19.6513  -53.2670 H         1 UNK         0.3000 
    226 H226       -7.0922  -19.0387  -55.9877 H         1 UNK         0.0600 
    227 H227       -8.6674  -18.9794  -54.0430 H         1 UNK         0.0600 
    228 H228       -9.1674  -20.1606  -55.2455 H         1 UNK         0.0600 
    229 H229       -8.3896  -20.6978  -53.7625 H         1 UNK         0.0600 
    230 H230       -5.5465  -21.6722  -54.2666 H         1 UNK         0.3000 
    231 H231       -5.4801  -23.3711  -56.7074 H         1 UNK         0.0600 
    232 H232       -5.7633  -24.2940  -53.7819 H         1 UNK         0.0600 
    233 H233       -5.6239  -25.3474  -55.1856 H         1 UNK         0.0600 
    234 H234       -7.0547  -24.3537  -54.9784 H         1 UNK         0.0600 
    235 H235       -3.6197  -25.0320  -56.2689 H         1 UNK         0.3000 
    236 H236       -1.4681  -25.4877  -56.1524 H         1 UNK         0.0600 
    237 H237       -0.3235  -25.1571  -54.0195 H         1 UNK         0.0600 
    238 H238       -2.0165  -25.4353  -53.6706 H         1 UNK         0.0600 
    239 H239       -1.3656  -23.8018  -53.5954 H         1 UNK         0.0600 
    240 H240        0.6435  -23.6876  -54.9390 H         1 UNK         0.3000 
    241 H241        2.2076  -22.2773  -55.5642 H         1 UNK         0.0600 
    242 H242        1.4968  -24.4379  -57.6697 H         1 UNK         0.3800 
    243 H243        2.3770  -23.8639  -59.0618 H         1 UNK         0.3800 
    244 H244        1.5400  -20.0141  -56.4939 H         1 UNK         0.0800 
    245 H245       -0.0816  -20.6038  -56.6983 H         1 UNK         0.0800 
    246 H246        2.7948  -19.8154  -54.1101 H         1 UNK         0.0800 
    247 H247        1.9227  -18.4157  -54.6919 H         1 UNK         0.0800 
@<TRIPOS>BOND
     1    1    2 1    
     2    1  127 1    
     3    1  128 1    
     4    1  129 1    
     5    2    3 2    
     6    2    4 am   BACKBONE|DICT|INTERRES
     7    4    5 1    
     8    4  130 1    
     9    5    6 1    
    10    5   65 1    
    11    5  131 1    
    12    6    7 1    
    13    6  132 1    
    14    6  133 1    
    15    7    8 1    
    16    8    9 1    
    17    8  134 1    
    18    8  135 1    
    19    9   10 ar   
    20    9   14 ar   
    21   10   11 ar   
    22   10  136 1    
    23   11   12 ar   
    24   11  126 1    
    25   12   13 ar   
    26   12  137 1    
    27   13   14 ar   
    28   13   15 1    
    29   14  138 1    
    30   15   16 1    
    31   15  139 1    
    32   15  140 1    
    33   16   17 1    
    34   17   18 1    
    35   17  141 1    
    36   17  142 1    
    37   18   19 1    
    38   18   67 1    
    39   18  143 1    
    40   19   20 am   BACKBONE|DICT|INTERRES
    41   19  144 1    
    42   20   21 2    
    43   20   22 1    
    44   22   23 1    
    45   22   24 1    
    46   22  145 1    
    47   23  146 1    
    48   23  147 1    
    49   23  148 1    
    50   24   25 am   BACKBONE|DICT|INTERRES
    51   24  149 1    
    52   25   26 2    
    53   25   27 1    
    54   27   28 1    
    55   27   29 1    
    56   27  150 1    
    57   28  151 1    
    58   28  152 1    
    59   28  153 1    
    60   29   30 am   BACKBONE|DICT|INTERRES
    61   29  154 1    
    62   30   31 2    
    63   30   32 1    
    64   32   33 1    
    65   32   34 1    
    66   32  155 1    
    67   33  156 1    
    68   33  157 1    
    69   33  158 1    
    70   34   35 am   BACKBONE|DICT|INTERRES
    71   34  159 1    
    72   35   36 2    
    73   35   37 1    
    74   37   38 1    
    75   37   39 1    
    76   37  160 1    
    77   38  161 1    
    78   38  162 1    
    79   38  163 1    
    80   39   40 am   BACKBONE|DICT|INTERRES
    81   39  164 1    
    82   40   41 2    
    83   40   42 1    
    84   42   43 1    
    85   42   44 1    
    86   42  165 1    
    87   43  166 1    
    88   43  167 1    
    89   43  168 1    
    90   44   45 am   BACKBONE|DICT|INTERRES
    91   44  169 1    
    92   45   46 2    
    93   45   47 1    
    94   47   48 1    
    95   47   49 1    
    96   47  170 1    
    97   48  171 1    
    98   48  172 1    
    99   48  173 1    
   100   49   50 am   BACKBONE|DICT|INTERRES
   101   49  174 1    
   102   50   51 2    
   103   50   52 1    
   104   52   53 1    
   105   52   54 1    
   106   52  175 1    
   107   53  176 1    
   108   53  177 1    
   109   53  178 1    
   110   54   55 am   BACKBONE|DICT|INTERRES
   111   54  179 1    
   112   55   56 2    
   113   55   57 1    
   114   57   58 1    
   115   57   59 1    
   116   57  180 1    
   117   58  181 1    
   118   58  182 1    
   119   58  183 1    
   120   59   60 am   BACKBONE|DICT|INTERRES
   121   59  184 1    
   122   60   61 2    
   123   60   62 1    
   124   62   63 1    
   125   62   64 1    
   126   62  185 1    
   127   63  186 1    
   128   63  187 1    
   129   63  188 1    
   130   64   65 am   BACKBONE|DICT|INTERRES
   131   64  189 1    
   132   65   66 2    
   133   67   68 2    
   134   67   69 am   BACKBONE|DICT|INTERRES
   135   69   70 1    
   136   69  190 1    
   137   70   71 1    
   138   70   72 1    
   139   70  191 1    
   140   71  192 1    
   141   71  193 1    
   142   71  194 1    
   143   72   73 2    
   144   72   74 am   BACKBONE|DICT|INTERRES
   145   74   75 1    
   146   74  195 1    
   147   75   76 1    
   148   75   77 1    
   149   75  196 1    
   150   76  197 1    
   151   76  198 1    
   152   76  199 1    
   153   77   78 2    
   154   77   79 am   BACKBONE|DICT|INTERRES
   155   79   80 1    
   156   79  200 1    
   157   80   81 1    
   158   80   82 1    
   159   80  201 1    
   160   81  202 1    
   161   81  203 1    
   162   81  204 1    
   163   82   83 2    
   164   82   84 am   BACKBONE|DICT|INTERRES
   165   84   85 1    
   166   84  205 1    
   167   85   86 1    
   168   85   87 1    
   169   85  206 1    
   170   86  207 1    
   171   86  208 1    
   172   86  209 1    
   173   87   88 2    
   174   87   89 am   BACKBONE|DICT|INTERRES
   175   89   90 1    
   176   89  210 1    
   177   90   91 1    
   178   90   92 1    
   179   90  211 1    
   180   91  212 1    
   181   91  213 1    
   182   91  214 1    
   183   92   93 2    
   184   92   94 am   BACKBONE|DICT|INTERRES
   185   94   95 1    
   186   94  215 1    
   187   95   96 1    
   188   95   97 1    
   189   95  216 1    
   190   96  217 1    
   191   96  218 1    
   192   96  219 1    
   193   97   98 2    
   194   97   99 am   BACKBONE|DICT|INTERRES
   195   99  100 1    
   196   99  220 1    
   197  100  101 1    
   198  100  102 1    
   199  100  221 1    
   200  101  222 1    
   201  101  223 1    
   202  101  224 1    
   203  102  103 2    
   204  102  104 am   BACKBONE|DICT|INTERRES
   205  104  105 1    
   206  104  225 1    
   207  105  106 1    
   208  105  107 1    
   209  105  226 1    
   210  106  227 1    
   211  106  228 1    
   212  106  229 1    
   213  107  108 2    
   214  107  109 am   BACKBONE|DICT|INTERRES
   215  109  110 1    
   216  109  230 1    
   217  110  111 1    
   218  110  112 1    
   219  110  231 1    
   220  111  232 1    
   221  111  233 1    
   222  111  234 1    
   223  112  113 2    
   224  112  114 am   BACKBONE|DICT|INTERRES
   225  114  115 1    
   226  114  235 1    
   227  115  116 1    
   228  115  117 1    
   229  115  236 1    
   230  116  237 1    
   231  116  238 1    
   232  116  239 1    
   233  117  118 2    
   234  117  119 am   BACKBONE|DICT|INTERRES
   235  119  120 1    
   236  119  240 1    
   237  120  121 1    
   238  120  124 1    
   239  120  241 1    
   240  121  122 am   BACKBONE|DICT|INTERRES
   241  121  123 2    
   242  122  242 1    
   243  122  243 1    
   244  124  125 1    
   245  124  244 1    
   246  124  245 1    
   247  125  126 1    
   248  126  246 1    
   249  126  247 1    
@<TRIPOS>SUBSTRUCTURE
     1 UNK         1 GROUP             0       ****    0 ROOT    
