@<TRIPOS>MOLECULE
3R540
247   249    1
SMALL
USER_CHARGES


@<TRIPOS>ATOM
      1 CA         -2.5357  -12.9198  -49.0816 C.3       0 UNK        -0.1800 
      2 C          -1.0850  -13.1784  -48.7019 C.2       0 UNK         0.5000 
      3 O          -0.7463  -13.0903  -47.5225 O.2       0 UNK        -0.5000 
      4 N          -0.2441  -13.4922  -49.6992 N.am      1 UNK        -0.5000 
      5 CA          1.1819  -13.8424  -49.6064 C.3       1 UNK         0.1400 
      6 C6          1.4327  -15.3400  -49.2493 C.3       23 UNK        -0.0398 
      7 S7          0.8904  -15.8726  -47.5860 S.3       23 UNK        -0.2404 
      8 C8          1.3730  -17.6237  -47.5745 C.3       23 UNK        -0.0205 
      9 C9          0.6975  -18.4397  -48.6680 C.ar      23 UNK        -0.0193 
     10 C10        -0.6829  -18.3611  -48.8803 C.ar      23 UNK        -0.1150 
     11 C11        -1.2825  -19.0587  -49.9325 C.ar      23 UNK        -0.0193 
     12 C12        -0.4979  -19.8825  -50.7420 C.ar      23 UNK        -0.1150 
     13 C13         0.8760  -19.9998  -50.5162 C.ar      23 UNK        -0.0193 
     14 C14         1.4687  -19.2681  -49.4860 C.ar      23 UNK        -0.1150 
     15 C15         1.7262  -20.9087  -51.3884 C.3       23 UNK        -0.0205 
     16 S16         2.1360  -22.4655  -50.5378 S.3       23 UNK        -0.2404 
     17 C17         0.4820  -23.2117  -50.3461 C.3       23 UNK        -0.0398 
     18 CA          0.1025  -23.5328  -48.8814 C.3       11 UNK         0.1400 
     19 N           0.3533  -22.4381  -47.9315 N.am      11 UNK        -0.5000 
     20 C           0.4919  -22.6402  -46.6125 C.2       10 UNK         0.5000 
     21 O           0.3818  -23.7470  -46.0830 O.2       10 UNK        -0.5000 
     22 CA          0.7461  -21.4034  -45.7299 C.3       10 UNK         0.1400 
     23 CB          2.1487  -20.8309  -45.9843 C.3       10 UNK        -0.1800 
     24 N          -0.2713  -20.3522  -45.8639 N.am      10 UNK        -0.5000 
     25 C          -1.5814  -20.5354  -45.6450 C.2       9 UNK         0.5000 
     26 O          -2.0623  -21.6361  -45.3752 O.2       9 UNK        -0.5000 
     27 CA         -2.5144  -19.3120  -45.7370 C.3       9 UNK         0.1400 
     28 CB         -3.7780  -19.4894  -44.8622 C.3       9 UNK        -0.1800 
     29 N          -1.8473  -18.0583  -45.3757 N.am      9 UNK        -0.5000 
     30 C          -2.3448  -16.8433  -45.6602 C.2       8 UNK         0.5000 
     31 O          -3.2651  -16.6679  -46.4602 O.2       8 UNK        -0.5000 
     32 CA         -1.7557  -15.6213  -44.9147 C.3       8 UNK         0.1400 
     33 CB         -2.8329  -14.5731  -44.5692 C.3       8 UNK        -0.1800 
     34 N          -0.9794  -15.9620  -43.7188 N.am      8 UNK        -0.5000 
     35 C          -1.3690  -16.6338  -42.6251 C.2       7 UNK         0.5000 
     36 O          -2.5305  -16.9882  -42.4214 O.2       7 UNK        -0.5000 
     37 CA         -0.2736  -16.9960  -41.5934 C.3       7 UNK         0.1400 
     38 CB         -0.4499  -18.4331  -41.0611 C.3       7 UNK        -0.1800 
     39 N           1.1090  -16.7995  -42.0563 N.am      7 UNK        -0.5000 
     40 C           1.7180  -17.3633  -43.1137 C.2       6 UNK         0.5000 
     41 O           1.1569  -18.1495  -43.8795 O.2       6 UNK        -0.5000 
     42 CA          3.1781  -16.9394  -43.3759 C.3       6 UNK         0.1400 
     43 CB          3.5244  -16.8999  -44.8728 C.3       6 UNK        -0.1800 
     44 N           3.4461  -15.6215  -42.8001 N.am      6 UNK        -0.5000 
     45 C           4.4680  -15.3178  -41.9895 C.2       5 UNK         0.5000 
     46 O           5.3565  -16.1130  -41.6815 O.2       5 UNK        -0.5000 
     47 CA          4.5000  -13.8904  -41.4008 C.3       5 UNK         0.1400 
     48 CB          5.4698  -13.0054  -42.1979 C.3       5 UNK        -0.1800 
     49 N           3.1893  -13.2356  -41.3532 N.am      5 UNK        -0.5000 
     50 C           2.1371  -13.6617  -40.6390 C.2       4 UNK         0.5000 
     51 O           2.1705  -14.6425  -39.8957 O.2       4 UNK        -0.5000 
     52 CA          0.8014  -12.9159  -40.8316 C.3       4 UNK         0.1400 
     53 CB          0.6008  -11.8819  -39.7139 C.3       4 UNK        -0.1800 
     54 N           0.6354  -12.2521  -42.1293 N.am      4 UNK        -0.5000 
     55 C           0.7443  -12.8266  -43.3353 C.2       3 UNK         0.5000 
     56 O           1.0901  -13.9995  -43.5017 O.2       3 UNK        -0.5000 
     57 CA          0.4172  -11.9594  -44.5673 C.3       3 UNK         0.1400 
     58 CB          0.2815  -10.4479  -44.2753 C.3       3 UNK        -0.1800 
     59 N           1.3701  -12.2047  -45.6493 N.am      3 UNK        -0.5000 
     60 C           2.6947  -11.9899  -45.6256 C.2       2 UNK         0.5000 
     61 O           3.2778  -11.4567  -44.6800 O.2       2 UNK        -0.5000 
     62 CA          3.5206  -12.4704  -46.8386 C.3       2 UNK         0.1400 
     63 CB          4.7308  -13.3035  -46.3812 C.3       2 UNK        -0.1800 
     64 N           2.7359  -13.2774  -47.7736 N.am      2 UNK        -0.5000 
     65 C           2.0082  -12.8121  -48.7957 C.2       1 UNK         0.5000 
     66 O           1.9692  -11.6219  -49.1151 O.2       1 UNK        -0.5000 
     67 C          -1.3499  -24.0472  -48.8023 C.2       11 UNK         0.5000 
     68 O          -1.6050  -25.1910  -49.1805 O.2       11 UNK        -0.5000 
     69 N          -2.2719  -23.2185  -48.2927 N.am      12 UNK        -0.5000 
     70 CA         -3.6584  -23.5948  -48.0251 C.3       12 UNK         0.1400 
     71 CB         -4.5005  -22.3392  -47.7654 C.3       12 UNK        -0.1800 
     72 C          -3.7544  -24.5883  -46.8564 C.2       12 UNK         0.5000 
     73 O          -4.4796  -25.5762  -46.9574 O.2       12 UNK        -0.5000 
     74 N          -2.9836  -24.3395  -45.7910 N.am      13 UNK        -0.5000 
     75 CA         -2.8431  -25.2435  -44.6535 C.3       13 UNK         0.1400 
     76 CB         -2.1585  -24.4998  -43.4962 C.3       13 UNK        -0.1800 
     77 C          -2.0693  -26.5244  -45.0167 C.2       13 UNK         0.5000 
     78 O          -2.4776  -27.6134  -44.6114 O.2       13 UNK        -0.5000 
     79 N          -0.9645  -26.3721  -45.7602 N.am      14 UNK        -0.5000 
     80 CA         -0.0449  -27.4633  -46.0794 C.3       14 UNK         0.1400 
     81 CB          1.3263  -26.8815  -46.4555 C.3       14 UNK        -0.1800 
     82 C          -0.5408  -28.4103  -47.1870 C.2       14 UNK         0.5000 
     83 O          -0.3266  -29.6181  -47.0713 O.2       14 UNK        -0.5000 
     84 N          -1.1412  -27.8620  -48.2527 N.am      15 UNK        -0.5000 
     85 CA         -1.3801  -28.5824  -49.5084 C.3       15 UNK         0.1400 
     86 CB         -0.2300  -28.2555  -50.4804 C.3       15 UNK        -0.1800 
     87 C          -2.7504  -28.2889  -50.1470 C.2       15 UNK         0.5000 
     88 O          -2.9812  -28.7240  -51.2761 O.2       15 UNK        -0.5000 
     89 N          -3.6311  -27.5607  -49.4430 N.am      16 UNK        -0.5000 
     90 CA         -4.9659  -27.1275  -49.8870 C.3       16 UNK         0.1400 
     91 CB         -5.8919  -28.3371  -50.1366 C.3       16 UNK        -0.1800 
     92 C          -4.9486  -26.1366  -51.0738 C.2       16 UNK         0.5000 
     93 O          -5.9725  -25.9612  -51.7370 O.2       16 UNK        -0.5000 
     94 N          -3.8048  -25.4806  -51.3113 N.am      17 UNK        -0.5000 
     95 CA         -3.6239  -24.4580  -52.3381 C.3       17 UNK         0.1400 
     96 CB         -2.1679  -24.4928  -52.8258 C.3       17 UNK        -0.1800 
     97 C          -4.0302  -23.0879  -51.7706 C.2       17 UNK         0.5000 
     98 O          -3.1772  -22.3252  -51.3144 O.2       17 UNK        -0.5000 
     99 N          -5.3417  -22.8376  -51.7656 N.am      18 UNK        -0.5000 
    100 CA        -5.9803  -21.6144  -51.2870 C.3       18 UNK         0.1400 
    101 CB        -7.1387  -22.0256  -50.3587 C.3       18 UNK        -0.1800 
    102 C         -6.4924  -20.7677  -52.4681 C.2       18 UNK         0.5000 
    103 O         -6.2692  -21.1195  -53.6302 O.2       18 UNK        -0.5000 
    104 N         -7.1911  -19.6707  -52.1399 N.am      19 UNK        -0.5000 
    105 CA        -7.8855  -18.7538  -53.0498 C.3       19 UNK         0.1400 
    106 CB        -9.1226  -19.4458  -53.6661 C.3       19 UNK        -0.1800 
    107 C         -6.9284  -18.1368  -54.0876 C.2       19 UNK         0.5000 
    108 O         -6.0620  -17.3480  -53.7074 O.2       19 UNK        -0.5000 
    109 N         -7.0666  -18.5246  -55.3629 N.am      20 UNK        -0.5000 
    110 CA        -6.2655  -18.0650  -56.5031 C.3       20 UNK         0.1400 
    111 CB        -6.8114  -18.7184  -57.7821 C.3       20 UNK        -0.1800 
    112 C         -4.7466  -18.3122  -56.3768 C.2       20 UNK         0.5000 
    113 O         -3.9731  -17.6736  -57.0915 O.2       20 UNK        -0.5000 
    114 N         -4.3422  -19.2068  -55.4643 N.am      21 UNK        -0.5000 
    115 CA        -2.9498  -19.4586  -55.0973 C.3       21 UNK         0.1400 
    116 CB        -2.8915  -20.7121  -54.2159 C.3       21 UNK        -0.1800 
    117 C         -2.2618  -18.2748  -54.3840 C.2       21 UNK         0.5000 
    118 O         -1.0316  -18.2140  -54.4065 O.2       21 UNK        -0.5000 
    119 N         -3.0334  -17.3629  -53.7729 N.am      22 UNK        -0.5000 
    120 CA        -2.4980  -16.1809  -53.0757 C.3       22 UNK         0.1400 
    121 C         -3.3969  -14.9135  -53.0982 C.2       22 UNK         0.5000 
    122 N         -4.6652  -14.9814  -53.4786 N.am      22 UNK        -0.7600 
    123 O         -2.9169  -13.8256  -52.7909 O.2       22 UNK        -0.5000 
    124 C124       -1.9687  -16.5099  -51.6567 C.3       23 UNK        -0.0398 
    125 S125       -3.2393  -17.1360  -50.4926 S.3       23 UNK        -0.2404 
    126 C126       -2.7634  -18.8823  -50.2423 C.3       23 UNK        -0.0205 
    127 H127       -2.6901  -12.9734  -50.1593 H         1 UNK         0.0600 
    128 H128       -2.8430  -11.9309  -48.7418 H         1 UNK         0.0600 
    129 H129       -3.1806  -13.6612  -48.6092 H         1 UNK         0.0600 
    130 H130       -0.6098  -13.4808  -50.6404 H         1 UNK         0.3000 
    131 H131        1.5498  -13.7225  -50.6266 H         1 UNK         0.0600 
    132 H132        0.9143  -15.9614  -49.9806 H         1 UNK         0.0800 
    133 H133        2.4900  -15.5838  -49.3663 H         1 UNK         0.0800 
    134 H134        2.4587  -17.6835  -47.6629 H         1 UNK         0.0800 
    135 H135        1.1187  -18.0403  -46.6020 H         1 UNK         0.0800 
    136 H136       -1.2862  -17.7103  -48.2642 H         1 UNK         0.1150 
    137 H137       -0.9575  -20.4244  -51.5570 H         1 UNK         0.1150 
    138 H138        2.5352  -19.3457  -49.3260 H         1 UNK         0.1150 
    139 H139        1.2183  -21.1297  -52.3287 H         1 UNK         0.0800 
    140 H140        2.6513  -20.3955  -51.6549 H         1 UNK         0.0800 
    141 H141       -0.2734  -22.5806  -50.8134 H         1 UNK         0.0800 
    142 H142        0.4940  -24.1364  -50.9245 H         1 UNK         0.0800 
    143 H143        0.7391  -24.3672  -48.5825 H         1 UNK         0.0600 
    144 H144        0.4600  -21.5099  -48.3161 H         1 UNK         0.3000 
    145 H145        0.7150  -21.7412  -44.6918 H         1 UNK         0.0600 
    146 H146        2.3894  -20.0468  -45.2685 H         1 UNK         0.0600 
    147 H147        2.9096  -21.6050  -45.8768 H         1 UNK         0.0600 
    148 H148        2.2469  -20.4177  -46.9869 H         1 UNK         0.0600 
    149 H149        0.0616  -19.4229  -46.0683 H         1 UNK         0.3000 
    150 H150       -2.8247  -19.2536  -46.7821 H         1 UNK         0.0600 
    151 H151       -4.3112  -20.4113  -45.0910 H         1 UNK         0.0600 
    152 H152       -4.4877  -18.6758  -45.0102 H         1 UNK         0.0600 
    153 H153       -3.5218  -19.5161  -43.8024 H         1 UNK         0.0600 
    154 H154       -1.0782  -18.1251  -44.7194 H         1 UNK         0.3000 
    155 H155       -1.0548  -15.1484  -45.6013 H         1 UNK         0.0600 
    156 H156       -2.4072  -13.7328  -44.0216 H         1 UNK         0.0600 
    157 H157       -3.6307  -15.0002  -43.9610 H         1 UNK         0.0600 
    158 H158       -3.2890  -14.1704  -45.4744 H         1 UNK         0.0600 
    159 H159       -0.0128  -15.6545  -43.7446 H         1 UNK         0.3000 
    160 H160       -0.4112  -16.3114  -40.7556 H         1 UNK         0.0600 
    161 H161       -0.3875  -19.1710  -41.8618 H         1 UNK         0.0600 
    162 H162       -1.4191  -18.5585  -40.5769 H         1 UNK         0.0600 
    163 H163        0.3127  -18.6758  -40.3211 H         1 UNK         0.0600 
    164 H164        1.6600  -16.1647  -41.4923 H         1 UNK         0.3000 
    165 H165        3.8021  -17.6979  -42.8998 H         1 UNK         0.0600 
    166 H166        2.8996  -16.1817  -45.4032 H         1 UNK         0.0600 
    167 H167        4.5653  -16.6162  -45.0275 H         1 UNK         0.0600 
    168 H168        3.3866  -17.8756  -45.3372 H         1 UNK         0.0600 
    169 H169        2.7498  -14.9085  -43.0028 H         1 UNK         0.3000 
    170 H170        4.8697  -13.9683  -40.3764 H         1 UNK         0.0600 
    171 H171        6.4704  -13.4392  -42.2168 H         1 UNK         0.0600 
    172 H172        5.1448  -12.8866  -43.2318 H         1 UNK         0.0600 
    173 H173        5.5547  -12.0126  -41.7560 H         1 UNK         0.0600 
    174 H174        3.0602  -12.4428  -41.9665 H         1 UNK         0.3000 
    175 H175        0.0073  -13.6607  -40.7517 H         1 UNK         0.0600 
    176 H176        1.3419  -11.0834  -39.7682 H         1 UNK         0.0600 
    177 H177       -0.3886  -11.4274  -39.7681 H         1 UNK         0.0600 
    178 H178        0.6892  -12.3455  -38.7302 H         1 UNK         0.0600 
    179 H179        0.3715  -11.2781  -42.0951 H         1 UNK         0.3000 
    180 H180       -0.5485  -12.3107  -44.9312 H         1 UNK         0.0600 
    181 H181        1.1844  -10.0300  -43.8289 H         1 UNK         0.0600 
    182 H182       -0.5496  -10.2484  -43.5980 H         1 UNK         0.0600 
    183 H183        0.0810   -9.8934  -45.1922 H         1 UNK         0.0600 
    184 H184        0.9670  -12.6610  -46.4611 H         1 UNK         0.3000 
    185 H185        3.8935  -11.5816  -47.3513 H         1 UNK         0.0600 
    186 H186        5.3057  -13.6683  -47.2325 H         1 UNK         0.0600 
    187 H187        5.4082  -12.7080  -45.7680 H         1 UNK         0.0600 
    188 H188        4.4240  -14.1649  -45.7875 H         1 UNK         0.0600 
    189 H189        2.6513  -14.2595  -47.5472 H         1 UNK         0.3000 
    190 H190       -1.9785  -22.3030  -47.9888 H         1 UNK         0.3000 
    191 H191       -4.0594  -24.0847  -48.9124 H         1 UNK         0.0600 
    192 H192       -4.4549  -21.6532  -48.6100 H         1 UNK         0.0600 
    193 H193       -5.5469  -22.5983  -47.6032 H         1 UNK         0.0600 
    194 H194       -4.1628  -21.8019  -46.8836 H         1 UNK         0.0600 
    195 H195       -2.4550  -23.4717  -45.7529 H         1 UNK         0.3000 
    196 H196       -3.8419  -25.5367  -44.3232 H         1 UNK         0.0600 
    197 H197       -2.0507  -25.1462  -42.6244 H         1 UNK         0.0600 
    198 H198       -2.7408  -23.6309  -43.1889 H         1 UNK         0.0600 
    199 H199       -1.1631  -24.1505  -43.7735 H         1 UNK         0.0600 
    200 H200       -0.6620  -25.4327  -46.0008 H         1 UNK         0.3000 
    201 H201        0.0935  -28.0623  -45.1764 H         1 UNK         0.0600 
    202 H202        1.7251  -26.2592  -45.6541 H         1 UNK         0.0600 
    203 H203        1.2719  -26.2728  -47.3574 H         1 UNK         0.0600 
    204 H204        2.0503  -27.6760  -46.6408 H         1 UNK         0.0600 
    205 H205       -1.2748  -26.8557  -48.2954 H         1 UNK         0.3000 
    206 H206       -1.3749  -29.6594  -49.3300 H         1 UNK         0.0600 
    207 H207        0.7365  -28.5220  -50.0526 H         1 UNK         0.0600 
    208 H208       -0.3294  -28.8077  -51.4157 H         1 UNK         0.0600 
    209 H209       -0.2060  -27.1929  -50.7258 H         1 UNK         0.0600 
    210 H210       -3.3578  -27.2435  -48.5229 H         1 UNK         0.3000 
    211 H211       -5.4014  -26.5723  -49.0586 H         1 UNK         0.0600 
    212 H212       -5.5985  -28.9013  -51.0219 H         1 UNK         0.0600 
    213 H213       -6.9231  -28.0150  -50.2861 H         1 UNK         0.0600 
    214 H214       -5.8882  -29.0187  -49.2861 H         1 UNK         0.0600 
    215 H215       -3.0233  -25.6301  -50.6830 H         1 UNK         0.3000 
    216 H216       -4.2613  -24.6733  -53.1985 H         1 UNK         0.0600 
    217 H217       -1.9729  -23.6951  -53.5435 H         1 UNK         0.0600 
    218 H218       -1.9417  -25.4393  -53.3169 H         1 UNK         0.0600 
    219 H219       -1.4716  -24.3745  -52.0002 H         1 UNK         0.0600 
    220 H220       -5.9606  -23.5250  -52.1741 H         1 UNK         0.3000 
    221 H221       -5.2690  -21.0067  -50.7253 H         1 UNK         0.0600 
    222 H222       -7.9547  -22.4885  -50.9154 H         1 UNK         0.0600 
    223 H223       -6.8095  -22.7428  -49.6076 H         1 UNK         0.0600 
    224 H224       -7.5478  -21.1675  -49.8248 H         1 UNK         0.0600 
    225 H225       -7.2813  -19.4421  -51.1603 H         1 UNK         0.3000 
    226 H226       -8.2445  -17.9230  -52.4406 H         1 UNK         0.0600 
    227 H227       -9.8116  -19.7706  -52.8863 H         1 UNK         0.0600 
    228 H228       -9.6743  -18.7632  -54.3140 H         1 UNK         0.0600 
    229 H229       -8.8582  -20.3253  -54.2542 H         1 UNK         0.0600 
    230 H230       -7.7784  -19.2101  -55.5696 H         1 UNK         0.3000 
    231 H231       -6.4053  -16.9852  -56.5837 H         1 UNK         0.0600 
    232 H232       -6.2649  -18.3762  -58.6620 H         1 UNK         0.0600 
    233 H233       -7.8611  -18.4681  -57.9372 H         1 UNK         0.0600 
    234 H234       -6.7259  -19.8052  -57.7445 H         1 UNK         0.0600 
    235 H235       -5.0477  -19.7024  -54.9327 H         1 UNK         0.3000 
    236 H236       -2.3912  -19.6591  -56.0137 H         1 UNK         0.0600 
    237 H237       -3.3208  -21.5768  -54.7222 H         1 UNK         0.0600 
    238 H238       -1.8637  -20.9641  -53.9517 H         1 UNK         0.0600 
    239 H239       -3.4410  -20.5591  -53.2879 H         1 UNK         0.0600 
    240 H240       -4.0414  -17.4665  -53.7827 H         1 UNK         0.3000 
    241 H241       -1.6295  -15.8567  -53.6530 H         1 UNK         0.0600 
    242 H242       -5.1336  -15.8699  -53.6449 H         1 UNK         0.3800 
    243 H243       -5.2086  -14.1337  -53.4954 H         1 UNK         0.3800 
    244 H244       -1.5171  -15.6256  -51.2065 H         1 UNK         0.0800 
    245 H245       -1.1506  -17.2223  -51.7479 H         1 UNK         0.0800 
    246 H246       -3.3504  -19.2973  -49.4225 H         1 UNK         0.0800 
    247 H247       -3.0398  -19.4454  -51.1346 H         1 UNK         0.0800 
@<TRIPOS>BOND
     1    1    2 1    
     2    1  127 1    
     3    1  128 1    
     4    1  129 1    
     5    2    3 2    
     6    2    4 am   BACKBONE|DICT|INTERRES
     7    4    5 1    
     8    4  130 1    
     9    5    6 1    
    10    5   65 1    
    11    5  131 1    
    12    6    7 1    
    13    6  132 1    
    14    6  133 1    
    15    7    8 1    
    16    8    9 1    
    17    8  134 1    
    18    8  135 1    
    19    9   10 ar   
    20    9   14 ar   
    21   10   11 ar   
    22   10  136 1    
    23   11   12 ar   
    24   11  126 1    
    25   12   13 ar   
    26   12  137 1    
    27   13   14 ar   
    28   13   15 1    
    29   14  138 1    
    30   15   16 1    
    31   15  139 1    
    32   15  140 1    
    33   16   17 1    
    34   17   18 1    
    35   17  141 1    
    36   17  142 1    
    37   18   19 1    
    38   18   67 1    
    39   18  143 1    
    40   19   20 am   BACKBONE|DICT|INTERRES
    41   19  144 1    
    42   20   21 2    
    43   20   22 1    
    44   22   23 1    
    45   22   24 1    
    46   22  145 1    
    47   23  146 1    
    48   23  147 1    
    49   23  148 1    
    50   24   25 am   BACKBONE|DICT|INTERRES
    51   24  149 1    
    52   25   26 2    
    53   25   27 1    
    54   27   28 1    
    55   27   29 1    
    56   27  150 1    
    57   28  151 1    
    58   28  152 1    
    59   28  153 1    
    60   29   30 am   BACKBONE|DICT|INTERRES
    61   29  154 1    
    62   30   31 2    
    63   30   32 1    
    64   32   33 1    
    65   32   34 1    
    66   32  155 1    
    67   33  156 1    
    68   33  157 1    
    69   33  158 1    
    70   34   35 am   BACKBONE|DICT|INTERRES
    71   34  159 1    
    72   35   36 2    
    73   35   37 1    
    74   37   38 1    
    75   37   39 1    
    76   37  160 1    
    77   38  161 1    
    78   38  162 1    
    79   38  163 1    
    80   39   40 am   BACKBONE|DICT|INTERRES
    81   39  164 1    
    82   40   41 2    
    83   40   42 1    
    84   42   43 1    
    85   42   44 1    
    86   42  165 1    
    87   43  166 1    
    88   43  167 1    
    89   43  168 1    
    90   44   45 am   BACKBONE|DICT|INTERRES
    91   44  169 1    
    92   45   46 2    
    93   45   47 1    
    94   47   48 1    
    95   47   49 1    
    96   47  170 1    
    97   48  171 1    
    98   48  172 1    
    99   48  173 1    
   100   49   50 am   BACKBONE|DICT|INTERRES
   101   49  174 1    
   102   50   51 2    
   103   50   52 1    
   104   52   53 1    
   105   52   54 1    
   106   52  175 1    
   107   53  176 1    
   108   53  177 1    
   109   53  178 1    
   110   54   55 am   BACKBONE|DICT|INTERRES
   111   54  179 1    
   112   55   56 2    
   113   55   57 1    
   114   57   58 1    
   115   57   59 1    
   116   57  180 1    
   117   58  181 1    
   118   58  182 1    
   119   58  183 1    
   120   59   60 am   BACKBONE|DICT|INTERRES
   121   59  184 1    
   122   60   61 2    
   123   60   62 1    
   124   62   63 1    
   125   62   64 1    
   126   62  185 1    
   127   63  186 1    
   128   63  187 1    
   129   63  188 1    
   130   64   65 am   BACKBONE|DICT|INTERRES
   131   64  189 1    
   132   65   66 2    
   133   67   68 2    
   134   67   69 am   BACKBONE|DICT|INTERRES
   135   69   70 1    
   136   69  190 1    
   137   70   71 1    
   138   70   72 1    
   139   70  191 1    
   140   71  192 1    
   141   71  193 1    
   142   71  194 1    
   143   72   73 2    
   144   72   74 am   BACKBONE|DICT|INTERRES
   145   74   75 1    
   146   74  195 1    
   147   75   76 1    
   148   75   77 1    
   149   75  196 1    
   150   76  197 1    
   151   76  198 1    
   152   76  199 1    
   153   77   78 2    
   154   77   79 am   BACKBONE|DICT|INTERRES
   155   79   80 1    
   156   79  200 1    
   157   80   81 1    
   158   80   82 1    
   159   80  201 1    
   160   81  202 1    
   161   81  203 1    
   162   81  204 1    
   163   82   83 2    
   164   82   84 am   BACKBONE|DICT|INTERRES
   165   84   85 1    
   166   84  205 1    
   167   85   86 1    
   168   85   87 1    
   169   85  206 1    
   170   86  207 1    
   171   86  208 1    
   172   86  209 1    
   173   87   88 2    
   174   87   89 am   BACKBONE|DICT|INTERRES
   175   89   90 1    
   176   89  210 1    
   177   90   91 1    
   178   90   92 1    
   179   90  211 1    
   180   91  212 1    
   181   91  213 1    
   182   91  214 1    
   183   92   93 2    
   184   92   94 am   BACKBONE|DICT|INTERRES
   185   94   95 1    
   186   94  215 1    
   187   95   96 1    
   188   95   97 1    
   189   95  216 1    
   190   96  217 1    
   191   96  218 1    
   192   96  219 1    
   193   97   98 2    
   194   97   99 am   BACKBONE|DICT|INTERRES
   195   99  100 1    
   196   99  220 1    
   197  100  101 1    
   198  100  102 1    
   199  100  221 1    
   200  101  222 1    
   201  101  223 1    
   202  101  224 1    
   203  102  103 2    
   204  102  104 am   BACKBONE|DICT|INTERRES
   205  104  105 1    
   206  104  225 1    
   207  105  106 1    
   208  105  107 1    
   209  105  226 1    
   210  106  227 1    
   211  106  228 1    
   212  106  229 1    
   213  107  108 2    
   214  107  109 am   BACKBONE|DICT|INTERRES
   215  109  110 1    
   216  109  230 1    
   217  110  111 1    
   218  110  112 1    
   219  110  231 1    
   220  111  232 1    
   221  111  233 1    
   222  111  234 1    
   223  112  113 2    
   224  112  114 am   BACKBONE|DICT|INTERRES
   225  114  115 1    
   226  114  235 1    
   227  115  116 1    
   228  115  117 1    
   229  115  236 1    
   230  116  237 1    
   231  116  238 1    
   232  116  239 1    
   233  117  118 2    
   234  117  119 am   BACKBONE|DICT|INTERRES
   235  119  120 1    
   236  119  240 1    
   237  120  121 1    
   238  120  124 1    
   239  120  241 1    
   240  121  122 am   BACKBONE|DICT|INTERRES
   241  121  123 2    
   242  122  242 1    
   243  122  243 1    
   244  124  125 1    
   245  124  244 1    
   246  124  245 1    
   247  125  126 1    
   248  126  246 1    
   249  126  247 1    
@<TRIPOS>SUBSTRUCTURE
     1 UNK         1 GROUP             0       ****    0 ROOT    
