@<TRIPOS>MOLECULE
3R540
247   249    1
SMALL
USER_CHARGES


@<TRIPOS>ATOM
      1 CA         -1.4469   -9.9763  -49.3838 C.3       0 UNK        -0.1800 
      2 C          -1.9497  -10.9647  -48.3416 C.2       0 UNK         0.5000 
      3 O          -2.3008  -10.5569  -47.2340 O.2       0 UNK        -0.5000 
      4 N          -1.9807  -12.2577  -48.6938 N.am      1 UNK        -0.5000 
      5 CA         -2.3793  -13.4034  -47.8670 C.3       1 UNK         0.1400 
      6 C6         -3.8541  -13.3284  -47.3702 C.3       23 UNK        -0.0398 
      7 S7         -4.4104  -14.7656  -46.3846 S.3       23 UNK        -0.2404 
      8 C8         -5.3278  -15.7527  -47.6168 C.3       23 UNK        -0.0205 
      9 C9         -4.4541  -16.3092  -48.7371 C.ar      23 UNK        -0.0193 
     10 C10        -4.9303  -16.3190  -50.0529 C.ar      23 UNK        -0.1150 
     11 C11        -4.1436  -16.8320  -51.0889 C.ar      23 UNK        -0.0193 
     12 C12        -2.8681  -17.3231  -50.8058 C.ar      23 UNK        -0.1150 
     13 C13        -2.3790  -17.3175  -49.4992 C.ar      23 UNK        -0.0193 
     14 C14        -3.1837  -16.8307  -48.4679 C.ar      23 UNK        -0.1150 
     15 C15        -0.9789  -17.8264  -49.2012 C.3       23 UNK        -0.0205 
     16 S16        -0.8877  -19.6413  -49.2620 S.3       23 UNK        -0.2404 
     17 C17        -2.1279  -20.1174  -48.0113 C.3       23 UNK        -0.0398 
     18 CA         -1.7812  -21.4756  -47.3654 C.3       11 UNK         0.1400 
     19 N          -0.6514  -21.3977  -46.4385 N.am      11 UNK        -0.5000 
     20 C          -0.0069  -22.4662  -45.9506 C.2       10 UNK         0.5000 
     21 O          -0.2876  -23.6267  -46.2506 O.2       10 UNK        -0.5000 
     22 CA          1.1001  -22.1981  -44.9160 C.3       10 UNK         0.1400 
     23 CB          2.3728  -21.6692  -45.5940 C.3       10 UNK        -0.1800 
     24 N           0.6737  -21.2677  -43.8707 N.am      10 UNK        -0.5000 
     25 C          -0.3241  -21.5006  -43.0058 C.2       9 UNK         0.5000 
     26 O          -0.9725  -22.5472  -42.9723 O.2       9 UNK        -0.5000 
     27 CA         -0.6898  -20.3513  -42.0491 C.3       9 UNK         0.1400 
     28 CB          0.2791  -20.2907  -40.8585 C.3       9 UNK        -0.1800 
     29 N          -0.7188  -19.0556  -42.7281 N.am      9 UNK        -0.5000 
     30 C          -1.6092  -18.7199  -43.6722 C.2       8 UNK         0.5000 
     31 O          -2.5249  -19.4514  -44.0424 O.2       8 UNK        -0.5000 
     32 CA         -1.4111  -17.3606  -44.3598 C.3       8 UNK         0.1400 
     33 CB         -2.0485  -16.2311  -43.5378 C.3       8 UNK        -0.1800 
     34 N           0.0007  -17.0780  -44.6249 N.am      8 UNK        -0.5000 
     35 C           0.7360  -17.7808  -45.5004 C.2       7 UNK         0.5000 
     36 O           0.2937  -18.7233  -46.1541 O.2       7 UNK        -0.5000 
     37 CA          2.2266  -17.4237  -45.6300 C.3       7 UNK         0.1400 
     38 CB          2.4230  -16.3026  -46.6556 C.3       7 UNK        -0.1800 
     39 N           2.8464  -17.0553  -44.3562 N.am      7 UNK        -0.5000 
     40 C           2.9417  -17.8874  -43.3084 C.2       6 UNK         0.5000 
     41 O           2.5322  -19.0490  -43.3246 O.2       6 UNK        -0.5000 
     42 CA          3.5684  -17.3385  -42.0150 C.3       6 UNK         0.1400 
     43 CB          5.0716  -17.6500  -41.9776 C.3       6 UNK        -0.1800 
     44 N           3.3775  -15.9047  -41.7938 N.am      6 UNK        -0.5000 
     45 C           2.2126  -15.2517  -41.7074 C.2       5 UNK         0.5000 
     46 O           1.1185  -15.7731  -41.9266 O.2       5 UNK        -0.5000 
     47 CA          2.2784  -13.7595  -41.3229 C.3       5 UNK         0.1400 
     48 CB          2.4875  -13.5810  -39.8078 C.3       5 UNK        -0.1800 
     49 N           3.2468  -12.9754  -42.1006 N.am      5 UNK        -0.5000 
     50 C           4.5865  -13.0657  -42.1406 C.2       4 UNK         0.5000 
     51 O           5.2409  -13.8193  -41.4176 O.2       4 UNK        -0.5000 
     52 CA          5.3077  -12.1918  -43.1945 C.3       4 UNK         0.1400 
     53 CB          6.6653  -12.7840  -43.6276 C.3       4 UNK        -0.1800 
     54 N           4.4748  -11.8941  -44.3686 N.am      4 UNK        -0.5000 
     55 C           3.9123  -12.7823  -45.2016 C.2       3 UNK         0.5000 
     56 O           4.0802  -14.0017  -45.1325 O.2       3 UNK        -0.5000 
     57 CA          2.9105  -12.2083  -46.2214 C.3       3 UNK         0.1400 
     58 CB          3.2336  -12.6588  -47.6545 C.3       3 UNK        -0.1800 
     59 N           1.5451  -12.6104  -45.8809 N.am      3 UNK        -0.5000 
     60 C           0.9010  -12.2800  -44.7536 C.2       2 UNK         0.5000 
     61 O           1.3726  -11.5228  -43.9027 O.2       2 UNK        -0.5000 
     62 CA         -0.4850  -12.9161  -44.5357 C.3       2 UNK         0.1400 
     63 CB         -1.2456  -12.3060  -43.3449 C.3       2 UNK        -0.1800 
     64 N          -1.3334  -12.8202  -45.7216 N.am      2 UNK        -0.5000 
     65 C          -1.3469  -13.6728  -46.7512 C.2       1 UNK         0.5000 
     66 O          -0.5658  -14.6179  -46.8567 O.2       1 UNK        -0.5000 
     67 C          -3.0209  -22.1239  -46.7209 C.2       11 UNK         0.5000 
     68 O          -3.6958  -22.8930  -47.4014 O.2       11 UNK        -0.5000 
     69 N          -3.2864  -21.8604  -45.4325 N.am      12 UNK        -0.5000 
     70 CA         -4.3620  -22.5053  -44.6736 C.3       12 UNK         0.1400 
     71 CB         -4.5239  -21.8382  -43.2999 C.3       12 UNK        -0.1800 
     72 C          -4.1524  -24.0228  -44.5241 C.2       12 UNK         0.5000 
     73 O          -5.0965  -24.7844  -44.7348 O.2       12 UNK        -0.5000 
     74 N          -2.9133  -24.4402  -44.2250 N.am      13 UNK        -0.5000 
     75 CA         -2.5047  -25.8472  -44.1625 C.3       13 UNK         0.1400 
     76 CB         -1.0814  -25.9409  -43.5928 C.3       13 UNK        -0.1800 
     77 C          -2.5991  -26.5619  -45.5264 C.2       13 UNK         0.5000 
     78 O          -2.9605  -27.7377  -45.5770 O.2       13 UNK        -0.5000 
     79 N          -2.3131  -25.8241  -46.6063 N.am      14 UNK        -0.5000 
     80 CA         -2.4474  -26.2575  -47.9985 C.3       14 UNK         0.1400 
     81 CB         -1.5229  -25.3799  -48.8562 C.3       14 UNK        -0.1800 
     82 C          -3.8959  -26.1934  -48.5338 C.2       14 UNK         0.5000 
     83 O          -4.1224  -26.5600  -49.6888 O.2       14 UNK        -0.5000 
     84 N          -4.8380  -25.6887  -47.7197 N.am      15 UNK        -0.5000 
     85 CA         -6.2494  -25.4304  -48.0335 C.3       15 UNK         0.1400 
     86 CB         -7.0150  -26.7596  -48.1938 C.3       15 UNK        -0.1800 
     87 C          -6.4371  -24.4831  -49.2401 C.2       15 UNK         0.5000 
     88 O          -7.3889  -24.6385  -50.0079 O.2       15 UNK        -0.5000 
     89 N          -5.4898  -23.5482  -49.4065 N.am      16 UNK        -0.5000 
     90 CA         -5.2611  -22.6110  -50.5113 C.3       16 UNK         0.1400 
     91 CB         -6.4197  -21.6074  -50.6473 C.3       16 UNK        -0.1800 
     92 C          -4.9398  -23.2812  -51.8623 C.2       16 UNK         0.5000 
     93 O          -4.0018  -22.8564  -52.5369 O.2       16 UNK        -0.5000 
     94 N          -5.7081  -24.3119  -52.2302 N.am      17 UNK        -0.5000 
     95 CA         -5.6760  -25.0131  -53.5117 C.3       17 UNK         0.1400 
     96 CB         -6.8111  -26.0476  -53.5411 C.3       17 UNK        -0.1800 
     97 C          -4.3315  -25.6809  -53.8467 C.2       17 UNK         0.5000 
     98 O          -3.9290  -25.6533  -55.0101 O.2       17 UNK        -0.5000 
     99 N          -3.6565  -26.2607  -52.8426 N.am      18 UNK        -0.5000 
    100 CA        -2.3545  -26.9083  -53.0325 C.3       18 UNK         0.1400 
    101 CB        -2.1539  -28.0043  -51.9742 C.3       18 UNK        -0.1800 
    102 C         -1.1821  -25.9074  -53.0380 C.2       18 UNK         0.5000 
    103 O         -0.1044  -26.2553  -53.5223 O.2       18 UNK        -0.5000 
    104 N         -1.4019  -24.6917  -52.5161 N.am      19 UNK        -0.5000 
    105 CA        -0.4377  -23.5933  -52.5618 C.3       19 UNK         0.1400 
    106 CB        -0.6470  -22.6557  -51.3609 C.3       19 UNK        -0.1800 
    107 C         -0.5530  -22.8320  -53.8915 C.2       19 UNK         0.5000 
    108 O          0.4494  -22.6697  -54.5876 O.2       19 UNK        -0.5000 
    109 N         -1.7815  -22.3977  -54.2167 N.am      20 UNK        -0.5000 
    110 CA        -2.1954  -21.7051  -55.4437 C.3       20 UNK         0.1400 
    111 CB        -2.1194  -22.6647  -56.6486 C.3       20 UNK        -0.1800 
    112 C         -1.4610  -20.3700  -55.7055 C.2       20 UNK         0.5000 
    113 O         -1.3683  -19.9359  -56.8556 O.2       20 UNK        -0.5000 
    114 N         -0.9618  -19.7270  -54.6393 N.am      21 UNK        -0.5000 
    115 CA        -0.1066  -18.5360  -54.6977 C.3       21 UNK         0.1400 
    116 CB         0.4753  -18.2632  -53.3020 C.3       21 UNK        -0.1800 
    117 C         -0.7889  -17.2781  -55.2745 C.2       21 UNK         0.5000 
    118 O         -0.0910  -16.3897  -55.7655 O.2       21 UNK        -0.5000 
    119 N         -2.1269  -17.2357  -55.2352 N.am      22 UNK        -0.5000 
    120 CA        -2.9490  -16.2069  -55.8967 C.3       22 UNK         0.1400 
    121 C         -3.1710  -16.4580  -57.4194 C.2       22 UNK         0.5000 
    122 N         -2.7256  -17.5684  -57.9976 N.am      22 UNK        -0.7600 
    123 O         -3.7533  -15.6173  -58.0994 O.2       22 UNK        -0.5000 
    124 C124       -4.2985  -15.9760  -55.1666 C.3       23 UNK        -0.0398 
    125 S125       -4.0692  -15.4130  -53.4456 S.3       23 UNK        -0.2404 
    126 C126       -4.6557  -16.8621  -52.5183 C.3       23 UNK        -0.0205 
    127 H127       -1.1786  -10.4712  -50.3176 H         1 UNK         0.0600 
    128 H128       -0.5660   -9.4543  -49.0103 H         1 UNK         0.0600 
    129 H129       -2.2170   -9.2360  -49.6005 H         1 UNK         0.0600 
    130 H130       -1.6578  -12.5058  -49.6188 H         1 UNK         0.3000 
    131 H131       -2.3173  -14.2562  -48.5424 H         1 UNK         0.0600 
    132 H132       -4.0097  -12.4433  -46.7533 H         1 UNK         0.0800 
    133 H133       -4.5196  -13.2080  -48.2258 H         1 UNK         0.0800 
    134 H134       -6.1347  -15.1415  -48.0242 H         1 UNK         0.0800 
    135 H135       -5.8037  -16.5902  -47.1055 H         1 UNK         0.0800 
    136 H136       -5.9145  -15.9297  -50.2731 H         1 UNK         0.1150 
    137 H137       -2.2580  -17.7117  -51.6061 H         1 UNK         0.1150 
    138 H138       -2.8069  -16.8354  -47.4556 H         1 UNK         0.1150 
    139 H139       -0.6433  -17.4712  -48.2268 H         1 UNK         0.0800 
    140 H140       -0.2801  -17.4131  -49.9294 H         1 UNK         0.0800 
    141 H141       -3.0938  -20.1543  -48.5193 H         1 UNK         0.0800 
    142 H142       -2.2089  -19.3436  -47.2462 H         1 UNK         0.0800 
    143 H143       -1.4800  -22.1473  -48.1714 H         1 UNK         0.0600 
    144 H144       -0.3337  -20.4630  -46.1896 H         1 UNK         0.3000 
    145 H145        1.3422  -23.1481  -44.4351 H         1 UNK         0.0600 
    146 H146        2.7340  -22.3717  -46.3459 H         1 UNK         0.0600 
    147 H147        3.1746  -21.5247  -44.8697 H         1 UNK         0.0600 
    148 H148        2.1982  -20.7162  -46.0931 H         1 UNK         0.0600 
    149 H149        1.1834  -20.3915  -43.8032 H         1 UNK         0.3000 
    150 H150       -1.6905  -20.5489  -41.6594 H         1 UNK         0.0600 
    151 H151        1.3020  -20.0878  -41.1758 H         1 UNK         0.0600 
    152 H152        0.2868  -21.2370  -40.3162 H         1 UNK         0.0600 
    153 H153       -0.0129  -19.5137  -40.1520 H         1 UNK         0.0600 
    154 H154        0.0241  -18.4064  -42.5119 H         1 UNK         0.3000 
    155 H155       -1.9313  -17.4047  -45.3186 H         1 UNK         0.0600 
    156 H156       -2.1276  -15.3185  -44.1255 H         1 UNK         0.0600 
    157 H157       -1.4810  -16.0113  -42.6335 H         1 UNK         0.0600 
    158 H158       -3.0625  -16.4939  -43.2334 H         1 UNK         0.0600 
    159 H159        0.4481  -16.3714  -44.0571 H         1 UNK         0.3000 
    160 H160        2.7434  -18.3101  -46.0030 H         1 UNK         0.0600 
    161 H161        1.9765  -15.3713  -46.3105 H         1 UNK         0.0600 
    162 H162        1.9587  -16.5554  -47.6098 H         1 UNK         0.0600 
    163 H163        3.4811  -16.1215  -46.8445 H         1 UNK         0.0600 
    164 H164        3.2180  -16.1171  -44.2790 H         1 UNK         0.3000 
    165 H165        3.0911  -17.8589  -41.1823 H         1 UNK         0.0600 
    166 H166        5.2553  -18.7164  -42.1158 H         1 UNK         0.0600 
    167 H167        5.6101  -17.1178  -42.7630 H         1 UNK         0.0600 
    168 H168        5.5096  -17.3668  -41.0203 H         1 UNK         0.0600 
    169 H169        4.2166  -15.3572  -41.6183 H         1 UNK         0.3000 
    170 H170        1.3031  -13.3366  -41.5632 H         1 UNK         0.0600 
    171 H171        2.4650  -12.5275  -39.5292 H         1 UNK         0.0600 
    172 H172        3.4377  -13.9966  -39.4715 H         1 UNK         0.0600 
    173 H173        1.6982  -14.0825  -39.2465 H         1 UNK         0.0600 
    174 H174        2.8157  -12.3306  -42.7563 H         1 UNK         0.3000 
    175 H175        5.5046  -11.2358  -42.7077 H         1 UNK         0.0600 
    176 H176        6.5546  -13.7801  -44.0573 H         1 UNK         0.0600 
    177 H177        7.3447  -12.8688  -42.7787 H         1 UNK         0.0600 
    178 H178        7.1532  -12.1512  -44.3688 H         1 UNK         0.0600 
    179 H179        4.2318  -10.9196  -44.4839 H         1 UNK         0.3000 
    180 H180        2.9578  -11.1177  -46.1940 H         1 UNK         0.0600 
    181 H181        3.1732  -13.7411  -47.7659 H         1 UNK         0.0600 
    182 H182        4.2426  -12.3571  -47.9379 H         1 UNK         0.0600 
    183 H183        2.5464  -12.2105  -48.3723 H         1 UNK         0.0600 
    184 H184        1.0952  -13.2722  -46.5012 H         1 UNK         0.3000 
    185 H185       -0.2993  -13.9668  -44.3086 H         1 UNK         0.0600 
    186 H186       -0.6818  -12.4061  -42.4176 H         1 UNK         0.0600 
    187 H187       -1.4430  -11.2442  -43.4973 H         1 UNK         0.0600 
    188 H188       -2.2025  -12.8059  -43.1928 H         1 UNK         0.0600 
    189 H189       -1.9143  -11.9922  -45.7967 H         1 UNK         0.3000 
    190 H190       -2.7349  -21.1663  -44.9366 H         1 UNK         0.3000 
    191 H191       -5.2914  -22.3565  -45.2273 H         1 UNK         0.0600 
    192 H192       -4.7951  -20.7876  -43.4027 H         1 UNK         0.0600 
    193 H193       -5.3134  -22.3200  -42.7217 H         1 UNK         0.0600 
    194 H194       -3.6073  -21.8927  -42.7129 H         1 UNK         0.0600 
    195 H195       -2.1965  -23.7477  -44.0284 H         1 UNK         0.3000 
    196 H196       -3.1799  -26.3598  -43.4744 H         1 UNK         0.0600 
    197 H197       -0.7621  -26.9803  -43.5071 H         1 UNK         0.0600 
    198 H198       -1.0261  -25.4997  -42.5974 H         1 UNK         0.0600 
    199 H199       -0.3584  -25.4259  -44.2258 H         1 UNK         0.0600 
    200 H200       -1.9584  -24.8849  -46.4622 H         1 UNK         0.3000 
    201 H201       -2.1123  -27.2933  -48.0801 H         1 UNK         0.0600 
    202 H202       -1.5044  -25.7104  -49.8923 H         1 UNK         0.0600 
    203 H203       -0.4960  -25.4078  -48.4916 H         1 UNK         0.0600 
    204 H204       -1.8517  -24.3419  -48.8554 H         1 UNK         0.0600 
    205 H205       -4.5448  -25.3849  -46.7997 H         1 UNK         0.3000 
    206 H206       -6.6641  -24.9084  -47.1703 H         1 UNK         0.0600 
    207 H207       -6.8716  -27.4030  -47.3257 H         1 UNK         0.0600 
    208 H208       -8.0870  -26.5854  -48.2936 H         1 UNK         0.0600 
    209 H209       -6.6890  -27.3099  -49.0770 H         1 UNK         0.0600 
    210 H210       -4.7790  -23.4979  -48.6770 H         1 UNK         0.3000 
    211 H211       -4.3719  -22.0444  -50.2296 H         1 UNK         0.0600 
    212 H212       -6.5905  -21.0762  -49.7110 H         1 UNK         0.0600 
    213 H213       -6.1977  -20.8592  -51.4094 H         1 UNK         0.0600 
    214 H214       -7.3522  -22.0957  -50.9314 H         1 UNK         0.0600 
    215 H215       -6.4402  -24.5864  -51.5792 H         1 UNK         0.3000 
    216 H216       -5.8720  -24.2718  -54.2890 H         1 UNK         0.0600 
    217 H217       -6.6968  -26.7903  -52.7503 H         1 UNK         0.0600 
    218 H218       -6.8331  -26.5797  -54.4931 H         1 UNK         0.0600 
    219 H219       -7.7829  -25.5703  -53.4136 H         1 UNK         0.0600 
    220 H220       -4.0398  -26.2568  -51.9036 H         1 UNK         0.3000 
    221 H221       -2.3500  -27.4050  -54.0053 H         1 UNK         0.0600 
    222 H222       -2.0947  -27.5993  -50.9667 H         1 UNK         0.0600 
    223 H223       -2.9703  -28.7263  -51.9957 H         1 UNK         0.0600 
    224 H224       -1.2300  -28.5545  -52.1562 H         1 UNK         0.0600 
    225 H225       -2.3341  -24.4684  -52.1972 H         1 UNK         0.3000 
    226 H226        0.5760  -23.9940  -52.4917 H         1 UNK         0.0600 
    227 H227       -0.4230  -23.1639  -50.4240 H         1 UNK         0.0600 
    228 H228        0.0177  -21.7929  -51.4211 H         1 UNK         0.0600 
    229 H229       -1.6678  -22.2780  -51.3012 H         1 UNK         0.0600 
    230 H230       -2.5402  -22.5813  -53.5614 H         1 UNK         0.3000 
    231 H231       -3.2446  -21.4443  -55.2987 H         1 UNK         0.0600 
    232 H232       -1.0892  -22.9273  -56.8910 H         1 UNK         0.0600 
    233 H233       -2.5617  -22.2162  -57.5389 H         1 UNK         0.0600 
    234 H234       -2.6625  -23.5886  -56.4503 H         1 UNK         0.0600 
    235 H235       -1.0921  -20.1467  -53.7309 H         1 UNK         0.3000 
    236 H236        0.7269  -18.7715  -55.3628 H         1 UNK         0.0600 
    237 H237       -0.3041  -18.0577  -52.5711 H         1 UNK         0.0600 
    238 H238        1.0540  -19.1144  -52.9427 H         1 UNK         0.0600 
    239 H239        1.1438  -17.4015  -53.3182 H         1 UNK         0.0600 
    240 H240       -2.6194  -18.0134  -54.8246 H         1 UNK         0.3000 
    241 H241       -2.4025  -15.2632  -55.8450 H         1 UNK         0.0600 
    242 H242       -2.2282  -18.2827  -57.4753 H         1 UNK         0.3800 
    243 H243       -2.8784  -17.7002  -58.9848 H         1 UNK         0.3800 
    244 H244       -4.8810  -15.2067  -55.6765 H         1 UNK         0.0800 
    245 H245       -4.9094  -16.8797  -55.1915 H         1 UNK         0.0800 
    246 H246       -5.7463  -16.8892  -52.5365 H         1 UNK         0.0800 
    247 H247       -4.3144  -17.7779  -53.0031 H         1 UNK         0.0800 
@<TRIPOS>BOND
     1    1    2 1    
     2    1  127 1    
     3    1  128 1    
     4    1  129 1    
     5    2    3 2    
     6    2    4 am   BACKBONE|DICT|INTERRES
     7    4    5 1    
     8    4  130 1    
     9    5    6 1    
    10    5   65 1    
    11    5  131 1    
    12    6    7 1    
    13    6  132 1    
    14    6  133 1    
    15    7    8 1    
    16    8    9 1    
    17    8  134 1    
    18    8  135 1    
    19    9   10 ar   
    20    9   14 ar   
    21   10   11 ar   
    22   10  136 1    
    23   11   12 ar   
    24   11  126 1    
    25   12   13 ar   
    26   12  137 1    
    27   13   14 ar   
    28   13   15 1    
    29   14  138 1    
    30   15   16 1    
    31   15  139 1    
    32   15  140 1    
    33   16   17 1    
    34   17   18 1    
    35   17  141 1    
    36   17  142 1    
    37   18   19 1    
    38   18   67 1    
    39   18  143 1    
    40   19   20 am   BACKBONE|DICT|INTERRES
    41   19  144 1    
    42   20   21 2    
    43   20   22 1    
    44   22   23 1    
    45   22   24 1    
    46   22  145 1    
    47   23  146 1    
    48   23  147 1    
    49   23  148 1    
    50   24   25 am   BACKBONE|DICT|INTERRES
    51   24  149 1    
    52   25   26 2    
    53   25   27 1    
    54   27   28 1    
    55   27   29 1    
    56   27  150 1    
    57   28  151 1    
    58   28  152 1    
    59   28  153 1    
    60   29   30 am   BACKBONE|DICT|INTERRES
    61   29  154 1    
    62   30   31 2    
    63   30   32 1    
    64   32   33 1    
    65   32   34 1    
    66   32  155 1    
    67   33  156 1    
    68   33  157 1    
    69   33  158 1    
    70   34   35 am   BACKBONE|DICT|INTERRES
    71   34  159 1    
    72   35   36 2    
    73   35   37 1    
    74   37   38 1    
    75   37   39 1    
    76   37  160 1    
    77   38  161 1    
    78   38  162 1    
    79   38  163 1    
    80   39   40 am   BACKBONE|DICT|INTERRES
    81   39  164 1    
    82   40   41 2    
    83   40   42 1    
    84   42   43 1    
    85   42   44 1    
    86   42  165 1    
    87   43  166 1    
    88   43  167 1    
    89   43  168 1    
    90   44   45 am   BACKBONE|DICT|INTERRES
    91   44  169 1    
    92   45   46 2    
    93   45   47 1    
    94   47   48 1    
    95   47   49 1    
    96   47  170 1    
    97   48  171 1    
    98   48  172 1    
    99   48  173 1    
   100   49   50 am   BACKBONE|DICT|INTERRES
   101   49  174 1    
   102   50   51 2    
   103   50   52 1    
   104   52   53 1    
   105   52   54 1    
   106   52  175 1    
   107   53  176 1    
   108   53  177 1    
   109   53  178 1    
   110   54   55 am   BACKBONE|DICT|INTERRES
   111   54  179 1    
   112   55   56 2    
   113   55   57 1    
   114   57   58 1    
   115   57   59 1    
   116   57  180 1    
   117   58  181 1    
   118   58  182 1    
   119   58  183 1    
   120   59   60 am   BACKBONE|DICT|INTERRES
   121   59  184 1    
   122   60   61 2    
   123   60   62 1    
   124   62   63 1    
   125   62   64 1    
   126   62  185 1    
   127   63  186 1    
   128   63  187 1    
   129   63  188 1    
   130   64   65 am   BACKBONE|DICT|INTERRES
   131   64  189 1    
   132   65   66 2    
   133   67   68 2    
   134   67   69 am   BACKBONE|DICT|INTERRES
   135   69   70 1    
   136   69  190 1    
   137   70   71 1    
   138   70   72 1    
   139   70  191 1    
   140   71  192 1    
   141   71  193 1    
   142   71  194 1    
   143   72   73 2    
   144   72   74 am   BACKBONE|DICT|INTERRES
   145   74   75 1    
   146   74  195 1    
   147   75   76 1    
   148   75   77 1    
   149   75  196 1    
   150   76  197 1    
   151   76  198 1    
   152   76  199 1    
   153   77   78 2    
   154   77   79 am   BACKBONE|DICT|INTERRES
   155   79   80 1    
   156   79  200 1    
   157   80   81 1    
   158   80   82 1    
   159   80  201 1    
   160   81  202 1    
   161   81  203 1    
   162   81  204 1    
   163   82   83 2    
   164   82   84 am   BACKBONE|DICT|INTERRES
   165   84   85 1    
   166   84  205 1    
   167   85   86 1    
   168   85   87 1    
   169   85  206 1    
   170   86  207 1    
   171   86  208 1    
   172   86  209 1    
   173   87   88 2    
   174   87   89 am   BACKBONE|DICT|INTERRES
   175   89   90 1    
   176   89  210 1    
   177   90   91 1    
   178   90   92 1    
   179   90  211 1    
   180   91  212 1    
   181   91  213 1    
   182   91  214 1    
   183   92   93 2    
   184   92   94 am   BACKBONE|DICT|INTERRES
   185   94   95 1    
   186   94  215 1    
   187   95   96 1    
   188   95   97 1    
   189   95  216 1    
   190   96  217 1    
   191   96  218 1    
   192   96  219 1    
   193   97   98 2    
   194   97   99 am   BACKBONE|DICT|INTERRES
   195   99  100 1    
   196   99  220 1    
   197  100  101 1    
   198  100  102 1    
   199  100  221 1    
   200  101  222 1    
   201  101  223 1    
   202  101  224 1    
   203  102  103 2    
   204  102  104 am   BACKBONE|DICT|INTERRES
   205  104  105 1    
   206  104  225 1    
   207  105  106 1    
   208  105  107 1    
   209  105  226 1    
   210  106  227 1    
   211  106  228 1    
   212  106  229 1    
   213  107  108 2    
   214  107  109 am   BACKBONE|DICT|INTERRES
   215  109  110 1    
   216  109  230 1    
   217  110  111 1    
   218  110  112 1    
   219  110  231 1    
   220  111  232 1    
   221  111  233 1    
   222  111  234 1    
   223  112  113 2    
   224  112  114 am   BACKBONE|DICT|INTERRES
   225  114  115 1    
   226  114  235 1    
   227  115  116 1    
   228  115  117 1    
   229  115  236 1    
   230  116  237 1    
   231  116  238 1    
   232  116  239 1    
   233  117  118 2    
   234  117  119 am   BACKBONE|DICT|INTERRES
   235  119  120 1    
   236  119  240 1    
   237  120  121 1    
   238  120  124 1    
   239  120  241 1    
   240  121  122 am   BACKBONE|DICT|INTERRES
   241  121  123 2    
   242  122  242 1    
   243  122  243 1    
   244  124  125 1    
   245  124  244 1    
   246  124  245 1    
   247  125  126 1    
   248  126  246 1    
   249  126  247 1    
@<TRIPOS>SUBSTRUCTURE
     1 UNK         1 GROUP             0       ****    0 ROOT    
