@<TRIPOS>MOLECULE
3R540
247   249    1
SMALL
USER_CHARGES


@<TRIPOS>ATOM
      1 CA         -0.2100  -11.1457  -53.9352 C.3       0 UNK        -0.1800 
      2 C           0.1797  -11.5214  -52.5127 C.2       0 UNK         0.5000 
      3 O           0.4962  -10.6426  -51.7109 O.2       0 UNK        -0.5000 
      4 N           0.1604  -12.8235  -52.2019 N.am      1 UNK        -0.5000 
      5 CA          0.4394  -13.3822  -50.8734 C.3       1 UNK         0.1400 
      6 C6          0.6615  -14.9082  -50.9666 C.3       23 UNK        -0.0398 
      7 S7          1.5020  -15.6361  -49.5270 S.3       23 UNK        -0.2404 
      8 C8          0.7032  -17.2693  -49.4605 C.3       23 UNK        -0.0205 
      9 C9         -0.6591  -17.2269  -48.7814 C.ar      23 UNK        -0.0193 
     10 C10        -1.8396  -17.3172  -49.5271 C.ar      23 UNK        -0.1150 
     11 C11        -3.0906  -17.3467  -48.8929 C.ar      23 UNK        -0.0193 
     12 C12        -3.1324  -17.3400  -47.4962 C.ar      23 UNK        -0.1150 
     13 C13        -1.9604  -17.2895  -46.7402 C.ar      23 UNK        -0.0193 
     14 C14        -0.7316  -17.1743  -47.3889 C.ar      23 UNK        -0.1150 
     15 C15        -2.0275  -17.4193  -45.2287 C.3       23 UNK        -0.0205 
     16 S16        -2.0992  -19.1718  -44.7399 S.3       23 UNK        -0.2404 
     17 C17        -0.3355  -19.6609  -44.6920 C.3       23 UNK        -0.0398 
     18 CA          0.3059  -20.1654  -46.0111 C.3       11 UNK         0.1400 
     19 N           1.6067  -20.7750  -45.7578 N.am      11 UNK        -0.5000 
     20 C           2.5591  -20.9653  -46.6794 C.2       10 UNK         0.5000 
     21 O           2.4494  -20.6327  -47.8600 O.2       10 UNK        -0.5000 
     22 CA          3.8587  -21.6253  -46.1934 C.3       10 UNK         0.1400 
     23 CB          4.7753  -20.5844  -45.5296 C.3       10 UNK        -0.1800 
     24 N           3.5981  -22.7130  -45.2511 N.am      10 UNK        -0.5000 
     25 C           3.2769  -23.9650  -45.6069 C.2       9 UNK         0.5000 
     26 O           3.1737  -24.3384  -46.7757 O.2       9 UNK        -0.5000 
     27 CA          3.0570  -24.9797  -44.4681 C.3       9 UNK         0.1400 
     28 CB          4.3596  -25.7379  -44.1693 C.3       9 UNK        -0.1800 
     29 N           2.5849  -24.3454  -43.2367 N.am      9 UNK        -0.5000 
     30 C           1.3101  -24.0009  -43.0114 C.2       8 UNK         0.5000 
     31 O           0.3883  -24.2613  -43.7815 O.2       8 UNK        -0.5000 
     32 CA          1.0172  -23.2218  -41.7133 C.3       8 UNK         0.1400 
     33 CB          0.5658  -24.1787  -40.6001 C.3       8 UNK        -0.1800 
     34 N           2.1496  -22.4200  -41.2352 N.am      8 UNK        -0.5000 
     35 C           2.6474  -21.3620  -41.8861 C.2       7 UNK         0.5000 
     36 O           2.2258  -20.9734  -42.9791 O.2       7 UNK        -0.5000 
     37 CA          3.8407  -20.6465  -41.2431 C.3       7 UNK         0.1400 
     38 CB          5.1535  -21.3791  -41.5805 C.3       7 UNK        -0.1800 
     39 N           3.8635  -19.2837  -41.7597 N.am      7 UNK        -0.5000 
     40 C           4.5762  -18.2566  -41.2862 C.2       6 UNK         0.5000 
     41 O           5.3632  -18.3397  -40.3426 O.2       6 UNK        -0.5000 
     42 CA          4.3517  -16.8979  -41.9772 C.3       6 UNK         0.1400 
     43 CB          5.2552  -16.7653  -43.2129 C.3       6 UNK        -0.1800 
     44 N           2.9593  -16.6875  -42.3804 N.am      6 UNK        -0.5000 
     45 C           1.9302  -16.5071  -41.5431 C.2       5 UNK         0.5000 
     46 O           2.0536  -16.4599  -40.3179 O.2       5 UNK        -0.5000 
     47 CA          0.5394  -16.3388  -42.1933 C.3       5 UNK         0.1400 
     48 CB         -0.5918  -16.1919  -41.1607 C.3       5 UNK        -0.1800 
     49 N           0.4741  -15.2061  -43.1187 N.am      5 UNK        -0.5000 
     50 C           1.0117  -15.1429  -44.3420 C.2       4 UNK         0.5000 
     51 O           1.6447  -16.0707  -44.8506 O.2       4 UNK        -0.5000 
     52 CA          0.7659  -13.8377  -45.1266 C.3       4 UNK         0.1400 
     53 CB          1.8488  -13.5927  -46.1893 C.3       4 UNK        -0.1800 
     54 N          -0.5499  -13.8272  -45.7717 N.am      4 UNK        -0.5000 
     55 C          -1.7216  -13.7016  -45.1303 C.2       3 UNK         0.5000 
     56 O          -1.8054  -13.5505  -43.9101 O.2       3 UNK        -0.5000 
     57 CA         -3.0033  -13.7233  -45.9858 C.3       3 UNK         0.1400 
     58 CB         -4.2031  -13.0572  -45.2806 C.3       3 UNK        -0.1800 
     59 N          -2.7726  -13.0993  -47.2854 N.am      3 UNK        -0.5000 
     60 C          -3.4995  -13.2967  -48.3897 C.2       2 UNK         0.5000 
     61 O          -4.4552  -14.0693  -48.4538 O.2       2 UNK        -0.5000 
     62 CA         -3.1197  -12.4621  -49.6277 C.3       2 UNK         0.1400 
     63 CB         -3.0313  -10.9556  -49.3088 C.3       2 UNK        -0.1800 
     64 N          -1.9120  -12.9165  -50.3209 N.am      2 UNK        -0.5000 
     65 C          -0.6583  -13.0127  -49.8487 C.2       1 UNK         0.5000 
     66 O          -0.3401  -12.7789  -48.6819 O.2       1 UNK        -0.5000 
     67 C          -0.5777  -21.1265  -46.8267 C.2       11 UNK         0.5000 
     68 O          -0.8878  -22.2197  -46.3523 O.2       11 UNK        -0.5000 
     69 N          -0.9700  -20.7009  -48.0358 N.am      12 UNK        -0.5000 
     70 CA         -1.7359  -21.5108  -48.9829 C.3       12 UNK         0.1400 
     71 CB         -1.7940  -20.8068  -50.3462 C.3       12 UNK        -0.1800 
     72 C          -3.1508  -21.8526  -48.4883 C.2       12 UNK         0.5000 
     73 O          -3.6595  -22.9159  -48.8421 O.2       12 UNK        -0.5000 
     74 N          -3.7540  -20.9713  -47.6773 N.am      13 UNK        -0.5000 
     75 CA         -5.0464  -21.2109  -47.0322 C.3       13 UNK         0.1400 
     76 CB         -5.6131  -19.8974  -46.4733 C.3       13 UNK        -0.1800 
     77 C          -4.9498  -22.2712  -45.9221 C.2       13 UNK         0.5000 
     78 O          -5.8087  -23.1490  -45.8480 O.2       13 UNK        -0.5000 
     79 N          -3.8895  -22.1951  -45.1050 N.am      14 UNK        -0.5000 
     80 CA         -3.5979  -23.1486  -44.0313 C.3       14 UNK         0.1400 
     81 CB         -2.5049  -22.5740  -43.1207 C.3       14 UNK        -0.1800 
     82 C          -3.1995  -24.5351  -44.5703 C.2       14 UNK         0.5000 
     83 O          -3.5977  -25.5495  -43.9968 O.2       14 UNK        -0.5000 
     84 N          -2.4750  -24.5503  -45.6971 N.am      15 UNK        -0.5000 
     85 CA         -2.1295  -25.7480  -46.4641 C.3       15 UNK         0.1400 
     86 CB         -0.9871  -25.3976  -47.4306 C.3       15 UNK        -0.1800 
     87 C          -3.3238  -26.3515  -47.2367 C.2       15 UNK         0.5000 
     88 O          -3.2027  -27.4666  -47.7451 O.2       15 UNK        -0.5000 
     89 N          -4.4392  -25.6087  -47.3214 N.am      16 UNK        -0.5000 
     90 CA         -5.6898  -25.9295  -48.0188 C.3       16 UNK         0.1400 
     91 CB         -6.3764  -27.1579  -47.3863 C.3       16 UNK        -0.1800 
     92 C          -5.5263  -26.0458  -49.5496 C.2       16 UNK         0.5000 
     93 O          -6.2675  -26.7882  -50.1966 O.2       16 UNK        -0.5000 
     94 N          -4.5642  -25.2973  -50.1004 N.am      17 UNK        -0.5000 
     95 CA         -4.2942  -25.1919  -51.5309 C.3       17 UNK         0.1400 
     96 CB         -2.7760  -25.0745  -51.7479 C.3       17 UNK        -0.1800 
     97 C          -5.0272  -23.9798  -52.1264 C.2       17 UNK         0.5000 
     98 O          -5.7177  -24.1243  -53.1359 O.2       17 UNK        -0.5000 
     99 N          -4.8706  -22.8216  -51.4656 N.am      18 UNK        -0.5000 
    100 CA        -5.4005  -21.5002  -51.8161 C.3       18 UNK         0.1400 
    101 CB        -6.8855  -21.4139  -51.4024 C.3       18 UNK        -0.1800 
    102 C         -5.1189  -21.1065  -53.2875 C.2       18 UNK         0.5000 
    103 O         -3.9890  -21.2769  -53.7512 O.2       18 UNK        -0.5000 
    104 N         -6.1472  -20.6102  -53.9907 N.am      19 UNK        -0.5000 
    105 CA        -6.1708  -20.2802  -55.4180 C.3       19 UNK         0.1400 
    106 CB        -6.0848  -21.5732  -56.2622 C.3       19 UNK        -0.1800 
    107 C         -5.1398  -19.1980  -55.8101 C.2       19 UNK         0.5000 
    108 O         -4.9850  -18.2131  -55.0847 O.2       19 UNK        -0.5000 
    109 N         -4.4752  -19.3807  -56.9604 N.am      20 UNK        -0.5000 
    110 CA        -3.5499  -18.4312  -57.5868 C.3       20 UNK         0.1400 
    111 CB        -3.1051  -18.9933  -58.9455 C.3       20 UNK        -0.1800 
    112 C         -2.3230  -18.0620  -56.7317 C.2       20 UNK         0.5000 
    113 O         -1.7759  -16.9719  -56.9070 O.2       20 UNK        -0.5000 
    114 N         -1.9375  -18.9436  -55.7968 N.am      21 UNK        -0.5000 
    115 CA        -0.8634  -18.7208  -54.8246 C.3       21 UNK         0.1400 
    116 CB        -0.6391  -20.0071  -54.0152 C.3       21 UNK        -0.1800 
    117 C         -1.1269  -17.5343  -53.8764 C.2       21 UNK         0.5000 
    118 O         -0.1740  -16.9637  -53.3468 O.2       21 UNK        -0.5000 
    119 N         -2.4033  -17.1761  -53.6918 N.am      22 UNK        -0.5000 
    120 CA        -2.8465  -16.0306  -52.8879 C.3       22 UNK         0.1400 
    121 C         -2.7560  -14.6619  -53.6182 C.2       22 UNK         0.5000 
    122 N         -2.4572  -14.6066  -54.9110 N.am      22 UNK        -0.7600 
    123 O         -2.9131  -13.6240  -52.9821 O.2       22 UNK        -0.5000 
    124 C124       -4.2407  -16.2663  -52.2590 C.3       23 UNK        -0.0398 
    125 S125       -4.3666  -17.8783  -51.4014 S.3       23 UNK        -0.2404 
    126 C126       -4.4268  -17.4129  -49.6396 C.3       23 UNK        -0.0205 
    127 H127        0.6054  -10.6087  -54.4198 H         1 UNK         0.0600 
    128 H128       -0.4439  -12.0247  -54.5364 H         1 UNK         0.0600 
    129 H129       -1.0878  -10.4997  -53.9240 H         1 UNK         0.0600 
    130 H130       -0.1097  -13.4884  -52.9126 H         1 UNK         0.3000 
    131 H131        1.3703  -12.9283  -50.5265 H         1 UNK         0.0600 
    132 H132        1.2782  -15.1423  -51.8356 H         1 UNK         0.0800 
    133 H133       -0.2838  -15.4187  -51.1259 H         1 UNK         0.0800 
    134 H134        1.3550  -17.9501  -48.9103 H         1 UNK         0.0800 
    135 H135        0.6231  -17.6812  -50.4683 H         1 UNK         0.0800 
    136 H136       -1.7690  -17.3981  -50.5984 H         1 UNK         0.1150 
    137 H137       -4.0861  -17.3959  -46.9909 H         1 UNK         0.1150 
    138 H138        0.1786  -17.1048  -46.8100 H         1 UNK         0.1150 
    139 H139       -1.1787  -16.9305  -44.7551 H         1 UNK         0.0800 
    140 H140       -2.9190  -16.9147  -44.8539 H         1 UNK         0.0800 
    141 H141       -0.2593  -20.4406  -43.9333 H         1 UNK         0.0800 
    142 H142        0.2564  -18.8308  -44.3111 H         1 UNK         0.0800 
    143 H143        0.5058  -19.2958  -46.6305 H         1 UNK         0.0600 
    144 H144        1.7903  -21.0560  -44.7989 H         1 UNK         0.3000 
    145 H145        4.3805  -22.0253  -47.0657 H         1 UNK         0.0600 
    146 H146        5.7208  -21.0307  -45.2215 H         1 UNK         0.0600 
    147 H147        5.0094  -19.7747  -46.2218 H         1 UNK         0.0600 
    148 H148        4.3124  -20.1368  -44.6498 H         1 UNK         0.0600 
    149 H149        3.6087  -22.4766  -44.2709 H         1 UNK         0.3000 
    150 H150        2.3128  -25.7042  -44.8064 H         1 UNK         0.0600 
    151 H151        4.7301  -26.2439  -45.0619 H         1 UNK         0.0600 
    152 H152        4.2055  -26.5004  -43.4056 H         1 UNK         0.0600 
    153 H153        5.1467  -25.0675  -43.8215 H         1 UNK         0.0600 
    154 H154        3.2773  -24.1251  -42.5366 H         1 UNK         0.3000 
    155 H155        0.1947  -22.5361  -41.9249 H         1 UNK         0.0600 
    156 H156        1.3577  -24.8752  -40.3220 H         1 UNK         0.0600 
    157 H157       -0.2945  -24.7691  -40.9185 H         1 UNK         0.0600 
    158 H158        0.2685  -23.6313  -39.7054 H         1 UNK         0.0600 
    159 H159        2.5514  -22.6898  -40.3485 H         1 UNK         0.3000 
    160 H160        3.6953  -20.6160  -40.1615 H         1 UNK         0.0600 
    161 H161        6.0107  -20.9008  -41.1070 H         1 UNK         0.0600 
    162 H162        5.3382  -21.4021  -42.6546 H         1 UNK         0.0600 
    163 H163        5.1302  -22.4110  -41.2284 H         1 UNK         0.0600 
    164 H164        3.2185  -19.1293  -42.5243 H         1 UNK         0.3000 
    165 H165        4.6232  -16.1132  -41.2679 H         1 UNK         0.0600 
    166 H166        5.1573  -15.7798  -43.6687 H         1 UNK         0.0600 
    167 H167        6.3045  -16.8972  -42.9458 H         1 UNK         0.0600 
    168 H168        5.0127  -17.5107  -43.9716 H         1 UNK         0.0600 
    169 H169        2.7623  -16.6618  -43.3770 H         1 UNK         0.3000 
    170 H170        0.3441  -17.2524  -42.7527 H         1 UNK         0.0600 
    171 H171       -0.6111  -17.0405  -40.4757 H         1 UNK         0.0600 
    172 H172       -0.4767  -15.2868  -40.5631 H         1 UNK         0.0600 
    173 H173       -1.5659  -16.1496  -41.6489 H         1 UNK         0.0600 
    174 H174       -0.0890  -14.4200  -42.8182 H         1 UNK         0.3000 
    175 H175        0.8106  -13.0076  -44.4183 H         1 UNK         0.0600 
    176 H176        1.8472  -14.3727  -46.9494 H         1 UNK         0.0600 
    177 H177        1.7012  -12.6365  -46.6916 H         1 UNK         0.0600 
    178 H178        2.8420  -13.5754  -45.7392 H         1 UNK         0.0600 
    179 H179       -0.5493  -13.9302  -46.7794 H         1 UNK         0.3000 
    180 H180       -3.2471  -14.7733  -46.1478 H         1 UNK         0.0600 
    181 H181       -4.0145  -12.0008  -45.0867 H         1 UNK         0.0600 
    182 H182       -4.4147  -13.5370  -44.3243 H         1 UNK         0.0600 
    183 H183       -5.1105  -13.1308  -45.8798 H         1 UNK         0.0600 
    184 H184       -1.9516  -12.5091  -47.3632 H         1 UNK         0.3000 
    185 H185       -3.9329  -12.5894  -50.3442 H         1 UNK         0.0600 
    186 H186       -3.9380  -10.6077  -48.8122 H         1 UNK         0.0600 
    187 H187       -2.1893  -10.7176  -48.6585 H         1 UNK         0.0600 
    188 H188       -2.9171  -10.3711  -50.2219 H         1 UNK         0.0600 
    189 H189       -2.0620  -13.1286  -51.3033 H         1 UNK         0.3000 
    190 H190       -0.6859  -19.7856  -48.3532 H         1 UNK         0.3000 
    191 H191       -1.1975  -22.4508  -49.1167 H         1 UNK         0.0600 
    192 H192       -2.4095  -19.9096  -50.3102 H         1 UNK         0.0600 
    193 H193       -2.2232  -21.4618  -51.1053 H         1 UNK         0.0600 
    194 H194       -0.8004  -20.5212  -50.6921 H         1 UNK         0.0600 
    195 H195       -3.2660  -20.1208  -47.4365 H         1 UNK         0.3000 
    196 H196       -5.7430  -21.5828  -47.7870 H         1 UNK         0.0600 
    197 H197       -6.5566  -20.0710  -45.9541 H         1 UNK         0.0600 
    198 H198       -5.8165  -19.1837  -47.2690 H         1 UNK         0.0600 
    199 H199       -4.9322  -19.4293  -45.7625 H         1 UNK         0.0600 
    200 H200       -3.2144  -21.4575  -45.2485 H         1 UNK         0.3000 
    201 H201       -4.5037  -23.2733  -43.4342 H         1 UNK         0.0600 
    202 H202       -2.8151  -21.6285  -42.6757 H         1 UNK         0.0600 
    203 H203       -1.5827  -22.3990  -43.6735 H         1 UNK         0.0600 
    204 H204       -2.2751  -23.2609  -42.3054 H         1 UNK         0.0600 
    205 H205       -2.0964  -23.6702  -46.0382 H         1 UNK         0.3000 
    206 H206       -1.7684  -26.5077  -45.7682 H         1 UNK         0.0600 
    207 H207       -0.1267  -24.9938  -46.8953 H         1 UNK         0.0600 
    208 H208       -0.6476  -26.2799  -47.9742 H         1 UNK         0.0600 
    209 H209       -1.3010  -24.6585  -48.1678 H         1 UNK         0.0600 
    210 H210       -4.4266  -24.7044  -46.8688 H         1 UNK         0.3000 
    211 H211       -6.3459  -25.0731  -47.8580 H         1 UNK         0.0600 
    212 H212       -5.8174  -28.0756  -47.5702 H         1 UNK         0.0600 
    213 H213       -7.3780  -27.2992  -47.7939 H         1 UNK         0.0600 
    214 H214       -6.4808  -27.0380  -46.3079 H         1 UNK         0.0600 
    215 H215       -4.0602  -24.6560  -49.4950 H         1 UNK         0.3000 
    216 H216       -4.6407  -26.0899  -52.0468 H         1 UNK         0.0600 
    217 H217       -2.5401  -24.9764  -52.8083 H         1 UNK         0.0600 
    218 H218       -2.2589  -25.9607  -51.3794 H         1 UNK         0.0600 
    219 H219       -2.3559  -24.2079  -51.2358 H         1 UNK         0.0600 
    220 H220       -4.3156  -22.8484  -50.6171 H         1 UNK         0.3000 
    221 H221       -4.8485  -20.7876  -51.2032 H         1 UNK         0.0600 
    222 H222       -7.5106  -22.0868  -51.9908 H         1 UNK         0.0600 
    223 H223       -7.0110  -21.6819  -50.3531 H         1 UNK         0.0600 
    224 H224       -7.2731  -20.4009  -51.5170 H         1 UNK         0.0600 
    225 H225       -7.0210  -20.4732  -53.5040 H         1 UNK         0.3000 
    226 H226       -7.1486  -19.8347  -55.6051 H         1 UNK         0.0600 
    227 H227       -6.8295  -22.2997  -55.9363 H         1 UNK         0.0600 
    228 H228       -6.2781  -21.3767  -57.3174 H         1 UNK         0.0600 
    229 H229       -5.1070  -22.0498  -56.1810 H         1 UNK         0.0600 
    230 H230       -4.6585  -20.2267  -57.4801 H         1 UNK         0.3000 
    231 H231       -4.1042  -17.5076  -57.7651 H         1 UNK         0.0600 
    232 H232       -3.9585  -19.1613  -59.6028 H         1 UNK         0.0600 
    233 H233       -2.5739  -19.9395  -58.8343 H         1 UNK         0.0600 
    234 H234       -2.4361  -18.2995  -59.4565 H         1 UNK         0.0600 
    235 H235       -2.4681  -19.7977  -55.6956 H         1 UNK         0.3000 
    236 H236        0.0495  -18.4997  -55.3812 H         1 UNK         0.0600 
    237 H237        0.1943  -19.8914  -53.3210 H         1 UNK         0.0600 
    238 H238       -1.5190  -20.2680  -53.4267 H         1 UNK         0.0600 
    239 H239       -0.4063  -20.8505  -54.6653 H         1 UNK         0.0600 
    240 H240       -3.1376  -17.6933  -54.1625 H         1 UNK         0.3000 
    241 H241       -2.1585  -15.9219  -52.0572 H         1 UNK         0.0600 
    242 H242       -2.4025  -13.7102  -55.3670 H         1 UNK         0.3800 
    243 H243       -2.2823  -15.4488  -55.4447 H         1 UNK         0.3800 
    244 H244       -4.4868  -15.4609  -51.5650 H         1 UNK         0.0800 
    245 H245       -5.0084  -16.2445  -53.0342 H         1 UNK         0.0800 
    246 H246       -4.9510  -16.4643  -49.5248 H         1 UNK         0.0800 
    247 H247       -5.0532  -18.1590  -49.1526 H         1 UNK         0.0800 
@<TRIPOS>BOND
     1    1    2 1    
     2    1  127 1    
     3    1  128 1    
     4    1  129 1    
     5    2    3 2    
     6    2    4 am   BACKBONE|DICT|INTERRES
     7    4    5 1    
     8    4  130 1    
     9    5    6 1    
    10    5   65 1    
    11    5  131 1    
    12    6    7 1    
    13    6  132 1    
    14    6  133 1    
    15    7    8 1    
    16    8    9 1    
    17    8  134 1    
    18    8  135 1    
    19    9   10 ar   
    20    9   14 ar   
    21   10   11 ar   
    22   10  136 1    
    23   11   12 ar   
    24   11  126 1    
    25   12   13 ar   
    26   12  137 1    
    27   13   14 ar   
    28   13   15 1    
    29   14  138 1    
    30   15   16 1    
    31   15  139 1    
    32   15  140 1    
    33   16   17 1    
    34   17   18 1    
    35   17  141 1    
    36   17  142 1    
    37   18   19 1    
    38   18   67 1    
    39   18  143 1    
    40   19   20 am   BACKBONE|DICT|INTERRES
    41   19  144 1    
    42   20   21 2    
    43   20   22 1    
    44   22   23 1    
    45   22   24 1    
    46   22  145 1    
    47   23  146 1    
    48   23  147 1    
    49   23  148 1    
    50   24   25 am   BACKBONE|DICT|INTERRES
    51   24  149 1    
    52   25   26 2    
    53   25   27 1    
    54   27   28 1    
    55   27   29 1    
    56   27  150 1    
    57   28  151 1    
    58   28  152 1    
    59   28  153 1    
    60   29   30 am   BACKBONE|DICT|INTERRES
    61   29  154 1    
    62   30   31 2    
    63   30   32 1    
    64   32   33 1    
    65   32   34 1    
    66   32  155 1    
    67   33  156 1    
    68   33  157 1    
    69   33  158 1    
    70   34   35 am   BACKBONE|DICT|INTERRES
    71   34  159 1    
    72   35   36 2    
    73   35   37 1    
    74   37   38 1    
    75   37   39 1    
    76   37  160 1    
    77   38  161 1    
    78   38  162 1    
    79   38  163 1    
    80   39   40 am   BACKBONE|DICT|INTERRES
    81   39  164 1    
    82   40   41 2    
    83   40   42 1    
    84   42   43 1    
    85   42   44 1    
    86   42  165 1    
    87   43  166 1    
    88   43  167 1    
    89   43  168 1    
    90   44   45 am   BACKBONE|DICT|INTERRES
    91   44  169 1    
    92   45   46 2    
    93   45   47 1    
    94   47   48 1    
    95   47   49 1    
    96   47  170 1    
    97   48  171 1    
    98   48  172 1    
    99   48  173 1    
   100   49   50 am   BACKBONE|DICT|INTERRES
   101   49  174 1    
   102   50   51 2    
   103   50   52 1    
   104   52   53 1    
   105   52   54 1    
   106   52  175 1    
   107   53  176 1    
   108   53  177 1    
   109   53  178 1    
   110   54   55 am   BACKBONE|DICT|INTERRES
   111   54  179 1    
   112   55   56 2    
   113   55   57 1    
   114   57   58 1    
   115   57   59 1    
   116   57  180 1    
   117   58  181 1    
   118   58  182 1    
   119   58  183 1    
   120   59   60 am   BACKBONE|DICT|INTERRES
   121   59  184 1    
   122   60   61 2    
   123   60   62 1    
   124   62   63 1    
   125   62   64 1    
   126   62  185 1    
   127   63  186 1    
   128   63  187 1    
   129   63  188 1    
   130   64   65 am   BACKBONE|DICT|INTERRES
   131   64  189 1    
   132   65   66 2    
   133   67   68 2    
   134   67   69 am   BACKBONE|DICT|INTERRES
   135   69   70 1    
   136   69  190 1    
   137   70   71 1    
   138   70   72 1    
   139   70  191 1    
   140   71  192 1    
   141   71  193 1    
   142   71  194 1    
   143   72   73 2    
   144   72   74 am   BACKBONE|DICT|INTERRES
   145   74   75 1    
   146   74  195 1    
   147   75   76 1    
   148   75   77 1    
   149   75  196 1    
   150   76  197 1    
   151   76  198 1    
   152   76  199 1    
   153   77   78 2    
   154   77   79 am   BACKBONE|DICT|INTERRES
   155   79   80 1    
   156   79  200 1    
   157   80   81 1    
   158   80   82 1    
   159   80  201 1    
   160   81  202 1    
   161   81  203 1    
   162   81  204 1    
   163   82   83 2    
   164   82   84 am   BACKBONE|DICT|INTERRES
   165   84   85 1    
   166   84  205 1    
   167   85   86 1    
   168   85   87 1    
   169   85  206 1    
   170   86  207 1    
   171   86  208 1    
   172   86  209 1    
   173   87   88 2    
   174   87   89 am   BACKBONE|DICT|INTERRES
   175   89   90 1    
   176   89  210 1    
   177   90   91 1    
   178   90   92 1    
   179   90  211 1    
   180   91  212 1    
   181   91  213 1    
   182   91  214 1    
   183   92   93 2    
   184   92   94 am   BACKBONE|DICT|INTERRES
   185   94   95 1    
   186   94  215 1    
   187   95   96 1    
   188   95   97 1    
   189   95  216 1    
   190   96  217 1    
   191   96  218 1    
   192   96  219 1    
   193   97   98 2    
   194   97   99 am   BACKBONE|DICT|INTERRES
   195   99  100 1    
   196   99  220 1    
   197  100  101 1    
   198  100  102 1    
   199  100  221 1    
   200  101  222 1    
   201  101  223 1    
   202  101  224 1    
   203  102  103 2    
   204  102  104 am   BACKBONE|DICT|INTERRES
   205  104  105 1    
   206  104  225 1    
   207  105  106 1    
   208  105  107 1    
   209  105  226 1    
   210  106  227 1    
   211  106  228 1    
   212  106  229 1    
   213  107  108 2    
   214  107  109 am   BACKBONE|DICT|INTERRES
   215  109  110 1    
   216  109  230 1    
   217  110  111 1    
   218  110  112 1    
   219  110  231 1    
   220  111  232 1    
   221  111  233 1    
   222  111  234 1    
   223  112  113 2    
   224  112  114 am   BACKBONE|DICT|INTERRES
   225  114  115 1    
   226  114  235 1    
   227  115  116 1    
   228  115  117 1    
   229  115  236 1    
   230  116  237 1    
   231  116  238 1    
   232  116  239 1    
   233  117  118 2    
   234  117  119 am   BACKBONE|DICT|INTERRES
   235  119  120 1    
   236  119  240 1    
   237  120  121 1    
   238  120  124 1    
   239  120  241 1    
   240  121  122 am   BACKBONE|DICT|INTERRES
   241  121  123 2    
   242  122  242 1    
   243  122  243 1    
   244  124  125 1    
   245  124  244 1    
   246  124  245 1    
   247  125  126 1    
   248  126  246 1    
   249  126  247 1    
@<TRIPOS>SUBSTRUCTURE
     1 UNK         1 GROUP             0       ****    0 ROOT    
