@<TRIPOS>MOLECULE
3R540
247   249    1
SMALL
USER_CHARGES


@<TRIPOS>ATOM
      1 CA         -6.2302  -16.0595  -47.9197 C.3       0 UNK        -0.1800 
      2 C          -5.4403  -15.1392  -48.8398 C.2       0 UNK         0.5000 
      3 O          -6.0278  -14.4841  -49.7016 O.2       0 UNK        -0.5000 
      4 N          -4.1151  -15.0914  -48.6578 N.am      1 UNK        -0.5000 
      5 CA         -3.1761  -14.2492  -49.4057 C.3       1 UNK         0.1400 
      6 C6         -1.7043  -14.5441  -49.0209 C.3       23 UNK        -0.0398 
      7 S7         -1.2192  -16.2780  -49.2921 S.3       23 UNK        -0.2404 
      8 C8          0.4878  -16.2247  -48.6619 C.3       23 UNK        -0.0205 
      9 C9          1.2093  -17.5446  -48.8849 C.ar      23 UNK        -0.0193 
     10 C10         1.4952  -17.9681  -50.1855 C.ar      23 UNK        -0.1150 
     11 C11         2.1516  -19.1800  -50.4087 C.ar      23 UNK        -0.0193 
     12 C12         2.5407  -19.9648  -49.3216 C.ar      23 UNK        -0.1150 
     13 C13         2.2658  -19.5510  -48.0160 C.ar      23 UNK        -0.0193 
     14 C14         1.6001  -18.3389  -47.8018 C.ar      23 UNK        -0.1150 
     15 C15         2.6800  -20.4221  -46.8417 C.3       23 UNK        -0.0205 
     16 S16         1.3027  -21.4579  -46.2635 S.3       23 UNK        -0.2404 
     17 C17         1.1323  -22.6556  -47.6328 C.3       23 UNK        -0.0398 
     18 CA          0.3572  -23.9429  -47.2601 C.3       11 UNK         0.1400 
     19 N           0.9823  -24.6802  -46.1554 N.am      11 UNK        -0.5000 
     20 C           0.7352  -25.9681  -45.8788 C.2       10 UNK         0.5000 
     21 O          -0.0632  -26.6600  -46.5097 O.2       10 UNK        -0.5000 
     22 CA          1.4773  -26.5744  -44.6757 C.3       10 UNK         0.1400 
     23 CB          2.9540  -26.8282  -45.0153 C.3       10 UNK        -0.1800 
     24 N           1.3893  -25.7498  -43.4701 N.am      10 UNK        -0.5000 
     25 C           0.2535  -25.4769  -42.8120 C.2       9 UNK         0.5000 
     26 O          -0.8577  -25.8486  -43.1823 O.2       9 UNK        -0.5000 
     27 CA          0.3751  -24.6211  -41.5384 C.3       9 UNK         0.1400 
     28 CB          0.6612  -25.5075  -40.3171 C.3       9 UNK        -0.1800 
     29 N           1.4077  -23.5894  -41.6449 N.am      9 UNK        -0.5000 
     30 C           1.3410  -22.5552  -42.4912 C.2       8 UNK         0.5000 
     31 O           0.3911  -22.3588  -43.2534 O.2       8 UNK        -0.5000 
     32 CA          2.5500  -21.6108  -42.5027 C.3       8 UNK         0.1400 
     33 CB          3.7241  -22.2338  -43.2779 C.3       8 UNK        -0.1800 
     34 N           2.1712  -20.3543  -43.1401 N.am      8 UNK        -0.5000 
     35 C           2.4798  -19.1378  -42.6860 C.2       7 UNK         0.5000 
     36 O           3.1667  -18.9362  -41.6788 O.2       7 UNK        -0.5000 
     37 CA          1.9299  -17.9442  -43.4852 C.3       7 UNK         0.1400 
     38 CB          0.3886  -17.9043  -43.4678 C.3       7 UNK        -0.1800 
     39 N           2.4841  -16.7261  -42.9045 N.am      7 UNK        -0.5000 
     40 C           2.5172  -15.5138  -43.4602 C.2       6 UNK         0.5000 
     41 O           2.0278  -15.2392  -44.5600 O.2       6 UNK        -0.5000 
     42 CA          3.2410  -14.4292  -42.6495 C.3       6 UNK         0.1400 
     43 CB          4.7634  -14.4945  -42.8617 C.3       6 UNK        -0.1800 
     44 N           2.7421  -13.1276  -43.0690 N.am      6 UNK        -0.5000 
     45 C           2.6387  -12.0379  -42.3008 C.2       5 UNK         0.5000 
     46 O           3.0439  -11.9792  -41.1390 O.2       5 UNK        -0.5000 
     47 CA          1.9577  -10.8054  -42.9304 C.3       5 UNK         0.1400 
     48 CB          3.0091   -9.7854  -43.3937 C.3       5 UNK        -0.1800 
     49 N           1.0937  -11.1399  -44.0652 N.am      5 UNK        -0.5000 
     50 C          -0.0740  -11.7883  -43.9888 C.2       4 UNK         0.5000 
     51 O          -0.5911  -12.1243  -42.9217 O.2       4 UNK        -0.5000 
     52 CA         -0.7706  -12.1040  -45.3318 C.3       4 UNK         0.1400 
     53 CB         -2.0017  -13.0097  -45.1423 C.3       4 UNK        -0.1800 
     54 N          -1.1755  -10.8991  -46.0635 N.am      4 UNK        -0.5000 
     55 C          -0.3582  -10.0233  -46.6671 C.2       3 UNK         0.5000 
     56 O           0.8690  -10.1437  -46.6948 O.2       3 UNK        -0.5000 
     57 CA         -1.0455   -8.8318  -47.3702 C.3       3 UNK         0.1400 
     58 CB         -0.0480   -7.8666  -48.0454 C.3       3 UNK        -0.1800 
     59 N          -2.0761   -9.2684  -48.3206 N.am      3 UNK        -0.5000 
     60 C          -1.8969  -10.0696  -49.3805 C.2       2 UNK         0.5000 
     61 O          -0.8035  -10.5047  -49.7499 O.2       2 UNK        -0.5000 
     62 CA         -3.1628  -10.4872  -50.1499 C.3       2 UNK         0.1400 
     63 CB         -3.1785   -9.8816  -51.5621 C.3       2 UNK        -0.1800 
     64 N          -3.2109  -11.9450  -50.2449 N.am      2 UNK        -0.5000 
     65 C          -3.4623  -12.7465  -49.2023 C.2       1 UNK         0.5000 
     66 O          -3.8437  -12.3325  -48.1041 O.2       1 UNK        -0.5000 
     67 C          -1.1451  -23.6787  -47.0207 C.2       11 UNK         0.5000 
     68 O          -1.9060  -23.5982  -47.9880 O.2       11 UNK        -0.5000 
     69 N          -1.5469  -23.5792  -45.7454 N.am      12 UNK        -0.5000 
     70 CA         -2.9402  -23.4880  -45.3207 C.3       12 UNK         0.1400 
     71 CB         -3.0056  -22.9756  -43.8743 C.3       12 UNK        -0.1800 
     72 C          -3.6686  -24.8356  -45.4704 C.2       12 UNK         0.5000 
     73 O          -4.7598  -24.8675  -46.0374 O.2       12 UNK        -0.5000 
     74 N          -3.0447  -25.9270  -45.0006 N.am      13 UNK        -0.5000 
     75 CA         -3.5692  -27.2950  -45.0777 C.3       13 UNK         0.1400 
     76 CB         -2.6866  -28.2367  -44.2449 C.3       13 UNK        -0.1800 
     77 C          -3.6980  -27.8161  -46.5199 C.2       13 UNK         0.5000 
     78 O          -4.6708  -28.5027  -46.8339 O.2       13 UNK        -0.5000 
     79 N          -2.7392  -27.4465  -47.3800 N.am      14 UNK        -0.5000 
     80 CA         -2.7618  -27.7089  -48.8212 C.3       14 UNK         0.1400 
     81 CB         -1.3531  -27.4684  -49.3875 C.3       14 UNK        -0.1800 
     82 C          -3.7913  -26.8495  -49.5848 C.2       14 UNK         0.5000 
     83 O          -4.0532  -27.1276  -50.7549 O.2       14 UNK        -0.5000 
     84 N          -4.3197  -25.8062  -48.9260 N.am      15 UNK        -0.5000 
     85 CA         -5.2441  -24.7819  -49.4232 C.3       15 UNK         0.1400 
     86 CB         -6.5745  -25.4014  -49.8951 C.3       15 UNK        -0.1800 
     87 C          -4.6300  -23.8391  -50.4775 C.2       15 UNK         0.5000 
     88 O          -5.3520  -23.0269  -51.0555 O.2       15 UNK        -0.5000 
     89 N          -3.3090  -23.9189  -50.6808 N.am      16 UNK        -0.5000 
     90 CA         -2.5490  -23.1049  -51.6248 C.3       16 UNK         0.1400 
     91 CB         -1.1232  -23.6636  -51.7383 C.3       16 UNK        -0.1800 
     92 C          -2.5353  -21.6221  -51.2236 C.2       16 UNK         0.5000 
     93 O          -2.7465  -20.7635  -52.0803 O.2       16 UNK        -0.5000 
     94 N          -2.3476  -21.3587  -49.9225 N.am      17 UNK        -0.5000 
     95 CA         -2.4169  -20.0170  -49.3426 C.3       17 UNK         0.1400 
     96 CB         -1.6669  -19.9956  -48.0052 C.3       17 UNK        -0.1800 
     97 C          -3.8656  -19.5389  -49.1481 C.2       17 UNK         0.5000 
     98 O          -4.1176  -18.3387  -49.2211 O.2       17 UNK        -0.5000 
     99 N          -4.7962  -20.4780  -48.9211 N.am      18 UNK        -0.5000 
    100 CA        -6.2247  -20.1990  -48.7526 C.3       18 UNK         0.1400 
    101 CB        -6.9340  -21.4396  -48.1885 C.3       18 UNK        -0.1800 
    102 C         -6.8820  -19.7370  -50.0655 C.2       18 UNK         0.5000 
    103 O         -7.6654  -18.7878  -50.0561 O.2       18 UNK        -0.5000 
    104 N         -6.5237  -20.3967  -51.1748 N.am      19 UNK        -0.5000 
    105 CA        -6.9090  -20.0043  -52.5300 C.3       19 UNK         0.1400 
    106 CB        -6.7648  -21.2241  -53.4537 C.3       19 UNK        -0.1800 
    107 C         -6.0673  -18.8317  -53.0705 C.2       19 UNK         0.5000 
    108 O         -6.5004  -18.1696  -54.0142 O.2       19 UNK        -0.5000 
    109 N         -4.8744  -18.6273  -52.4882 N.am      20 UNK        -0.5000 
    110 CA        -3.8028  -17.7243  -52.9254 C.3       20 UNK         0.1400 
    111 CB        -4.2291  -16.2505  -52.7752 C.3       20 UNK        -0.1800 
    112 C         -3.3090  -18.0834  -54.3443 C.2       20 UNK         0.5000 
    113 O         -3.1021  -17.2030  -55.1815 O.2       20 UNK        -0.5000 
    114 N         -3.1866  -19.3933  -54.5939 N.am      21 UNK        -0.5000 
    115 CA        -2.8797  -19.9760  -55.8975 C.3       21 UNK         0.1400 
    116 CB        -3.4286  -21.4109  -55.9385 C.3       21 UNK        -0.1800 
    117 C         -1.3749  -19.9636  -56.2076 C.2       21 UNK         0.5000 
    118 O         -0.9946  -19.7884  -57.3663 O.2       21 UNK        -0.5000 
    119 N         -0.5513  -20.1624  -55.1734 N.am      22 UNK        -0.5000 
    120 CA         0.9140  -20.1168  -55.2473 C.3       22 UNK         0.1400 
    121 C          1.4776  -18.6669  -55.2739 C.2       22 UNK         0.5000 
    122 N          2.7048  -18.4859  -55.7437 N.am      22 UNK        -0.7600 
    123 O          0.8330  -17.7082  -54.8541 O.2       22 UNK        -0.5000 
    124 C124        1.5637  -20.9871  -54.1400 C.3       23 UNK        -0.0398 
    125 S125        1.0000  -20.5971  -52.4481 S.3       23 UNK        -0.2404 
    126 C126        2.4182  -19.6509  -51.8250 C.3       23 UNK        -0.0205 
    127 H127       -6.8588  -16.7263  -48.5085 H         1 UNK         0.0600 
    128 H128       -6.8728  -15.4738  -47.2627 H         1 UNK         0.0600 
    129 H129       -5.5745  -16.6733  -47.3014 H         1 UNK         0.0600 
    130 H130       -3.6955  -15.6894  -47.9616 H         1 UNK         0.3000 
    131 H131       -3.3075  -14.4789  -50.4644 H         1 UNK         0.0600 
    132 H132       -1.5228  -14.3003  -47.9734 H         1 UNK         0.0800 
    133 H133       -1.0266  -13.9156  -49.6023 H         1 UNK         0.0800 
    134 H134        1.0385  -15.4302  -49.1674 H         1 UNK         0.0800 
    135 H135        0.4721  -15.9676  -47.6012 H         1 UNK         0.0800 
    136 H136        1.1870  -17.3622  -51.0263 H         1 UNK         0.1150 
    137 H137        3.0437  -20.9058  -49.4938 H         1 UNK         0.1150 
    138 H138        1.3777  -18.0200  -46.7935 H         1 UNK         0.1150 
    139 H139        3.5286  -21.0541  -47.1079 H         1 UNK         0.0800 
    140 H140        3.0221  -19.7915  -46.0210 H         1 UNK         0.0800 
    141 H141        2.1315  -22.9320  -47.9718 H         1 UNK         0.0800 
    142 H142        0.6620  -22.1608  -48.4841 H         1 UNK         0.0800 
    143 H143        0.4043  -24.5920  -48.1374 H         1 UNK         0.0600 
    144 H144        1.6180  -24.1596  -45.5693 H         1 UNK         0.3000 
    145 H145        1.0114  -27.5370  -44.4544 H         1 UNK         0.0600 
    146 H146        3.4594  -27.3536  -44.2048 H         1 UNK         0.0600 
    147 H147        3.0482  -27.4462  -45.9093 H         1 UNK         0.0600 
    148 H148        3.4937  -25.8986  -45.2000 H         1 UNK         0.0600 
    149 H149        2.2565  -25.3946  -43.0964 H         1 UNK         0.3000 
    150 H150       -0.5852  -24.1250  -41.3811 H         1 UNK         0.0600 
    151 H151        1.6230  -26.0147  -40.4020 H         1 UNK         0.0600 
    152 H152       -0.1059  -26.2750  -40.2045 H         1 UNK         0.0600 
    153 H153        0.6697  -24.9216  -39.3978 H         1 UNK         0.0600 
    154 H154        2.2140  -23.6892  -41.0450 H         1 UNK         0.3000 
    155 H155        2.8500  -21.4403  -41.4666 H         1 UNK         0.0600 
    156 H156        3.4537  -22.4578  -44.3102 H         1 UNK         0.0600 
    157 H157        4.0545  -23.1642  -42.8149 H         1 UNK         0.0600 
    158 H158        4.5815  -21.5609  -43.2975 H         1 UNK         0.0600 
    159 H159        1.5386  -20.4620  -43.9240 H         1 UNK         0.3000 
    160 H160        2.2832  -18.0333  -44.5136 H         1 UNK         0.0600 
    161 H161       -0.0359  -18.8069  -43.9090 H         1 UNK         0.0600 
    162 H162        0.0045  -17.0607  -44.0414 H         1 UNK         0.0600 
    163 H163        0.0026  -17.8208  -42.4512 H         1 UNK         0.0600 
    164 H164        2.9510  -16.8912  -42.0198 H         1 UNK         0.3000 
    165 H165        3.0124  -14.5835  -41.5926 H         1 UNK         0.0600 
    166 H166        5.2770  -13.7334  -42.2739 H         1 UNK         0.0600 
    167 H167        5.1613  -15.4630  -42.5565 H         1 UNK         0.0600 
    168 H168        5.0287  -14.3441  -43.9090 H         1 UNK         0.0600 
    169 H169        2.3437  -13.1157  -43.9990 H         1 UNK         0.3000 
    170 H170        1.3429  -10.3384  -42.1583 H         1 UNK         0.0600 
    171 H171        2.5381   -8.8815  -43.7806 H         1 UNK         0.0600 
    172 H172        3.6555   -9.4866  -42.5674 H         1 UNK         0.0600 
    173 H173        3.6465  -10.1942  -44.1789 H         1 UNK         0.0600 
    174 H174        1.4014  -10.8383  -44.9858 H         1 UNK         0.3000 
    175 H175       -0.0518  -12.6502  -45.9464 H         1 UNK         0.0600 
    176 H176       -1.7310  -13.9366  -44.6346 H         1 UNK         0.0600 
    177 H177       -2.7743  -12.5210  -44.5475 H         1 UNK         0.0600 
    178 H178       -2.4456  -13.2869  -46.0961 H         1 UNK         0.0600 
    179 H179       -2.1698  -10.7269  -46.1060 H         1 UNK         0.3000 
    180 H180       -1.5607   -8.2717  -46.5884 H         1 UNK         0.0600 
    181 H181        0.5373   -8.3601  -48.8218 H         1 UNK         0.0600 
    182 H182        0.6549   -7.4615  -47.3164 H         1 UNK         0.0600 
    183 H183       -0.5645   -7.0221  -48.5014 H         1 UNK         0.0600 
    184 H184       -3.0190   -8.9819  -48.0961 H         1 UNK         0.3000 
    185 H185       -4.0493  -10.1374  -49.6162 H         1 UNK         0.0600 
    186 H186       -2.3193  -10.2050  -52.1512 H         1 UNK         0.0600 
    187 H187       -4.0819  -10.1650  -52.1026 H         1 UNK         0.0600 
    188 H188       -3.1544   -8.7920  -51.5177 H         1 UNK         0.0600 
    189 H189       -2.8700  -12.3453  -51.1069 H         1 UNK         0.3000 
    190 H190       -0.8495  -23.6124  -45.0138 H         1 UNK         0.3000 
    191 H191       -3.4466  -22.7597  -45.9580 H         1 UNK         0.0600 
    192 H192       -2.5357  -21.9959  -43.7840 H         1 UNK         0.0600 
    193 H193       -4.0395  -22.8740  -43.5427 H         1 UNK         0.0600 
    194 H194       -2.5022  -23.6496  -43.1811 H         1 UNK         0.0600 
    195 H195       -2.1628  -25.8174  -44.5050 H         1 UNK         0.3000 
    196 H196       -4.5691  -27.2918  -44.6389 H         1 UNK         0.0600 
    197 H197       -3.0560  -29.2621  -44.2883 H         1 UNK         0.0600 
    198 H198       -2.6758  -27.9406  -43.1959 H         1 UNK         0.0600 
    199 H199       -1.6562  -28.2418  -44.6025 H         1 UNK         0.0600 
    200 H200       -1.9260  -26.9528  -47.0218 H         1 UNK         0.3000 
    201 H201       -3.0237  -28.7570  -48.9798 H         1 UNK         0.0600 
    202 H202       -1.3152  -27.6847  -50.4559 H         1 UNK         0.0600 
    203 H203       -0.6181  -28.1103  -48.9014 H         1 UNK         0.0600 
    204 H204       -1.0367  -26.4336  -49.2500 H         1 UNK         0.0600 
    205 H205       -4.0443  -25.6816  -47.9598 H         1 UNK         0.3000 
    206 H206       -5.4670  -24.1525  -48.5618 H         1 UNK         0.0600 
    207 H207       -6.9982  -26.0530  -49.1309 H         1 UNK         0.0600 
    208 H208       -7.3132  -24.6271  -50.1055 H         1 UNK         0.0600 
    209 H209       -6.4511  -25.9863  -50.8067 H         1 UNK         0.0600 
    210 H210       -2.7828  -24.5576  -50.1029 H         1 UNK         0.3000 
    211 H211       -3.0293  -23.1853  -52.6022 H         1 UNK         0.0600 
    212 H212       -0.5752  -23.5718  -50.7995 H         1 UNK         0.0600 
    213 H213       -0.5590  -23.1322  -52.5046 H         1 UNK         0.0600 
    214 H214       -1.1333  -24.7170  -52.0190 H         1 UNK         0.0600 
    215 H215       -2.1964  -22.1338  -49.2838 H         1 UNK         0.3000 
    216 H216       -1.9211  -19.3152  -50.0174 H         1 UNK         0.0600 
    217 H217       -1.7184  -19.0093  -47.5421 H         1 UNK         0.0600 
    218 H218       -0.6135  -20.2196  -48.1563 H         1 UNK         0.0600 
    219 H219       -2.0722  -20.7170  -47.2951 H         1 UNK         0.0600 
    220 H220       -4.5085  -21.4436  -48.8975 H         1 UNK         0.3000 
    221 H221       -6.3260  -19.3916  -48.0239 H         1 UNK         0.0600 
    222 H222       -6.9410  -22.2625  -48.9026 H         1 UNK         0.0600 
    223 H223       -6.4577  -21.7895  -47.2723 H         1 UNK         0.0600 
    224 H224       -7.9733  -21.2127  -47.9482 H         1 UNK         0.0600 
    225 H225       -5.9402  -21.2259  -51.0937 H         1 UNK         0.3000 
    226 H226       -7.9563  -19.6948  -52.5289 H         1 UNK         0.0600 
    227 H227       -7.0677  -20.9831  -54.4734 H         1 UNK         0.0600 
    228 H228       -5.7335  -21.5782  -53.4916 H         1 UNK         0.0600 
    229 H229       -7.3887  -22.0513  -53.1148 H         1 UNK         0.0600 
    230 H230       -4.6221  -19.2500  -51.7342 H         1 UNK         0.3000 
    231 H231       -2.9623  -17.8953  -52.2508 H         1 UNK         0.0600 
    232 H232       -5.0119  -15.9781  -53.4833 H         1 UNK         0.0600 
    233 H233       -3.3847  -15.5820  -52.9458 H         1 UNK         0.0600 
    234 H234       -4.6048  -16.0549  -51.7711 H         1 UNK         0.0600 
    235 H235       -3.3011  -20.0335  -53.8140 H         1 UNK         0.3000 
    236 H236       -3.3866  -19.3962  -56.6720 H         1 UNK         0.0600 
    237 H237       -4.5099  -21.4220  -55.8003 H         1 UNK         0.0600 
    238 H238       -3.2197  -21.8823  -56.8997 H         1 UNK         0.0600 
    239 H239       -2.9848  -22.0352  -55.1617 H         1 UNK         0.0600 
    240 H240       -0.9425  -20.2441  -54.2456 H         1 UNK         0.3000 
    241 H241        1.1997  -20.5661  -56.2008 H         1 UNK         0.0600 
    242 H242        3.2576  -19.2501  -56.1006 H         1 UNK         0.3800 
    243 H243        3.0866  -17.5528  -55.7611 H         1 UNK         0.3800 
    244 H244        1.3174  -22.0334  -54.3249 H         1 UNK         0.0800 
    245 H245        2.6525  -20.9371  -54.1919 H         1 UNK         0.0800 
    246 H246        3.3161  -20.2700  -51.8552 H         1 UNK         0.0800 
    247 H247        2.6059  -18.7942  -52.4739 H         1 UNK         0.0800 
@<TRIPOS>BOND
     1    1    2 1    
     2    1  127 1    
     3    1  128 1    
     4    1  129 1    
     5    2    3 2    
     6    2    4 am   BACKBONE|DICT|INTERRES
     7    4    5 1    
     8    4  130 1    
     9    5    6 1    
    10    5   65 1    
    11    5  131 1    
    12    6    7 1    
    13    6  132 1    
    14    6  133 1    
    15    7    8 1    
    16    8    9 1    
    17    8  134 1    
    18    8  135 1    
    19    9   10 ar   
    20    9   14 ar   
    21   10   11 ar   
    22   10  136 1    
    23   11   12 ar   
    24   11  126 1    
    25   12   13 ar   
    26   12  137 1    
    27   13   14 ar   
    28   13   15 1    
    29   14  138 1    
    30   15   16 1    
    31   15  139 1    
    32   15  140 1    
    33   16   17 1    
    34   17   18 1    
    35   17  141 1    
    36   17  142 1    
    37   18   19 1    
    38   18   67 1    
    39   18  143 1    
    40   19   20 am   BACKBONE|DICT|INTERRES
    41   19  144 1    
    42   20   21 2    
    43   20   22 1    
    44   22   23 1    
    45   22   24 1    
    46   22  145 1    
    47   23  146 1    
    48   23  147 1    
    49   23  148 1    
    50   24   25 am   BACKBONE|DICT|INTERRES
    51   24  149 1    
    52   25   26 2    
    53   25   27 1    
    54   27   28 1    
    55   27   29 1    
    56   27  150 1    
    57   28  151 1    
    58   28  152 1    
    59   28  153 1    
    60   29   30 am   BACKBONE|DICT|INTERRES
    61   29  154 1    
    62   30   31 2    
    63   30   32 1    
    64   32   33 1    
    65   32   34 1    
    66   32  155 1    
    67   33  156 1    
    68   33  157 1    
    69   33  158 1    
    70   34   35 am   BACKBONE|DICT|INTERRES
    71   34  159 1    
    72   35   36 2    
    73   35   37 1    
    74   37   38 1    
    75   37   39 1    
    76   37  160 1    
    77   38  161 1    
    78   38  162 1    
    79   38  163 1    
    80   39   40 am   BACKBONE|DICT|INTERRES
    81   39  164 1    
    82   40   41 2    
    83   40   42 1    
    84   42   43 1    
    85   42   44 1    
    86   42  165 1    
    87   43  166 1    
    88   43  167 1    
    89   43  168 1    
    90   44   45 am   BACKBONE|DICT|INTERRES
    91   44  169 1    
    92   45   46 2    
    93   45   47 1    
    94   47   48 1    
    95   47   49 1    
    96   47  170 1    
    97   48  171 1    
    98   48  172 1    
    99   48  173 1    
   100   49   50 am   BACKBONE|DICT|INTERRES
   101   49  174 1    
   102   50   51 2    
   103   50   52 1    
   104   52   53 1    
   105   52   54 1    
   106   52  175 1    
   107   53  176 1    
   108   53  177 1    
   109   53  178 1    
   110   54   55 am   BACKBONE|DICT|INTERRES
   111   54  179 1    
   112   55   56 2    
   113   55   57 1    
   114   57   58 1    
   115   57   59 1    
   116   57  180 1    
   117   58  181 1    
   118   58  182 1    
   119   58  183 1    
   120   59   60 am   BACKBONE|DICT|INTERRES
   121   59  184 1    
   122   60   61 2    
   123   60   62 1    
   124   62   63 1    
   125   62   64 1    
   126   62  185 1    
   127   63  186 1    
   128   63  187 1    
   129   63  188 1    
   130   64   65 am   BACKBONE|DICT|INTERRES
   131   64  189 1    
   132   65   66 2    
   133   67   68 2    
   134   67   69 am   BACKBONE|DICT|INTERRES
   135   69   70 1    
   136   69  190 1    
   137   70   71 1    
   138   70   72 1    
   139   70  191 1    
   140   71  192 1    
   141   71  193 1    
   142   71  194 1    
   143   72   73 2    
   144   72   74 am   BACKBONE|DICT|INTERRES
   145   74   75 1    
   146   74  195 1    
   147   75   76 1    
   148   75   77 1    
   149   75  196 1    
   150   76  197 1    
   151   76  198 1    
   152   76  199 1    
   153   77   78 2    
   154   77   79 am   BACKBONE|DICT|INTERRES
   155   79   80 1    
   156   79  200 1    
   157   80   81 1    
   158   80   82 1    
   159   80  201 1    
   160   81  202 1    
   161   81  203 1    
   162   81  204 1    
   163   82   83 2    
   164   82   84 am   BACKBONE|DICT|INTERRES
   165   84   85 1    
   166   84  205 1    
   167   85   86 1    
   168   85   87 1    
   169   85  206 1    
   170   86  207 1    
   171   86  208 1    
   172   86  209 1    
   173   87   88 2    
   174   87   89 am   BACKBONE|DICT|INTERRES
   175   89   90 1    
   176   89  210 1    
   177   90   91 1    
   178   90   92 1    
   179   90  211 1    
   180   91  212 1    
   181   91  213 1    
   182   91  214 1    
   183   92   93 2    
   184   92   94 am   BACKBONE|DICT|INTERRES
   185   94   95 1    
   186   94  215 1    
   187   95   96 1    
   188   95   97 1    
   189   95  216 1    
   190   96  217 1    
   191   96  218 1    
   192   96  219 1    
   193   97   98 2    
   194   97   99 am   BACKBONE|DICT|INTERRES
   195   99  100 1    
   196   99  220 1    
   197  100  101 1    
   198  100  102 1    
   199  100  221 1    
   200  101  222 1    
   201  101  223 1    
   202  101  224 1    
   203  102  103 2    
   204  102  104 am   BACKBONE|DICT|INTERRES
   205  104  105 1    
   206  104  225 1    
   207  105  106 1    
   208  105  107 1    
   209  105  226 1    
   210  106  227 1    
   211  106  228 1    
   212  106  229 1    
   213  107  108 2    
   214  107  109 am   BACKBONE|DICT|INTERRES
   215  109  110 1    
   216  109  230 1    
   217  110  111 1    
   218  110  112 1    
   219  110  231 1    
   220  111  232 1    
   221  111  233 1    
   222  111  234 1    
   223  112  113 2    
   224  112  114 am   BACKBONE|DICT|INTERRES
   225  114  115 1    
   226  114  235 1    
   227  115  116 1    
   228  115  117 1    
   229  115  236 1    
   230  116  237 1    
   231  116  238 1    
   232  116  239 1    
   233  117  118 2    
   234  117  119 am   BACKBONE|DICT|INTERRES
   235  119  120 1    
   236  119  240 1    
   237  120  121 1    
   238  120  124 1    
   239  120  241 1    
   240  121  122 am   BACKBONE|DICT|INTERRES
   241  121  123 2    
   242  122  242 1    
   243  122  243 1    
   244  124  125 1    
   245  124  244 1    
   246  124  245 1    
   247  125  126 1    
   248  126  246 1    
   249  126  247 1    
@<TRIPOS>SUBSTRUCTURE
     1 UNK         1 GROUP             0       ****    0 ROOT    
