@<TRIPOS>MOLECULE
3R540
247   249    1
SMALL
USER_CHARGES


@<TRIPOS>ATOM
      1 CA         -1.6035  -16.6577  -47.1918 C.3       0 UNK        -0.1800 
      2 C          -0.4010  -16.4212  -48.0923 C.2       0 UNK         0.5000 
      3 O          -0.5580  -16.3360  -49.3097 O.2       0 UNK        -0.5000 
      4 N           0.7898  -16.3077  -47.4940 N.am      1 UNK        -0.5000 
      5 CA          2.0455  -16.0078  -48.1895 C.3       1 UNK         0.1400 
      6 C6          3.2468  -16.8200  -47.6497 C.3       23 UNK        -0.0398 
      7 S7          3.0167  -18.6093  -47.8998 S.3       23 UNK        -0.2404 
      8 C8          3.6868  -18.8082  -49.5787 C.3       23 UNK        -0.0205 
      9 C9          3.3492  -20.1720  -50.1622 C.ar      23 UNK        -0.0193 
     10 C10         2.2013  -20.3412  -50.9430 C.ar      23 UNK        -0.1150 
     11 C11         1.9033  -21.5810  -51.5285 C.ar      23 UNK        -0.0193 
     12 C12         2.7634  -22.6594  -51.2896 C.ar      23 UNK        -0.1150 
     13 C13         3.9070  -22.5072  -50.5004 C.ar      23 UNK        -0.0193 
     14 C14         4.1954  -21.2599  -49.9417 C.ar      23 UNK        -0.1150 
     15 C15         4.8657  -23.6683  -50.2878 C.3       23 UNK        -0.0205 
     16 S16         4.6717  -24.4257  -48.6449 S.3       23 UNK        -0.2404 
     17 C17         3.4867  -25.7857  -48.9582 C.3       23 UNK        -0.0398 
     18 CA          2.2502  -25.7939  -48.0228 C.3       11 UNK         0.1400 
     19 N           2.6045  -25.5479  -46.6220 N.am      11 UNK        -0.5000 
     20 C           1.8011  -25.7569  -45.5714 C.2       10 UNK         0.5000 
     21 O           0.6773  -26.2507  -45.6581 O.2       10 UNK        -0.5000 
     22 CA          2.3242  -25.2679  -44.2058 C.3       10 UNK         0.1400 
     23 CB          3.2481  -26.3175  -43.5709 C.3       10 UNK        -0.1800 
     24 N           3.0291  -23.9825  -44.2940 N.am      10 UNK        -0.5000 
     25 C           2.4534  -22.8420  -44.6971 C.2       9 UNK         0.5000 
     26 O           1.2624  -22.7661  -45.0047 O.2       9 UNK        -0.5000 
     27 CA          3.3696  -21.6107  -44.8434 C.3       9 UNK         0.1400 
     28 CB          4.2860  -21.7667  -46.0680 C.3       9 UNK        -0.1800 
     29 N           2.5956  -20.3804  -45.0103 N.am      9 UNK        -0.5000 
     30 C           1.9467  -19.7468  -44.0290 C.2       8 UNK         0.5000 
     31 O           2.0214  -20.0596  -42.8373 O.2       8 UNK        -0.5000 
     32 CA          1.0566  -18.5678  -44.4471 C.3       8 UNK         0.1400 
     33 CB         -0.4129  -19.0055  -44.5769 C.3       8 UNK        -0.1800 
     34 N           1.1642  -17.5414  -43.4207 N.am      8 UNK        -0.5000 
     35 C           1.1639  -16.2218  -43.6222 C.2       7 UNK         0.5000 
     36 O           1.0404  -15.6821  -44.7273 O.2       7 UNK        -0.5000 
     37 CA          1.4073  -15.3644  -42.3770 C.3       7 UNK         0.1400 
     38 CB          2.8837  -14.9206  -42.3339 C.3       7 UNK        -0.1800 
     39 N           0.5084  -14.2133  -42.3854 N.am      7 UNK        -0.5000 
     40 C           0.3240  -13.3855  -41.3486 C.2       6 UNK         0.5000 
     41 O           0.8548  -13.5380  -40.2473 O.2       6 UNK        -0.5000 
     42 CA         -0.6047  -12.1841  -41.5690 C.3       6 UNK         0.1400 
     43 CB         -0.0578  -11.2513  -42.6620 C.3       6 UNK        -0.1800 
     44 N          -1.9586  -12.6136  -41.9158 N.am      6 UNK        -0.5000 
     45 C          -2.9809  -12.6687  -41.0498 C.2       5 UNK         0.5000 
     46 O          -2.8647  -12.4222  -39.8483 O.2       5 UNK        -0.5000 
     47 CA         -4.3794  -13.0190  -41.6001 C.3       5 UNK         0.1400 
     48 CB         -5.3108  -11.7990  -41.5051 C.3       5 UNK        -0.1800 
     49 N          -4.3521  -13.4651  -42.9928 N.am      5 UNK        -0.5000 
     50 C          -4.2718  -14.7421  -43.3859 C.2       4 UNK         0.5000 
     51 O          -4.2542  -15.6997  -42.6123 O.2       4 UNK        -0.5000 
     52 CA         -4.1715  -14.9890  -44.9054 C.3       4 UNK         0.1400 
     53 CB         -5.5666  -15.2100  -45.5080 C.3       4 UNK        -0.1800 
     54 N          -3.4950  -13.9217  -45.6548 N.am      4 UNK        -0.5000 
     55 C          -2.2372  -13.5194  -45.4401 C.2       3 UNK         0.5000 
     56 O          -1.5333  -13.9414  -44.5164 O.2       3 UNK        -0.5000 
     57 CA         -1.6680  -12.4607  -46.3927 C.3       3 UNK         0.1400 
     58 CB         -2.1176  -11.0516  -45.9591 C.3       3 UNK        -0.1800 
     59 N          -0.2218  -12.6214  -46.3281 N.am      3 UNK        -0.5000 
     60 C           0.7446  -11.9403  -46.9493 C.2       2 UNK         0.5000 
     61 O           0.5597  -10.9886  -47.7076 O.2       2 UNK        -0.5000 
     62 CA          2.1658  -12.4735  -46.7019 C.3       2 UNK         0.1400 
     63 CB          2.6394  -12.1515  -45.2755 C.3       2 UNK        -0.1800 
     64 N           2.1889  -13.9226  -46.9084 N.am      2 UNK        -0.5000 
     65 C           2.3184  -14.4975  -48.1128 C.2       1 UNK         0.5000 
     66 O           2.5999  -13.8796  -49.1405 O.2       1 UNK        -0.5000 
     67 C           1.1387  -24.8492  -48.5231 C.2       11 UNK         0.5000 
     68 O           0.2800  -25.2831  -49.2891 O.2       11 UNK        -0.5000 
     69 N           1.1417  -23.5974  -48.0486 N.am      12 UNK        -0.5000 
     70 CA          0.1220  -22.5934  -48.3483 C.3       12 UNK         0.1400 
     71 CB          0.6305  -21.2203  -47.8970 C.3       12 UNK        -0.1800 
     72 C          -1.2175  -22.9292  -47.6745 C.2       12 UNK         0.5000 
     73 O          -2.2663  -22.8117  -48.3073 O.2       12 UNK        -0.5000 
     74 N          -1.1560  -23.3810  -46.4150 N.am      13 UNK        -0.5000 
     75 CA         -2.3009  -23.8688  -45.6490 C.3       13 UNK         0.1400 
     76 CB         -1.8773  -24.1161  -44.1936 C.3       13 UNK        -0.1800 
     77 C          -2.9238  -25.1321  -46.2715 C.2       13 UNK         0.5000 
     78 O          -4.1480  -25.2137  -46.3709 O.2       13 UNK        -0.5000 
     79 N          -2.0739  -26.0669  -46.7224 N.am      14 UNK        -0.5000 
     80 CA         -2.4733  -27.2829  -47.4346 C.3       14 UNK         0.1400 
     81 CB         -1.2617  -28.2159  -47.5784 C.3       14 UNK        -0.1800 
     82 C          -3.1053  -26.9950  -48.8103 C.2       14 UNK         0.5000 
     83 O          -4.0888  -27.6417  -49.1722 O.2       14 UNK        -0.5000 
     84 N          -2.5482  -26.0180  -49.5398 N.am      15 UNK        -0.5000 
     85 CA         -3.0604  -25.5409  -50.8270 C.3       15 UNK         0.1400 
     86 CB         -1.9753  -24.6997  -51.5182 C.3       15 UNK        -0.1800 
     87 C          -4.3591  -24.7197  -50.7098 C.2       15 UNK         0.5000 
     88 O          -5.0638  -24.5799  -51.7086 O.2       15 UNK        -0.5000 
     89 N          -4.6332  -24.1846  -49.5107 N.am      16 UNK        -0.5000 
     90 CA         -5.6890  -23.2265  -49.1756 C.3       16 UNK         0.1400 
     91 CB         -7.0948  -23.8158  -49.4151 C.3       16 UNK        -0.1800 
     92 C          -5.4582  -21.8810  -49.8894 C.2       16 UNK         0.5000 
     93 O          -6.3439  -21.3818  -50.5858 O.2       16 UNK        -0.5000 
     94 N          -4.2508  -21.3276  -49.7013 N.am      17 UNK        -0.5000 
     95 CA         -3.7048  -20.1185  -50.3301 C.3       17 UNK         0.1400 
     96 CB         -2.3814  -19.7655  -49.6422 C.3       17 UNK        -0.1800 
     97 C          -4.6242  -18.8859  -50.3391 C.2       17 UNK         0.5000 
     98 O          -4.5999  -18.1269  -51.3078 O.2       17 UNK        -0.5000 
     99 N          -5.4387  -18.7332  -49.2864 N.am      18 UNK        -0.5000 
    100 CA        -6.4445  -17.6795  -49.1413 C.3       18 UNK         0.1400 
    101 CB        -7.0754  -17.7929  -47.7451 C.3       18 UNK        -0.1800 
    102 C         -7.5410  -17.7109  -50.2270 C.2       18 UNK         0.5000 
    103 O         -8.0827  -16.6573  -50.5637 O.2       18 UNK        -0.5000 
    104 N         -7.8394  -18.9063  -50.7525 N.am      19 UNK        -0.5000 
    105 CA        -8.7848  -19.1306  -51.8436 C.3       19 UNK         0.1400 
    106 CB        -9.7140  -20.2958  -51.4670 C.3       19 UNK        -0.1800 
    107 C         -8.0520  -19.4354  -53.1609 C.2       19 UNK         0.5000 
    108 O         -8.4899  -18.9734  -54.2152 O.2       19 UNK        -0.5000 
    109 N         -6.9625  -20.2135  -53.0853 N.am      20 UNK        -0.5000 
    110 CA        -6.1936  -20.6845  -54.2384 C.3       20 UNK         0.1400 
    111 CB        -5.2845  -21.8424  -53.8029 C.3       20 UNK        -0.1800 
    112 C         -5.3737  -19.5878  -54.9416 C.2       20 UNK         0.5000 
    113 O         -5.1647  -19.6958  -56.1503 O.2       20 UNK        -0.5000 
    114 N         -4.9413  -18.5652  -54.1859 N.am      21 UNK        -0.5000 
    115 CA        -4.1497  -17.4092  -54.6176 C.3       21 UNK         0.1400 
    116 CB        -4.9721  -16.5078  -55.5620 C.3       21 UNK        -0.1800 
    117 C         -2.7899  -17.8249  -55.2158 C.2       21 UNK         0.5000 
    118 O         -2.6142  -17.8082  -56.4359 O.2       21 UNK        -0.5000 
    119 N         -1.8578  -18.2096  -54.3336 N.am      22 UNK        -0.5000 
    120 CA        -0.4939  -18.6638  -54.6727 C.3       22 UNK         0.1400 
    121 C          0.3912  -17.6284  -55.4323 C.2       22 UNK         0.5000 
    122 N          0.1096  -16.3327  -55.3642 N.am      22 UNK        -0.7600 
    123 O          1.3536  -18.0112  -56.0920 O.2       22 UNK        -0.5000 
    124 C124        0.2738  -19.1622  -53.4214 C.3       23 UNK        -0.0398 
    125 S125       -0.5718  -20.5022  -52.5125 S.3       23 UNK        -0.2404 
    126 C126        0.7010  -21.8149  -52.4524 C.3       23 UNK        -0.0205 
    127 H127       -1.8638  -17.7154  -47.1806 H         1 UNK         0.0600 
    128 H128       -2.4653  -16.0963  -47.5527 H         1 UNK         0.0600 
    129 H129       -1.3978  -16.3413  -46.1697 H         1 UNK         0.0600 
    130 H130        0.8359  -16.3103  -46.4788 H         1 UNK         0.3000 
    131 H131        1.9413  -16.2532  -49.2484 H         1 UNK         0.0600 
    132 H132        3.3866  -16.6401  -46.5823 H         1 UNK         0.0800 
    133 H133        4.1755  -16.5146  -48.1357 H         1 UNK         0.0800 
    134 H134        3.2914  -18.0257  -50.2276 H         1 UNK         0.0800 
    135 H135        4.7687  -18.6687  -49.5539 H         1 UNK         0.0800 
    136 H136        1.5545  -19.4914  -51.0884 H         1 UNK         0.1150 
    137 H137        2.5493  -23.6209  -51.7351 H         1 UNK         0.1150 
    138 H138        5.0837  -21.1348  -49.3384 H         1 UNK         0.1150 
    139 H139        4.7530  -24.4192  -51.0711 H         1 UNK         0.0800 
    140 H140        5.8890  -23.3007  -50.3766 H         1 UNK         0.0800 
    141 H141        3.1806  -25.7921  -50.0059 H         1 UNK         0.0800 
    142 H142        4.0368  -26.7169  -48.8171 H         1 UNK         0.0800 
    143 H143        1.8288  -26.8004  -48.0678 H         1 UNK         0.0600 
    144 H144        3.5114  -25.1316  -46.4669 H         1 UNK         0.3000 
    145 H145        1.4605  -25.1328  -43.5512 H         1 UNK         0.0600 
    146 H146        3.5550  -26.0178  -42.5687 H         1 UNK         0.0600 
    147 H147        2.7411  -27.2791  -43.4801 H         1 UNK         0.0600 
    148 H148        4.1489  -26.4760  -44.1652 H         1 UNK         0.0600 
    149 H149        4.0110  -23.9860  -44.0579 H         1 UNK         0.3000 
    150 H150        3.9855  -21.5262  -43.9457 H         1 UNK         0.0600 
    151 H151        4.9311  -22.6408  -45.9740 H         1 UNK         0.0600 
    152 H152        4.9362  -20.8997  -46.1868 H         1 UNK         0.0600 
    153 H153        3.7135  -21.8785  -46.9895 H         1 UNK         0.0600 
    154 H154        2.4862  -20.0536  -45.9603 H         1 UNK         0.3000 
    155 H155        1.4076  -18.1756  -45.4023 H         1 UNK         0.0600 
    156 H156       -1.0714  -18.1520  -44.7295 H         1 UNK         0.0600 
    157 H157       -0.7565  -19.5257  -43.6818 H         1 UNK         0.0600 
    158 H158       -0.5517  -19.6803  -45.4206 H         1 UNK         0.0600 
    159 H159        1.3410  -17.9083  -42.4940 H         1 UNK         0.3000 
    160 H160        1.1878  -15.9622  -41.4898 H         1 UNK         0.0600 
    161 H161        3.1394  -14.2880  -43.1836 H         1 UNK         0.0600 
    162 H162        3.5502  -15.7837  -42.3591 H         1 UNK         0.0600 
    163 H163        3.1157  -14.3675  -41.4243 H         1 UNK         0.0600 
    164 H164       -0.0302  -14.0890  -43.2387 H         1 UNK         0.3000 
    165 H165       -0.6211  -11.6086  -40.6409 H         1 UNK         0.0600 
    166 H166       -0.0362  -11.7349  -43.6368 H         1 UNK         0.0600 
    167 H167       -0.6657  -10.3508  -42.7481 H         1 UNK         0.0600 
    168 H168        0.9603  -10.9345  -42.4318 H         1 UNK         0.0600 
    169 H169       -2.0988  -12.9411  -42.8639 H         1 UNK         0.3000 
    170 H170       -4.7910  -13.8070  -40.9659 H         1 UNK         0.0600 
    171 H171       -5.3985  -11.4505  -40.4751 H         1 UNK         0.0600 
    172 H172       -4.9440  -10.9645  -42.1040 H         1 UNK         0.0600 
    173 H173       -6.3161  -12.0432  -41.8491 H         1 UNK         0.0600 
    174 H174       -4.3668  -12.7453  -43.7004 H         1 UNK         0.3000 
    175 H175       -3.5934  -15.9048  -45.0429 H         1 UNK         0.0600 
    176 H176       -6.1929  -14.3227  -45.4083 H         1 UNK         0.0600 
    177 H177       -5.5025  -15.4574  -46.5676 H         1 UNK         0.0600 
    178 H178       -6.0818  -16.0333  -45.0114 H         1 UNK         0.0600 
    179 H179       -4.0168  -13.5127  -46.4166 H         1 UNK         0.3000 
    180 H180       -2.0014  -12.6701  -47.4105 H         1 UNK         0.0600 
    181 H181       -1.7782  -10.8059  -44.9539 H         1 UNK         0.0600 
    182 H182       -3.2052  -10.9711  -45.9633 H         1 UNK         0.0600 
    183 H183       -1.7433  -10.2830  -46.6344 H         1 UNK         0.0600 
    184 H184        0.0426  -13.3897  -45.7228 H         1 UNK         0.3000 
    185 H185        2.8451  -11.9845  -47.4036 H         1 UNK         0.0600 
    186 H186        3.6696  -12.4735  -45.1230 H         1 UNK         0.0600 
    187 H187        2.6015  -11.0784  -45.0837 H         1 UNK         0.0600 
    188 H188        2.0231  -12.6420  -44.5225 H         1 UNK         0.0600 
    189 H189        1.9352  -14.5013  -46.1152 H         1 UNK         0.3000 
    190 H190        1.8581  -23.3326  -47.3909 H         1 UNK         0.3000 
    191 H191       -0.0269  -22.5701  -49.4296 H         1 UNK         0.0600 
    192 H192        0.0503  -20.4074  -48.3291 H         1 UNK         0.0600 
    193 H193        1.6629  -21.0811  -48.2047 H         1 UNK         0.0600 
    194 H194        0.5912  -21.1053  -46.8171 H         1 UNK         0.0600 
    195 H195       -0.2554  -23.3777  -45.9426 H         1 UNK         0.3000 
    196 H196       -3.0613  -23.0852  -45.6528 H         1 UNK         0.0600 
    197 H197       -2.7254  -24.4423  -43.5905 H         1 UNK         0.0600 
    198 H198       -1.4833  -23.2068  -43.7390 H         1 UNK         0.0600 
    199 H199       -1.1076  -24.8845  -44.1213 H         1 UNK         0.0600 
    200 H200       -1.0813  -25.9499  -46.5433 H         1 UNK         0.3000 
    201 H201       -3.2227  -27.7936  -46.8262 H         1 UNK         0.0600 
    202 H202       -0.8494  -28.4802  -46.6044 H         1 UNK         0.0600 
    203 H203       -0.4666  -27.7552  -48.1647 H         1 UNK         0.0600 
    204 H204       -1.5411  -29.1450  -48.0766 H         1 UNK         0.0600 
    205 H205       -1.6908  -25.5858  -49.2100 H         1 UNK         0.3000 
    206 H206       -3.2737  -26.4080  -51.4553 H         1 UNK         0.0600 
    207 H207       -1.0710  -25.2836  -51.6898 H         1 UNK         0.0600 
    208 H208       -2.3159  -24.3374  -52.4891 H         1 UNK         0.0600 
    209 H209       -1.7053  -23.8283  -50.9207 H         1 UNK         0.0600 
    210 H210       -3.9527  -24.3430  -48.7787 H         1 UNK         0.3000 
    211 H211       -5.5940  -23.0309  -48.1065 H         1 UNK         0.0600 
    212 H212       -7.2979  -23.9797  -50.4736 H         1 UNK         0.0600 
    213 H213       -7.8653  -23.1412  -49.0402 H         1 UNK         0.0600 
    214 H214       -7.2154  -24.7678  -48.8981 H         1 UNK         0.0600 
    215 H215       -3.5853  -21.8524  -49.1361 H         1 UNK         0.3000 
    216 H216       -3.4890  -20.3653  -51.3699 H         1 UNK         0.0600 
    217 H217       -1.9472  -18.8517  -50.0511 H         1 UNK         0.0600 
    218 H218       -1.6556  -20.5618  -49.7936 H         1 UNK         0.0600 
    219 H219       -2.5083  -19.6243  -48.5687 H         1 UNK         0.0600 
    220 H220       -5.3911  -19.4185  -48.5473 H         1 UNK         0.3000 
    221 H221       -5.9313  -16.7184  -49.2134 H         1 UNK         0.0600 
    222 H222       -7.6326  -18.7237  -47.6309 H         1 UNK         0.0600 
    223 H223       -6.3170  -17.7612  -46.9631 H         1 UNK         0.0600 
    224 H224       -7.7680  -16.9704  -47.5617 H         1 UNK         0.0600 
    225 H225       -7.3156  -19.7193  -50.4431 H         1 UNK         0.3000 
    226 H226       -9.4035  -18.2452  -52.0035 H         1 UNK         0.0600 
    227 H227      -10.2807  -20.0693  -50.5638 H         1 UNK         0.0600 
    228 H228      -10.4340  -20.4943  -52.2620 H         1 UNK         0.0600 
    229 H229       -9.1567  -21.2167  -51.2895 H         1 UNK         0.0600 
    230 H230       -6.6966  -20.5948  -52.1803 H         1 UNK         0.3000 
    231 H231       -6.9024  -21.0774  -54.9706 H         1 UNK         0.0600 
    232 H232       -4.7224  -22.2408  -54.6484 H         1 UNK         0.0600 
    233 H233       -5.8712  -22.6621  -53.3887 H         1 UNK         0.0600 
    234 H234       -4.5638  -21.5322  -53.0476 H         1 UNK         0.0600 
    235 H235       -5.1408  -18.5879  -53.1911 H         1 UNK         0.3000 
    236 H236       -3.9390  -16.8258  -53.7199 H         1 UNK         0.0600 
    237 H237       -5.8978  -16.1832  -55.0865 H         1 UNK         0.0600 
    238 H238       -4.4110  -15.6114  -55.8286 H         1 UNK         0.0600 
    239 H239       -5.2347  -17.0154  -56.4906 H         1 UNK         0.0600 
    240 H240       -2.0914  -18.2203  -53.3515 H         1 UNK         0.3000 
    241 H241       -0.6106  -19.5133  -55.3482 H         1 UNK         0.0600 
    242 H242       -0.6775  -16.0038  -54.8289 H         1 UNK         0.3800 
    243 H243        0.6870  -15.6733  -55.8622 H         1 UNK         0.3800 
    244 H244        1.2704  -19.5084  -53.7023 H         1 UNK         0.0800 
    245 H245        0.4259  -18.3320  -52.7296 H         1 UNK         0.0800 
    246 H246        1.0650  -21.9966  -53.4645 H         1 UNK         0.0800 
    247 H247        0.2038  -22.7339  -52.1400 H         1 UNK         0.0800 
@<TRIPOS>BOND
     1    1    2 1    
     2    1  127 1    
     3    1  128 1    
     4    1  129 1    
     5    2    3 2    
     6    2    4 am   BACKBONE|DICT|INTERRES
     7    4    5 1    
     8    4  130 1    
     9    5    6 1    
    10    5   65 1    
    11    5  131 1    
    12    6    7 1    
    13    6  132 1    
    14    6  133 1    
    15    7    8 1    
    16    8    9 1    
    17    8  134 1    
    18    8  135 1    
    19    9   10 ar   
    20    9   14 ar   
    21   10   11 ar   
    22   10  136 1    
    23   11   12 ar   
    24   11  126 1    
    25   12   13 ar   
    26   12  137 1    
    27   13   14 ar   
    28   13   15 1    
    29   14  138 1    
    30   15   16 1    
    31   15  139 1    
    32   15  140 1    
    33   16   17 1    
    34   17   18 1    
    35   17  141 1    
    36   17  142 1    
    37   18   19 1    
    38   18   67 1    
    39   18  143 1    
    40   19   20 am   BACKBONE|DICT|INTERRES
    41   19  144 1    
    42   20   21 2    
    43   20   22 1    
    44   22   23 1    
    45   22   24 1    
    46   22  145 1    
    47   23  146 1    
    48   23  147 1    
    49   23  148 1    
    50   24   25 am   BACKBONE|DICT|INTERRES
    51   24  149 1    
    52   25   26 2    
    53   25   27 1    
    54   27   28 1    
    55   27   29 1    
    56   27  150 1    
    57   28  151 1    
    58   28  152 1    
    59   28  153 1    
    60   29   30 am   BACKBONE|DICT|INTERRES
    61   29  154 1    
    62   30   31 2    
    63   30   32 1    
    64   32   33 1    
    65   32   34 1    
    66   32  155 1    
    67   33  156 1    
    68   33  157 1    
    69   33  158 1    
    70   34   35 am   BACKBONE|DICT|INTERRES
    71   34  159 1    
    72   35   36 2    
    73   35   37 1    
    74   37   38 1    
    75   37   39 1    
    76   37  160 1    
    77   38  161 1    
    78   38  162 1    
    79   38  163 1    
    80   39   40 am   BACKBONE|DICT|INTERRES
    81   39  164 1    
    82   40   41 2    
    83   40   42 1    
    84   42   43 1    
    85   42   44 1    
    86   42  165 1    
    87   43  166 1    
    88   43  167 1    
    89   43  168 1    
    90   44   45 am   BACKBONE|DICT|INTERRES
    91   44  169 1    
    92   45   46 2    
    93   45   47 1    
    94   47   48 1    
    95   47   49 1    
    96   47  170 1    
    97   48  171 1    
    98   48  172 1    
    99   48  173 1    
   100   49   50 am   BACKBONE|DICT|INTERRES
   101   49  174 1    
   102   50   51 2    
   103   50   52 1    
   104   52   53 1    
   105   52   54 1    
   106   52  175 1    
   107   53  176 1    
   108   53  177 1    
   109   53  178 1    
   110   54   55 am   BACKBONE|DICT|INTERRES
   111   54  179 1    
   112   55   56 2    
   113   55   57 1    
   114   57   58 1    
   115   57   59 1    
   116   57  180 1    
   117   58  181 1    
   118   58  182 1    
   119   58  183 1    
   120   59   60 am   BACKBONE|DICT|INTERRES
   121   59  184 1    
   122   60   61 2    
   123   60   62 1    
   124   62   63 1    
   125   62   64 1    
   126   62  185 1    
   127   63  186 1    
   128   63  187 1    
   129   63  188 1    
   130   64   65 am   BACKBONE|DICT|INTERRES
   131   64  189 1    
   132   65   66 2    
   133   67   68 2    
   134   67   69 am   BACKBONE|DICT|INTERRES
   135   69   70 1    
   136   69  190 1    
   137   70   71 1    
   138   70   72 1    
   139   70  191 1    
   140   71  192 1    
   141   71  193 1    
   142   71  194 1    
   143   72   73 2    
   144   72   74 am   BACKBONE|DICT|INTERRES
   145   74   75 1    
   146   74  195 1    
   147   75   76 1    
   148   75   77 1    
   149   75  196 1    
   150   76  197 1    
   151   76  198 1    
   152   76  199 1    
   153   77   78 2    
   154   77   79 am   BACKBONE|DICT|INTERRES
   155   79   80 1    
   156   79  200 1    
   157   80   81 1    
   158   80   82 1    
   159   80  201 1    
   160   81  202 1    
   161   81  203 1    
   162   81  204 1    
   163   82   83 2    
   164   82   84 am   BACKBONE|DICT|INTERRES
   165   84   85 1    
   166   84  205 1    
   167   85   86 1    
   168   85   87 1    
   169   85  206 1    
   170   86  207 1    
   171   86  208 1    
   172   86  209 1    
   173   87   88 2    
   174   87   89 am   BACKBONE|DICT|INTERRES
   175   89   90 1    
   176   89  210 1    
   177   90   91 1    
   178   90   92 1    
   179   90  211 1    
   180   91  212 1    
   181   91  213 1    
   182   91  214 1    
   183   92   93 2    
   184   92   94 am   BACKBONE|DICT|INTERRES
   185   94   95 1    
   186   94  215 1    
   187   95   96 1    
   188   95   97 1    
   189   95  216 1    
   190   96  217 1    
   191   96  218 1    
   192   96  219 1    
   193   97   98 2    
   194   97   99 am   BACKBONE|DICT|INTERRES
   195   99  100 1    
   196   99  220 1    
   197  100  101 1    
   198  100  102 1    
   199  100  221 1    
   200  101  222 1    
   201  101  223 1    
   202  101  224 1    
   203  102  103 2    
   204  102  104 am   BACKBONE|DICT|INTERRES
   205  104  105 1    
   206  104  225 1    
   207  105  106 1    
   208  105  107 1    
   209  105  226 1    
   210  106  227 1    
   211  106  228 1    
   212  106  229 1    
   213  107  108 2    
   214  107  109 am   BACKBONE|DICT|INTERRES
   215  109  110 1    
   216  109  230 1    
   217  110  111 1    
   218  110  112 1    
   219  110  231 1    
   220  111  232 1    
   221  111  233 1    
   222  111  234 1    
   223  112  113 2    
   224  112  114 am   BACKBONE|DICT|INTERRES
   225  114  115 1    
   226  114  235 1    
   227  115  116 1    
   228  115  117 1    
   229  115  236 1    
   230  116  237 1    
   231  116  238 1    
   232  116  239 1    
   233  117  118 2    
   234  117  119 am   BACKBONE|DICT|INTERRES
   235  119  120 1    
   236  119  240 1    
   237  120  121 1    
   238  120  124 1    
   239  120  241 1    
   240  121  122 am   BACKBONE|DICT|INTERRES
   241  121  123 2    
   242  122  242 1    
   243  122  243 1    
   244  124  125 1    
   245  124  244 1    
   246  124  245 1    
   247  125  126 1    
   248  126  246 1    
   249  126  247 1    
@<TRIPOS>SUBSTRUCTURE
     1 UNK         1 GROUP             0       ****    0 ROOT    
