@<TRIPOS>MOLECULE
3R540
247   249    1
SMALL
USER_CHARGES


@<TRIPOS>ATOM
      1 CA          4.4277   -9.6946  -48.6199 C.3       0 UNK        -0.1800 
      2 C           3.6549  -10.9327  -48.1880 C.2       0 UNK         0.5000 
      3 O           2.5023  -11.1002  -48.5854 O.2       0 UNK        -0.5000 
      4 N           4.2884  -11.7919  -47.3768 N.am      1 UNK        -0.5000 
      5 CA          3.7483  -13.0539  -46.8478 C.3       1 UNK         0.1400 
      6 C6          3.4848  -14.1263  -47.9382 C.3       23 UNK        -0.0398 
      7 S7          5.0187  -14.6480  -48.7721 S.3       23 UNK        -0.2404 
      8 C8          4.4385  -14.8613  -50.4835 C.3       23 UNK        -0.0205 
      9 C9          3.3795  -15.9492  -50.6098 C.ar      23 UNK        -0.0193 
     10 C10         2.0797  -15.6225  -51.0085 C.ar      23 UNK        -0.1150 
     11 C11         1.1160  -16.6212  -51.1709 C.ar      23 UNK        -0.0193 
     12 C12         1.4607  -17.9536  -50.9334 C.ar      23 UNK        -0.1150 
     13 C13         2.7468  -18.2940  -50.5037 C.ar      23 UNK        -0.0193 
     14 C14         3.7035  -17.2854  -50.3507 C.ar      23 UNK        -0.1150 
     15 C15         3.1115  -19.7491  -50.2311 C.3       23 UNK        -0.0205 
     16 S16         2.4752  -20.3430  -48.6264 S.3       23 UNK        -0.2404 
     17 C17         0.7205  -20.6253  -49.0279 C.3       23 UNK        -0.0398 
     18 CA          0.0121  -21.6385  -48.0977 C.3       11 UNK         0.1400 
     19 N          -0.0837  -21.1765  -46.7085 N.am      11 UNK        -0.5000 
     20 C          -0.6191  -21.8817  -45.6996 C.2       10 UNK         0.5000 
     21 O          -1.0057  -23.0450  -45.8057 O.2       10 UNK        -0.5000 
     22 CA         -0.8338  -21.1403  -44.3692 C.3       10 UNK         0.1400 
     23 CB          0.4452  -21.1245  -43.5187 C.3       10 UNK        -0.1800 
     24 N          -1.3193  -19.7772  -44.5892 N.am      10 UNK        -0.5000 
     25 C          -2.5540  -19.4862  -45.0265 C.2       9 UNK         0.5000 
     26 O          -3.4229  -20.3345  -45.2212 O.2       9 UNK        -0.5000 
     27 CA         -2.8623  -18.0121  -45.3417 C.3       9 UNK         0.1400 
     28 CB         -3.4204  -17.2939  -44.1046 C.3       9 UNK        -0.1800 
     29 N          -1.6909  -17.2965  -45.8449 N.am      9 UNK        -0.5000 
     30 C          -1.1653  -17.4867  -47.0633 C.2       8 UNK         0.5000 
     31 O          -1.6461  -18.2533  -47.8985 O.2       8 UNK        -0.5000 
     32 CA          0.1376  -16.7300  -47.3890 C.3       8 UNK         0.1400 
     33 CB         -0.1997  -15.3485  -47.9671 C.3       8 UNK        -0.1800 
     34 N           1.0400  -16.5830  -46.2404 N.am      8 UNK        -0.5000 
     35 C           1.5366  -17.6116  -45.5354 C.2       7 UNK         0.5000 
     36 O           1.3090  -18.7878  -45.8142 O.2       7 UNK        -0.5000 
     37 CA          2.3735  -17.3062  -44.2752 C.3       7 UNK         0.1400 
     38 CB          3.1855  -16.0019  -44.3508 C.3       7 UNK        -0.1800 
     39 N           1.5994  -17.3281  -43.0284 N.am      7 UNK        -0.5000 
     40 C           0.4213  -16.7362  -42.7705 C.2       6 UNK         0.5000 
     41 O          -0.2767  -16.1613  -43.6047 O.2       6 UNK        -0.5000 
     42 CA         -0.0358  -16.7561  -41.3014 C.3       6 UNK         0.1400 
     43 CB         -0.6006  -18.1337  -40.9202 C.3       6 UNK        -0.1800 
     44 N           1.0335  -16.3892  -40.3681 N.am      6 UNK        -0.5000 
     45 C           1.6748  -15.2117  -40.3627 C.2       5 UNK         0.5000 
     46 O           1.4368  -14.2920  -41.1510 O.2       5 UNK        -0.5000 
     47 CA          2.7939  -15.0564  -39.3152 C.3       5 UNK         0.1400 
     48 CB          4.0937  -15.6984  -39.8261 C.3       5 UNK        -0.1800 
     49 N           3.0581  -13.6514  -39.0154 N.am      5 UNK        -0.5000 
     50 C           2.2288  -12.8186  -38.3774 C.2       4 UNK         0.5000 
     51 O           1.1917  -13.1853  -37.8223 O.2       4 UNK        -0.5000 
     52 CA          2.5967  -11.3203  -38.3774 C.3       4 UNK         0.1400 
     53 CB          3.5358  -10.9744  -37.2060 C.3       4 UNK        -0.1800 
     54 N           3.1194  -10.8198  -39.6592 N.am      4 UNK        -0.5000 
     55 C           4.2795  -11.0940  -40.2709 C.2       3 UNK         0.5000 
     56 O           5.1235  -11.8744  -39.8263 O.2       3 UNK        -0.5000 
     57 CA          4.4955  -10.4205  -41.6397 C.3       3 UNK         0.1400 
     58 CB          5.9583  -10.5014  -42.1127 C.3       3 UNK        -0.1800 
     59 N           3.6410  -11.0213  -42.6639 N.am      3 UNK        -0.5000 
     60 C           2.3383  -10.7606  -42.8465 C.2       2 UNK         0.5000 
     61 O           1.7033   -9.9808  -42.1335 O.2       2 UNK        -0.5000 
     62 CA          1.6479  -11.4649  -44.0320 C.3       2 UNK         0.1400 
     63 CB          0.4909  -10.6393  -44.6272 C.3       2 UNK        -0.1800 
     64 N           2.6185  -11.7872  -45.0803 N.am      2 UNK        -0.5000 
     65 C           2.5381  -12.8336  -45.9106 C.2       1 UNK         0.5000 
     66 O           1.5875  -13.6165  -45.9272 O.2       1 UNK        -0.5000 
     67 C          -1.3798  -21.9745  -48.6697 C.2       11 UNK         0.5000 
     68 O          -1.5668  -23.0654  -49.2074 O.2       11 UNK        -0.5000 
     69 N          -2.3355  -21.0451  -48.5196 N.am      12 UNK        -0.5000 
     70 CA         -3.7153  -21.2014  -48.9804 C.3       12 UNK         0.1400 
     71 CB         -4.4680  -19.8735  -48.8235 C.3       12 UNK        -0.1800 
     72 C          -4.4691  -22.3494  -48.2872 C.2       12 UNK         0.5000 
     73 O          -5.2485  -23.0331  -48.9481 O.2       12 UNK        -0.5000 
     74 N          -4.2067  -22.5598  -46.9896 N.am      13 UNK        -0.5000 
     75 CA         -4.7377  -23.6770  -46.2091 C.3       13 UNK         0.1400 
     76 CB         -4.5020  -23.4226  -44.7128 C.3       13 UNK        -0.1800 
     77 C          -4.1399  -25.0314  -46.6316 C.2       13 UNK         0.5000 
     78 O          -4.8762  -26.0127  -46.7263 O.2       13 UNK        -0.5000 
     79 N          -2.8260  -25.0662  -46.8941 N.am      14 UNK        -0.5000 
     80 CA         -2.1087  -26.2566  -47.3558 C.3       14 UNK         0.1400 
     81 CB         -0.5949  -26.0076  -47.2725 C.3       14 UNK        -0.1800 
     82 C          -2.5133  -26.6794  -48.7802 C.2       14 UNK         0.5000 
     83 O          -2.6698  -27.8721  -49.0422 O.2       14 UNK        -0.5000 
     84 N          -2.6940  -25.6916  -49.6645 N.am      15 UNK        -0.5000 
     85 CA         -3.0791  -25.8695  -51.0646 C.3       15 UNK         0.1400 
     86 CB         -2.4124  -24.7572  -51.8911 C.3       15 UNK        -0.1800 
     87 C          -4.6052  -25.8701  -51.2861 C.2       15 UNK         0.5000 
     88 O          -5.0336  -25.8205  -52.4422 O.2       15 UNK        -0.5000 
     89 N          -5.4027  -25.8742  -50.2075 N.am      16 UNK        -0.5000 
     90 CA         -6.8656  -25.7802  -50.2245 C.3       16 UNK         0.1400 
     91 CB         -7.4051  -25.8545  -48.7894 C.3       16 UNK        -0.1800 
     92 C          -7.5320  -26.8563  -51.0996 C.2       16 UNK         0.5000 
     93 O          -7.0984  -28.0105  -51.0898 O.2       16 UNK        -0.5000 
     94 N          -8.5498  -26.4387  -51.8640 N.am      17 UNK        -0.5000 
     95 CA         -9.3152  -27.1885  -52.8716 C.3       17 UNK         0.1400 
     96 CB        -10.0082  -28.4218  -52.2607 C.3       17 UNK        -0.1800 
     97 C          -8.5154  -27.5653  -54.1372 C.2       17 UNK         0.5000 
     98 O          -9.0875  -27.5569  -55.2279 O.2       17 UNK        -0.5000 
     99 N          -7.2195  -27.8678  -53.9887 N.am      18 UNK        -0.5000 
    100 CA        -6.2939  -28.1745  -55.0778 C.3       18 UNK         0.1400 
    101 CB        -5.0142  -28.7975  -54.4983 C.3       18 UNK        -0.1800 
    102 C         -5.9619  -26.9384  -55.9328 C.2       18 UNK         0.5000 
    103 O         -5.9207  -27.0455  -57.1595 O.2       18 UNK        -0.5000 
    104 N         -5.7468  -25.7919  -55.2747 N.am      19 UNK        -0.5000 
    105 CA        -5.4374  -24.5137  -55.9191 C.3       19 UNK         0.1400 
    106 CB        -3.9507  -24.4711  -56.3202 C.3       19 UNK        -0.1800 
    107 C         -5.7853  -23.3004  -55.0414 C.2       19 UNK         0.5000 
    108 O         -6.1026  -22.2440  -55.5872 O.2       19 UNK        -0.5000 
    109 N         -5.6926  -23.4570  -53.7110 N.am      20 UNK        -0.5000 
    110 CA        -5.8345  -22.4184  -52.6803 C.3       20 UNK         0.1400 
    111 CB        -7.2676  -21.8505  -52.6468 C.3       20 UNK        -0.1800 
    112 C         -4.7476  -21.3229  -52.7639 C.2       20 UNK         0.5000 
    113 O         -4.9809  -20.1873  -52.3449 O.2       20 UNK        -0.5000 
    114 N         -3.5700  -21.6984  -53.2881 N.am      21 UNK        -0.5000 
    115 CA        -2.3736  -20.8787  -53.4929 C.3       21 UNK         0.1400 
    116 CB        -1.6767  -20.5944  -52.1445 C.3       21 UNK        -0.1800 
    117 C         -2.6805  -19.6164  -54.3236 C.2       21 UNK         0.5000 
    118 O         -2.9507  -19.7372  -55.5196 O.2       21 UNK        -0.5000 
    119 N         -2.6429  -18.4439  -53.6815 N.am      22 UNK        -0.5000 
    120 CA        -2.9755  -17.1442  -54.2842 C.3       22 UNK         0.1400 
    121 C         -4.5049  -16.8818  -54.4273 C.2       22 UNK         0.5000 
    122 N         -5.3863  -17.7017  -53.8651 N.am      22 UNK        -0.7600 
    123 O         -4.9013  -15.9128  -55.0691 O.2       22 UNK        -0.5000 
    124 C124       -2.2823  -15.9676  -53.5481 C.3       23 UNK        -0.0398 
    125 S125       -0.4735  -16.1823  -53.3927 S.3       23 UNK        -0.2404 
    126 C126       -0.3019  -16.2637  -51.5849 C.3       23 UNK        -0.0205 
    127 H127        5.4321   -9.6739  -48.1962 H         1 UNK         0.0600 
    128 H128        3.9042   -8.7944  -48.2979 H         1 UNK         0.0600 
    129 H129        4.5168   -9.6685  -49.7060 H         1 UNK         0.0600 
    130 H130        5.2412  -11.5895  -47.1077 H         1 UNK         0.3000 
    131 H131        4.5263  -13.4528  -46.1948 H         1 UNK         0.0600 
    132 H132        2.7687  -13.7549  -48.6716 H         1 UNK         0.0800 
    133 H133        3.0442  -15.0277  -47.5121 H         1 UNK         0.0800 
    134 H134        4.0646  -13.9057  -50.8549 H         1 UNK         0.0800 
    135 H135        5.2899  -15.1215  -51.1138 H         1 UNK         0.0800 
    136 H136        1.8173  -14.5919  -51.2025 H         1 UNK         0.1150 
    137 H137        0.7200  -18.7245  -51.0760 H         1 UNK         0.1150 
    138 H138        4.7059  -17.5376  -50.0341 H         1 UNK         0.1150 
    139 H139        2.7444  -20.3828  -51.0396 H         1 UNK         0.0800 
    140 H140        4.1962  -19.8657  -50.2320 H         1 UNK         0.0800 
    141 H141        0.6691  -20.9756  -50.0605 H         1 UNK         0.0800 
    142 H142        0.2088  -19.6644  -49.0027 H         1 UNK         0.0800 
    143 H143        0.5931  -22.5632  -48.0940 H         1 UNK         0.0600 
    144 H144        0.2789  -20.2473  -46.5119 H         1 UNK         0.3000 
    145 H145       -1.5960  -21.6839  -43.8067 H         1 UNK         0.0600 
    146 H146        0.7788  -22.1409  -43.3066 H         1 UNK         0.0600 
    147 H147        1.2674  -20.6124  -44.0166 H         1 UNK         0.0600 
    148 H148        0.2745  -20.6346  -42.5611 H         1 UNK         0.0600 
    149 H149       -0.6339  -19.0371  -44.5411 H         1 UNK         0.3000 
    150 H150       -3.6323  -17.9911  -46.1154 H         1 UNK         0.0600 
    151 H151       -3.6712  -16.2574  -44.3304 H         1 UNK         0.0600 
    152 H152       -2.7096  -17.2937  -43.2791 H         1 UNK         0.0600 
    153 H153       -4.3309  -17.7797  -43.7513 H         1 UNK         0.0600 
    154 H154       -1.2064  -16.6888  -45.1880 H         1 UNK         0.3000 
    155 H155        0.6673  -17.3023  -48.1527 H         1 UNK         0.0600 
    156 H156       -0.9294  -15.4271  -48.7731 H         1 UNK         0.0600 
    157 H157        0.6839  -14.8645  -48.3787 H         1 UNK         0.0600 
    158 H158       -0.6233  -14.6889  -47.2088 H         1 UNK         0.0600 
    159 H159        1.2120  -15.6338  -45.9228 H         1 UNK         0.3000 
    160 H160        3.0934  -18.1231  -44.2031 H         1 UNK         0.0600 
    161 H161        3.6529  -15.8727  -45.3270 H         1 UNK         0.0600 
    162 H162        3.9855  -16.0051  -43.6103 H         1 UNK         0.0600 
    163 H163        2.5637  -15.1337  -44.1409 H         1 UNK         0.0600 
    164 H164        2.0566  -17.7878  -42.2545 H         1 UNK         0.3000 
    165 H165       -0.8360  -16.0202  -41.1975 H         1 UNK         0.0600 
    166 H166       -1.0693  -18.1061  -39.9364 H         1 UNK         0.0600 
    167 H167       -1.3602  -18.4623  -41.6305 H         1 UNK         0.0600 
    168 H168        0.1779  -18.8965  -40.8961 H         1 UNK         0.0600 
    169 H169        1.2930  -17.0880  -39.6869 H         1 UNK         0.3000 
    170 H170        2.4871  -15.5550  -38.3934 H         1 UNK         0.0600 
    171 H171        4.8924  -15.6120  -39.0891 H         1 UNK         0.0600 
    172 H172        3.9554  -16.7607  -40.0306 H         1 UNK         0.0600 
    173 H173        4.4374  -15.2282  -40.7488 H         1 UNK         0.0600 
    174 H174        3.8887  -13.2412  -39.4318 H         1 UNK         0.3000 
    175 H175        1.6650  -10.7759  -38.2153 H         1 UNK         0.0600 
    176 H176        4.4860  -11.5049  -37.2714 H         1 UNK         0.0600 
    177 H177        3.7487   -9.9059  -37.1733 H         1 UNK         0.0600 
    178 H178        3.0802  -11.2443  -36.2525 H         1 UNK         0.0600 
    179 H179        2.4684  -10.2458  -40.1851 H         1 UNK         0.3000 
    180 H180        4.2403   -9.3637  -41.5338 H         1 UNK         0.0600 
    181 H181        6.1006   -9.9569  -43.0464 H         1 UNK         0.0600 
    182 H182        6.2766  -11.5322  -42.2743 H         1 UNK         0.0600 
    183 H183        6.6314  -10.0611  -41.3759 H         1 UNK         0.0600 
    184 H184        4.0721  -11.7293  -43.2390 H         1 UNK         0.3000 
    185 H185        1.2370  -12.3935  -43.6290 H         1 UNK         0.0600 
    186 H186        0.8437   -9.6868  -45.0239 H         1 UNK         0.0600 
    187 H187       -0.0019  -11.1773  -45.4372 H         1 UNK         0.0600 
    188 H188       -0.2692  -10.4248  -43.8752 H         1 UNK         0.0600 
    189 H189        3.4097  -11.1635  -45.1597 H         1 UNK         0.3000 
    190 H190       -2.0962  -20.1497  -48.1032 H         1 UNK         0.3000 
    191 H191       -3.6763  -21.4438  -50.0427 H         1 UNK         0.0600 
    192 H192       -4.5306  -19.5679  -47.7791 H         1 UNK         0.0600 
    193 H193       -5.4861  -19.9560  -49.2063 H         1 UNK         0.0600 
    194 H194       -3.9774  -19.0748  -49.3804 H         1 UNK         0.0600 
    195 H195       -3.6114  -21.9029  -46.4966 H         1 UNK         0.3000 
    196 H196       -5.8159  -23.7228  -46.3757 H         1 UNK         0.0600 
    197 H197       -4.9019  -24.2387  -44.1099 H         1 UNK         0.0600 
    198 H198       -4.9949  -22.5064  -44.3871 H         1 UNK         0.0600 
    199 H199       -3.4406  -23.3319  -44.4811 H         1 UNK         0.0600 
    200 H200       -2.2695  -24.2298  -46.7424 H         1 UNK         0.3000 
    201 H201       -2.3530  -27.0807  -46.6823 H         1 UNK         0.0600 
    202 H202       -0.2881  -25.7897  -46.2494 H         1 UNK         0.0600 
    203 H203       -0.2893  -25.1681  -47.8978 H         1 UNK         0.0600 
    204 H204       -0.0352  -26.8842  -47.6007 H         1 UNK         0.0600 
    205 H205       -2.4925  -24.7379  -49.3732 H         1 UNK         0.3000 
    206 H206       -2.7035  -26.8286  -51.4266 H         1 UNK         0.0600 
    207 H207       -2.6091  -24.8783  -52.9568 H         1 UNK         0.0600 
    208 H208       -2.7747  -23.7734  -51.5926 H         1 UNK         0.0600 
    209 H209       -1.3301  -24.7648  -51.7607 H         1 UNK         0.0600 
    210 H210       -4.9687  -25.9050  -49.2963 H         1 UNK         0.3000 
    211 H211       -7.1146  -24.7979  -50.6309 H         1 UNK         0.0600 
    212 H212       -7.1144  -26.7847  -48.2996 H         1 UNK         0.0600 
    213 H213       -8.4944  -25.8007  -48.7746 H         1 UNK         0.0600 
    214 H214       -7.0348  -25.0258  -48.1868 H         1 UNK         0.0600 
    215 H215       -8.8068  -25.4637  -51.7975 H         1 UNK         0.3000 
    216 H216      -10.1019  -26.5076  -53.2003 H         1 UNK         0.0600 
    217 H217      -10.6790  -28.8861  -52.9845 H         1 UNK         0.0600 
    218 H218      -10.6070  -28.1483  -51.3919 H         1 UNK         0.0600 
    219 H219       -9.2926  -29.1833  -51.9502 H         1 UNK         0.0600 
    220 H220       -6.8457  -27.8818  -53.0453 H         1 UNK         0.3000 
    221 H221       -6.7665  -28.9140  -55.7277 H         1 UNK         0.0600 
    222 H222       -4.5013  -28.1143  -53.8208 H         1 UNK         0.0600 
    223 H223       -5.2362  -29.7110  -53.9465 H         1 UNK         0.0600 
    224 H224       -4.3138  -29.0591  -55.2924 H         1 UNK         0.0600 
    225 H225       -5.7730  -25.8097  -54.2608 H         1 UNK         0.3000 
    226 H226       -6.0437  -24.4248  -56.8232 H         1 UNK         0.0600 
    227 H227       -3.7157  -25.2385  -57.0577 H         1 UNK         0.0600 
    228 H228       -3.6901  -23.5088  -56.7634 H         1 UNK         0.0600 
    229 H229       -3.2993  -24.6252  -55.4594 H         1 UNK         0.0600 
    230 H230       -5.4127  -24.3656  -53.3475 H         1 UNK         0.3000 
    231 H231       -5.6666  -22.9209  -51.7269 H         1 UNK         0.0600 
    232 H232       -7.4893  -21.2534  -53.5315 H         1 UNK         0.0600 
    233 H233       -8.0067  -22.6491  -52.5850 H         1 UNK         0.0600 
    234 H234       -7.4113  -21.2087  -51.7768 H         1 UNK         0.0600 
    235 H235       -3.5085  -22.6408  -53.6420 H         1 UNK         0.3000 
    236 H236       -1.6879  -21.4782  -54.0935 H         1 UNK         0.0600 
    237 H237       -0.7535  -20.0355  -52.2970 H         1 UNK         0.0600 
    238 H238       -1.4070  -21.5265  -51.6491 H         1 UNK         0.0600 
    239 H239       -2.3052  -20.0244  -51.4600 H         1 UNK         0.0600 
    240 H240       -2.4412  -18.4396  -52.6939 H         1 UNK         0.3000 
    241 H241       -2.5849  -17.1506  -55.3037 H         1 UNK         0.0600 
    242 H242       -6.3699  -17.5141  -53.9731 H         1 UNK         0.3800 
    243 H243       -5.0903  -18.5156  -53.3334 H         1 UNK         0.3800 
    244 H244       -2.4541  -15.0339  -54.0865 H         1 UNK         0.0800 
    245 H245       -2.7238  -15.8275  -52.5599 H         1 UNK         0.0800 
    246 H246       -0.5815  -15.2993  -51.1586 H         1 UNK         0.0800 
    247 H247       -1.0017  -16.9965  -51.1794 H         1 UNK         0.0800 
@<TRIPOS>BOND
     1    1    2 1    
     2    1  127 1    
     3    1  128 1    
     4    1  129 1    
     5    2    3 2    
     6    2    4 am   BACKBONE|DICT|INTERRES
     7    4    5 1    
     8    4  130 1    
     9    5    6 1    
    10    5   65 1    
    11    5  131 1    
    12    6    7 1    
    13    6  132 1    
    14    6  133 1    
    15    7    8 1    
    16    8    9 1    
    17    8  134 1    
    18    8  135 1    
    19    9   10 ar   
    20    9   14 ar   
    21   10   11 ar   
    22   10  136 1    
    23   11   12 ar   
    24   11  126 1    
    25   12   13 ar   
    26   12  137 1    
    27   13   14 ar   
    28   13   15 1    
    29   14  138 1    
    30   15   16 1    
    31   15  139 1    
    32   15  140 1    
    33   16   17 1    
    34   17   18 1    
    35   17  141 1    
    36   17  142 1    
    37   18   19 1    
    38   18   67 1    
    39   18  143 1    
    40   19   20 am   BACKBONE|DICT|INTERRES
    41   19  144 1    
    42   20   21 2    
    43   20   22 1    
    44   22   23 1    
    45   22   24 1    
    46   22  145 1    
    47   23  146 1    
    48   23  147 1    
    49   23  148 1    
    50   24   25 am   BACKBONE|DICT|INTERRES
    51   24  149 1    
    52   25   26 2    
    53   25   27 1    
    54   27   28 1    
    55   27   29 1    
    56   27  150 1    
    57   28  151 1    
    58   28  152 1    
    59   28  153 1    
    60   29   30 am   BACKBONE|DICT|INTERRES
    61   29  154 1    
    62   30   31 2    
    63   30   32 1    
    64   32   33 1    
    65   32   34 1    
    66   32  155 1    
    67   33  156 1    
    68   33  157 1    
    69   33  158 1    
    70   34   35 am   BACKBONE|DICT|INTERRES
    71   34  159 1    
    72   35   36 2    
    73   35   37 1    
    74   37   38 1    
    75   37   39 1    
    76   37  160 1    
    77   38  161 1    
    78   38  162 1    
    79   38  163 1    
    80   39   40 am   BACKBONE|DICT|INTERRES
    81   39  164 1    
    82   40   41 2    
    83   40   42 1    
    84   42   43 1    
    85   42   44 1    
    86   42  165 1    
    87   43  166 1    
    88   43  167 1    
    89   43  168 1    
    90   44   45 am   BACKBONE|DICT|INTERRES
    91   44  169 1    
    92   45   46 2    
    93   45   47 1    
    94   47   48 1    
    95   47   49 1    
    96   47  170 1    
    97   48  171 1    
    98   48  172 1    
    99   48  173 1    
   100   49   50 am   BACKBONE|DICT|INTERRES
   101   49  174 1    
   102   50   51 2    
   103   50   52 1    
   104   52   53 1    
   105   52   54 1    
   106   52  175 1    
   107   53  176 1    
   108   53  177 1    
   109   53  178 1    
   110   54   55 am   BACKBONE|DICT|INTERRES
   111   54  179 1    
   112   55   56 2    
   113   55   57 1    
   114   57   58 1    
   115   57   59 1    
   116   57  180 1    
   117   58  181 1    
   118   58  182 1    
   119   58  183 1    
   120   59   60 am   BACKBONE|DICT|INTERRES
   121   59  184 1    
   122   60   61 2    
   123   60   62 1    
   124   62   63 1    
   125   62   64 1    
   126   62  185 1    
   127   63  186 1    
   128   63  187 1    
   129   63  188 1    
   130   64   65 am   BACKBONE|DICT|INTERRES
   131   64  189 1    
   132   65   66 2    
   133   67   68 2    
   134   67   69 am   BACKBONE|DICT|INTERRES
   135   69   70 1    
   136   69  190 1    
   137   70   71 1    
   138   70   72 1    
   139   70  191 1    
   140   71  192 1    
   141   71  193 1    
   142   71  194 1    
   143   72   73 2    
   144   72   74 am   BACKBONE|DICT|INTERRES
   145   74   75 1    
   146   74  195 1    
   147   75   76 1    
   148   75   77 1    
   149   75  196 1    
   150   76  197 1    
   151   76  198 1    
   152   76  199 1    
   153   77   78 2    
   154   77   79 am   BACKBONE|DICT|INTERRES
   155   79   80 1    
   156   79  200 1    
   157   80   81 1    
   158   80   82 1    
   159   80  201 1    
   160   81  202 1    
   161   81  203 1    
   162   81  204 1    
   163   82   83 2    
   164   82   84 am   BACKBONE|DICT|INTERRES
   165   84   85 1    
   166   84  205 1    
   167   85   86 1    
   168   85   87 1    
   169   85  206 1    
   170   86  207 1    
   171   86  208 1    
   172   86  209 1    
   173   87   88 2    
   174   87   89 am   BACKBONE|DICT|INTERRES
   175   89   90 1    
   176   89  210 1    
   177   90   91 1    
   178   90   92 1    
   179   90  211 1    
   180   91  212 1    
   181   91  213 1    
   182   91  214 1    
   183   92   93 2    
   184   92   94 am   BACKBONE|DICT|INTERRES
   185   94   95 1    
   186   94  215 1    
   187   95   96 1    
   188   95   97 1    
   189   95  216 1    
   190   96  217 1    
   191   96  218 1    
   192   96  219 1    
   193   97   98 2    
   194   97   99 am   BACKBONE|DICT|INTERRES
   195   99  100 1    
   196   99  220 1    
   197  100  101 1    
   198  100  102 1    
   199  100  221 1    
   200  101  222 1    
   201  101  223 1    
   202  101  224 1    
   203  102  103 2    
   204  102  104 am   BACKBONE|DICT|INTERRES
   205  104  105 1    
   206  104  225 1    
   207  105  106 1    
   208  105  107 1    
   209  105  226 1    
   210  106  227 1    
   211  106  228 1    
   212  106  229 1    
   213  107  108 2    
   214  107  109 am   BACKBONE|DICT|INTERRES
   215  109  110 1    
   216  109  230 1    
   217  110  111 1    
   218  110  112 1    
   219  110  231 1    
   220  111  232 1    
   221  111  233 1    
   222  111  234 1    
   223  112  113 2    
   224  112  114 am   BACKBONE|DICT|INTERRES
   225  114  115 1    
   226  114  235 1    
   227  115  116 1    
   228  115  117 1    
   229  115  236 1    
   230  116  237 1    
   231  116  238 1    
   232  116  239 1    
   233  117  118 2    
   234  117  119 am   BACKBONE|DICT|INTERRES
   235  119  120 1    
   236  119  240 1    
   237  120  121 1    
   238  120  124 1    
   239  120  241 1    
   240  121  122 am   BACKBONE|DICT|INTERRES
   241  121  123 2    
   242  122  242 1    
   243  122  243 1    
   244  124  125 1    
   245  124  244 1    
   246  124  245 1    
   247  125  126 1    
   248  126  246 1    
   249  126  247 1    
@<TRIPOS>SUBSTRUCTURE
     1 UNK         1 GROUP             0       ****    0 ROOT    
