@<TRIPOS>MOLECULE
3R540
247   249    1
SMALL
USER_CHARGES


@<TRIPOS>ATOM
      1 CA         -0.7375  -13.8639  -41.8334 C.3       0 UNK        -0.1800 
      2 C          -0.7013  -13.0583  -43.1240 C.2       0 UNK         0.5000 
      3 O          -1.5154  -12.1507  -43.2989 O.2       0 UNK        -0.5000 
      4 N           0.2404  -13.3703  -44.0225 N.am      1 UNK        -0.5000 
      5 CA          0.4639  -12.7045  -45.3136 C.3       1 UNK         0.1400 
      6 C6          1.2526  -13.6081  -46.2959 C.3       23 UNK        -0.0398 
      7 S7          0.3269  -15.0967  -46.7995 S.3       23 UNK        -0.2404 
      8 C8          1.0543  -15.3723  -48.4448 C.3       23 UNK        -0.0205 
      9 C9          0.4076  -16.5496  -49.1555 C.ar      23 UNK        -0.0193 
     10 C10        -0.8208  -16.3841  -49.7990 C.ar      23 UNK        -0.1150 
     11 C11        -1.4182  -17.4513  -50.4729 C.ar      23 UNK        -0.0193 
     12 C12        -0.7845  -18.6975  -50.4883 C.ar      23 UNK        -0.1150 
     13 C13         0.4502  -18.8786  -49.8552 C.ar      23 UNK        -0.0193 
     14 C14         1.0445  -17.7934  -49.1981 C.ar      23 UNK        -0.1150 
     15 C15         1.1347  -20.2434  -49.9317 C.3       23 UNK        -0.0205 
     16 S16         2.0616  -20.7357  -48.4333 S.3       23 UNK        -0.2404 
     17 C17         0.7873  -20.6320  -47.1331 C.3       23 UNK        -0.0398 
     18 CA          0.1103  -21.9849  -46.8070 C.3       11 UNK         0.1400 
     19 N          -0.5092  -21.9629  -45.4805 N.am      11 UNK        -0.5000 
     20 C          -0.9647  -23.0394  -44.8229 C.2       10 UNK         0.5000 
     21 O          -0.8524  -24.1895  -45.2437 O.2       10 UNK        -0.5000 
     22 CA         -1.7087  -22.7893  -43.4940 C.3       10 UNK         0.1400 
     23 CB         -0.7300  -22.8551  -42.3126 C.3       10 UNK        -0.1800 
     24 N          -2.4161  -21.5074  -43.4577 N.am      10 UNK        -0.5000 
     25 C          -3.4087  -21.1537  -44.2867 C.2       9 UNK         0.5000 
     26 O          -3.9062  -21.9209  -45.1105 O.2       9 UNK        -0.5000 
     27 CA         -3.8802  -19.6840  -44.2364 C.3       9 UNK         0.1400 
     28 CB         -5.1573  -19.5621  -43.3927 C.3       9 UNK        -0.1800 
     29 N          -2.8786  -18.7323  -43.7328 N.am      9 UNK        -0.5000 
     30 C          -1.6544  -18.5428  -44.2464 C.2       8 UNK         0.5000 
     31 O          -1.2224  -19.1839  -45.2073 O.2       8 UNK        -0.5000 
     32 CA         -0.7408  -17.5216  -43.5458 C.3       8 UNK         0.1400 
     33 CB         -0.8727  -17.5640  -42.0075 C.3       8 UNK        -0.1800 
     34 N           0.6371  -17.8048  -43.9361 N.am      8 UNK        -0.5000 
     35 C           1.6684  -16.9648  -43.8364 C.2       7 UNK         0.5000 
     36 O           1.5716  -15.8083  -43.4204 O.2       7 UNK        -0.5000 
     37 CA          3.0332  -17.5060  -44.2897 C.3       7 UNK         0.1400 
     38 CB          3.2943  -17.1633  -45.7636 C.3       7 UNK        -0.1800 
     39 N           4.0708  -16.8991  -43.4639 N.am      7 UNK        -0.5000 
     40 C           4.6133  -17.4677  -42.3785 C.2       6 UNK         0.5000 
     41 O           4.4462  -18.6480  -42.0680 O.2       6 UNK        -0.5000 
     42 CA          5.4662  -16.5621  -41.4640 C.3       6 UNK         0.1400 
     43 CB          6.9499  -16.6451  -41.8532 C.3       6 UNK        -0.1800 
     44 N           5.0416  -15.1619  -41.4998 N.am      6 UNK        -0.5000 
     45 C           3.8580  -14.7070  -41.0649 C.2       5 UNK         0.5000 
     46 O           3.0742  -15.3885  -40.4028 O.2       5 UNK        -0.5000 
     47 CA          3.4702  -13.2582  -41.4351 C.3       5 UNK         0.1400 
     48 CB          3.4033  -12.3808  -40.1752 C.3       5 UNK        -0.1800 
     49 N           4.3336  -12.5947  -42.4209 N.am      5 UNK        -0.5000 
     50 C           4.5546  -12.9834  -43.6849 C.2       4 UNK         0.5000 
     51 O           4.1301  -14.0390  -44.1528 O.2       4 UNK        -0.5000 
     52 CA          5.3954  -12.0326  -44.5576 C.3       4 UNK         0.1400 
     53 CB          5.4087  -12.4462  -46.0408 C.3       4 UNK        -0.1800 
     54 N           4.8882  -10.6655  -44.4496 N.am      4 UNK        -0.5000 
     55 C           5.3575   -9.7268  -43.6167 C.2       3 UNK         0.5000 
     56 O           6.3050   -9.9128  -42.8527 O.2       3 UNK        -0.5000 
     57 CA          4.6413   -8.3612  -43.6089 C.3       3 UNK         0.1400 
     58 CB          5.4035   -7.3509  -44.4798 C.3       3 UNK        -0.1800 
     59 N           3.2523   -8.4284  -44.0660 N.am      3 UNK        -0.5000 
     60 C           2.2492   -9.0061  -43.3916 C.2       2 UNK         0.5000 
     61 O           2.3806   -9.5118  -42.2764 O.2       2 UNK        -0.5000 
     62 CA          0.8675   -9.0495  -44.0773 C.3       2 UNK         0.1400 
     63 CB          0.7533   -8.1554  -45.3328 C.3       2 UNK        -0.1800 
     64 N           0.4675  -10.4227  -44.3951 N.am      2 UNK        -0.5000 
     65 C           1.1332  -11.3186  -45.1374 C.2       1 UNK         0.5000 
     66 O           2.2206  -11.0813  -45.6677 O.2       1 UNK        -0.5000 
     67 C          -0.9249  -22.3684  -47.8815 C.2       11 UNK         0.5000 
     68 O          -0.6441  -23.2170  -48.7270 O.2       11 UNK        -0.5000 
     69 N          -2.1222  -21.7699  -47.8007 N.am      12 UNK        -0.5000 
     70 CA         -3.2491  -22.0732  -48.6804 C.3       12 UNK         0.1400 
     71 CB         -4.3614  -21.0340  -48.4802 C.3       12 UNK        -0.1800 
     72 C          -3.7787  -23.5038  -48.4782 C.2       12 UNK         0.5000 
     73 O          -4.0640  -24.1877  -49.4604 O.2       12 UNK        -0.5000 
     74 N          -3.8491  -23.9486  -47.2160 N.am      13 UNK        -0.5000 
     75 CA         -4.2123  -25.3159  -46.8399 C.3       13 UNK         0.1400 
     76 CB         -4.3528  -25.4093  -45.3136 C.3       13 UNK        -0.1800 
     77 C          -3.2140  -26.3670  -47.3636 C.2       13 UNK         0.5000 
     78 O          -3.6399  -27.4328  -47.8089 O.2       13 UNK        -0.5000 
     79 N          -1.9139  -26.0398  -47.3277 N.am      14 UNK        -0.5000 
     80 CA         -0.8384  -26.8578  -47.8890 C.3       14 UNK         0.1400 
     81 CB          0.5185  -26.3523  -47.3756 C.3       14 UNK        -0.1800 
     82 C          -0.8619  -26.8957  -49.4287 C.2       14 UNK         0.5000 
     83 O          -0.6053  -27.9525  -50.0071 O.2       14 UNK        -0.5000 
     84 N          -1.1760  -25.7553  -50.0624 N.am      15 UNK        -0.5000 
     85 CA         -1.3329  -25.6225  -51.5126 C.3       15 UNK         0.1400 
     86 CB         -1.4624  -24.1384  -51.8881 C.3       15 UNK        -0.1800 
     87 C          -2.5265  -26.4325  -52.0520 C.2       15 UNK         0.5000 
     88 O          -2.3870  -27.1088  -53.0719 O.2       15 UNK        -0.5000 
     89 N          -3.6576  -26.3681  -51.3343 N.am      16 UNK        -0.5000 
     90 CA         -4.9036  -27.1333  -51.4766 C.3       16 UNK         0.1400 
     91 CB         -4.6501  -28.6376  -51.2665 C.3       16 UNK        -0.1800 
     92 C          -5.7082  -26.8866  -52.7701 C.2       16 UNK         0.5000 
     93 O          -6.9322  -26.7687  -52.6980 O.2       16 UNK        -0.5000 
     94 N          -5.0323  -26.8171  -53.9223 N.am      17 UNK        -0.5000 
     95 CA         -5.6151  -26.5225  -55.2299 C.3       17 UNK         0.1400 
     96 CB         -4.5727  -26.8109  -56.3205 C.3       17 UNK        -0.1800 
     97 C          -6.0751  -25.0584  -55.3006 C.2       17 UNK         0.5000 
     98 O          -5.2869  -24.1670  -54.9824 O.2       17 UNK        -0.5000 
     99 N          -7.3207  -24.8300  -55.7368 N.am      18 UNK        -0.5000 
    100 CA        -8.0122  -23.5321  -55.7354 C.3       18 UNK         0.1400 
    101 CB        -9.4445  -23.7376  -56.2523 C.3       18 UNK        -0.1800 
    102 C         -7.3176  -22.3985  -56.5194 C.2       18 UNK         0.5000 
    103 O         -7.5911  -21.2273  -56.2565 O.2       18 UNK        -0.5000 
    104 N         -6.4253  -22.7563  -57.4519 N.am      19 UNK        -0.5000 
    105 CA        -5.5744  -21.8254  -58.1935 C.3       19 UNK         0.1400 
    106 CB        -4.9313  -22.5753  -59.3704 C.3       19 UNK        -0.1800 
    107 C         -4.4870  -21.1589  -57.3237 C.2       19 UNK         0.5000 
    108 O         -4.0286  -20.0707  -57.6743 O.2       19 UNK        -0.5000 
    109 N         -4.0886  -21.8167  -56.2260 N.am      20 UNK        -0.5000 
    110 CA        -3.0512  -21.3585  -55.3002 C.3       20 UNK         0.1400 
    111 CB        -1.8967  -22.3714  -55.3180 C.3       20 UNK        -0.1800 
    112 C         -3.5868  -21.1706  -53.8699 C.2       20 UNK         0.5000 
    113 O         -3.0810  -20.3128  -53.1467 O.2       20 UNK        -0.5000 
    114 N         -4.5909  -21.9629  -53.4755 N.am      21 UNK        -0.5000 
    115 CA        -5.2549  -21.8986  -52.1794 C.3       21 UNK         0.1400 
    116 CB        -5.9709  -23.2315  -51.9131 C.3       21 UNK        -0.1800 
    117 C         -6.2221  -20.7039  -52.1134 C.2       21 UNK         0.5000 
    118 O         -7.3779  -20.8203  -52.5236 O.2       21 UNK        -0.5000 
    119 N         -5.7217  -19.5750  -51.6029 N.am      22 UNK        -0.5000 
    120 CA        -6.4700  -18.3252  -51.3871 C.3       22 UNK         0.1400 
    121 C         -7.4863  -18.3404  -50.2041 C.2       22 UNK         0.5000 
    122 N         -7.5544  -19.3846  -49.3877 N.am      22 UNK        -0.7600 
    123 O         -8.2436  -17.3886  -50.0340 O.2       22 UNK        -0.5000 
    124 C124       -5.5194  -17.1003  -51.3190 C.3       23 UNK        -0.0398 
    125 S125       -4.1610  -17.2787  -50.1053 S.3       23 UNK        -0.2404 
    126 C126       -2.7249  -17.2407  -51.2194 C.3       23 UNK        -0.0205 
    127 H127       -0.8641  -13.1994  -40.9788 H         1 UNK         0.0600 
    128 H128        0.1816  -14.4288  -41.6815 H         1 UNK         0.0600 
    129 H129       -1.5737  -14.5622  -41.8508 H         1 UNK         0.0600 
    130 H130        0.8544  -14.1609  -43.8290 H         1 UNK         0.3000 
    131 H131       -0.5114  -12.5119  -45.7656 H         1 UNK         0.0600 
    132 H132        1.5037  -13.0498  -47.1994 H         1 UNK         0.0800 
    133 H133        2.2005  -13.9184  -45.8575 H         1 UNK         0.0800 
    134 H134        0.9333  -14.4749  -49.0535 H         1 UNK         0.0800 
    135 H135        2.1286  -15.5330  -48.3407 H         1 UNK         0.0800 
    136 H136       -1.3100  -15.4202  -49.7811 H         1 UNK         0.1150 
    137 H137       -1.2460  -19.5221  -51.0145 H         1 UNK         0.1150 
    138 H138        2.0059  -17.9145  -48.7208 H         1 UNK         0.1150 
    139 H139        0.4028  -21.0205  -50.1565 H         1 UNK         0.0800 
    140 H140        1.8276  -20.2295  -50.7737 H         1 UNK         0.0800 
    141 H141        1.2998  -20.2612  -46.2448 H         1 UNK         0.0800 
    142 H142        0.0507  -19.8664  -47.3798 H         1 UNK         0.0800 
    143 H143        0.8790  -22.7609  -46.7914 H         1 UNK         0.0600 
    144 H144       -0.7101  -21.0412  -45.1064 H         1 UNK         0.3000 
    145 H145       -2.4479  -23.5826  -43.3710 H         1 UNK         0.0600 
    146 H146       -1.2529  -22.7590  -41.3608 H         1 UNK         0.0600 
    147 H147       -0.2014  -23.8092  -42.2965 H         1 UNK         0.0600 
    148 H148        0.0201  -22.0648  -42.3660 H         1 UNK         0.0600 
    149 H149       -2.0741  -20.8192  -42.8041 H         1 UNK         0.3000 
    150 H150       -4.1191  -19.3918  -45.2610 H         1 UNK         0.0600 
    151 H151       -5.5639  -18.5515  -43.4349 H         1 UNK         0.0600 
    152 H152       -4.9729  -19.8081  -42.3463 H         1 UNK         0.0600 
    153 H153       -5.9329  -20.2373  -43.7572 H         1 UNK         0.0600 
    154 H154       -3.1552  -18.1817  -42.9329 H         1 UNK         0.3000 
    155 H155       -1.0148  -16.5294  -43.9103 H         1 UNK         0.0600 
    156 H156       -1.8628  -17.2452  -41.6810 H         1 UNK         0.0600 
    157 H157       -0.1560  -16.8991  -41.5257 H         1 UNK         0.0600 
    158 H158       -0.6993  -18.5679  -41.6181 H         1 UNK         0.0600 
    159 H159        0.7602  -18.7058  -44.3767 H         1 UNK         0.3000 
    160 H160        3.0422  -18.5925  -44.1801 H         1 UNK         0.0600 
    161 H161        3.3130  -16.0860  -45.9297 H         1 UNK         0.0600 
    162 H162        2.5165  -17.5820  -46.4025 H         1 UNK         0.0600 
    163 H163        4.2480  -17.5699  -46.0996 H         1 UNK         0.0600 
    164 H164        4.1880  -15.8983  -43.6018 H         1 UNK         0.3000 
    165 H165        5.3571  -16.9248  -40.4399 H         1 UNK         0.0600 
    166 H166        7.1213  -16.2775  -42.8658 H         1 UNK         0.0600 
    167 H167        7.5701  -16.0608  -41.1732 H         1 UNK         0.0600 
    168 H168        7.3064  -17.6752  -41.8131 H         1 UNK         0.0600 
    169 H169        5.6208  -14.5276  -42.0286 H         1 UNK         0.3000 
    170 H170        2.4700  -13.3060  -41.8694 H         1 UNK         0.0600 
    171 H171        2.7348  -12.8127  -39.4292 H         1 UNK         0.0600 
    172 H172        4.3845  -12.2689  -39.7125 H         1 UNK         0.0600 
    173 H173        3.0246  -11.3853  -40.4058 H         1 UNK         0.0600 
    174 H174        4.7389  -11.7163  -42.1287 H         1 UNK         0.3000 
    175 H175        6.4230  -12.0832  -44.1923 H         1 UNK         0.0600 
    176 H176        4.4048  -12.4618  -46.4659 H         1 UNK         0.0600 
    177 H177        6.0128  -11.7606  -46.6350 H         1 UNK         0.0600 
    178 H178        5.8330  -13.4433  -46.1656 H         1 UNK         0.0600 
    179 H179        4.0434  -10.4737  -44.9791 H         1 UNK         0.3000 
    180 H180        4.6438   -7.9953  -42.5800 H         1 UNK         0.0600 
    181 H181        5.4214   -7.6554  -45.5271 H         1 UNK         0.0600 
    182 H182        6.4382   -7.2520  -44.1490 H         1 UNK         0.0600 
    183 H183        4.9504   -6.3609  -44.4246 H         1 UNK         0.0600 
    184 H184        3.0601   -8.0560  -44.9846 H         1 UNK         0.3000 
    185 H185        0.1512   -8.6795  -43.3424 H         1 UNK         0.0600 
    186 H186       -0.2657   -8.1623  -45.7200 H         1 UNK         0.0600 
    187 H187        0.9982   -7.1178  -45.1018 H         1 UNK         0.0600 
    188 H188        1.4104   -8.4839  -46.1388 H         1 UNK         0.0600 
    189 H189       -0.3886  -10.7488  -43.9542 H         1 UNK         0.3000 
    190 H190       -2.2880  -21.1080  -47.0565 H         1 UNK         0.3000 
    191 H191       -2.8924  -21.9948  -49.7091 H         1 UNK         0.0600 
    192 H192       -5.2206  -21.2588  -49.1108 H         1 UNK         0.0600 
    193 H193       -4.0155  -20.0332  -48.7384 H         1 UNK         0.0600 
    194 H194       -4.7163  -21.0094  -47.4502 H         1 UNK         0.0600 
    195 H195       -3.6601  -23.2973  -46.4595 H         1 UNK         0.3000 
    196 H196       -5.1860  -25.5320  -47.2846 H         1 UNK         0.0600 
    197 H197       -4.7045  -26.3977  -45.0156 H         1 UNK         0.0600 
    198 H198       -5.0696  -24.6798  -44.9360 H         1 UNK         0.0600 
    199 H199       -3.4013  -25.2366  -44.8117 H         1 UNK         0.0600 
    200 H200       -1.6376  -25.1721  -46.8817 H         1 UNK         0.3000 
    201 H201       -0.9718  -27.8810  -47.5312 H         1 UNK         0.0600 
    202 H202        0.5712  -26.4031  -46.2880 H         1 UNK         0.0600 
    203 H203        0.7037  -25.3194  -47.6709 H         1 UNK         0.0600 
    204 H204        1.3355  -26.9581  -47.7693 H         1 UNK         0.0600 
    205 H205       -1.2912  -24.9098  -49.5124 H         1 UNK         0.3000 
    206 H206       -0.4265  -26.0112  -51.9811 H         1 UNK         0.0600 
    207 H207       -0.6084  -23.5621  -51.5318 H         1 UNK         0.0600 
    208 H208       -1.5035  -24.0220  -52.9695 H         1 UNK         0.0600 
    209 H209       -2.3660  -23.6888  -51.4773 H         1 UNK         0.0600 
    210 H210       -3.6675  -25.7057  -50.5621 H         1 UNK         0.3000 
    211 H211       -5.5354  -26.7945  -50.6539 H         1 UNK         0.0600 
    212 H212       -4.0201  -29.0580  -52.0508 H         1 UNK         0.0600 
    213 H213       -5.5877  -29.1947  -51.2671 H         1 UNK         0.0600 
    214 H214       -4.1619  -28.8231  -50.3094 H         1 UNK         0.0600 
    215 H215       -4.0207  -26.9097  -53.8737 H         1 UNK         0.3000 
    216 H216       -6.4727  -27.1808  -55.3830 H         1 UNK         0.0600 
    217 H217       -4.9791  -26.6134  -57.3132 H         1 UNK         0.0600 
    218 H218       -4.2590  -27.8547  -56.2990 H         1 UNK         0.0600 
    219 H219       -3.6823  -26.1919  -56.1998 H         1 UNK         0.0600 
    220 H220       -7.8871  -25.6237  -55.9997 H         1 UNK         0.3000 
    221 H221       -8.0727  -23.2008  -54.6969 H         1 UNK         0.0600 
    222 H222      -10.0058  -22.8023  -56.2365 H         1 UNK         0.0600 
    223 H223       -9.4512  -24.1072  -57.2785 H         1 UNK         0.0600 
    224 H224       -9.9899  -24.4504  -55.6335 H         1 UNK         0.0600 
    225 H225       -6.2686  -23.7408  -57.6082 H         1 UNK         0.3000 
    226 H226       -6.2063  -21.0317  -58.5976 H         1 UNK         0.0600 
    227 H227       -5.6888  -22.9911  -60.0351 H         1 UNK         0.0600 
    228 H228       -4.3093  -21.9066  -59.9669 H         1 UNK         0.0600 
    229 H229       -4.2976  -23.3943  -59.0274 H         1 UNK         0.0600 
    230 H230       -4.5384  -22.6969  -55.9947 H         1 UNK         0.3000 
    231 H231       -2.6543  -20.3911  -55.6142 H         1 UNK         0.0600 
    232 H232       -1.1275  -22.1070  -54.5910 H         1 UNK         0.0600 
    233 H233       -1.4205  -22.4028  -56.2980 H         1 UNK         0.0600 
    234 H234       -2.2462  -23.3783  -55.0872 H         1 UNK         0.0600 
    235 H235       -4.9225  -22.6911  -54.1038 H         1 UNK         0.3000 
    236 H236       -4.4928  -21.7766  -51.4096 H         1 UNK         0.0600 
    237 H237       -5.2639  -24.0591  -51.9374 H         1 UNK         0.0600 
    238 H238       -6.4407  -23.2342  -50.9290 H         1 UNK         0.0600 
    239 H239       -6.7468  -23.4365  -52.6505 H         1 UNK         0.0600 
    240 H240       -4.7469  -19.5465  -51.3384 H         1 UNK         0.3000 
    241 H241       -7.0909  -18.1806  -52.2734 H         1 UNK         0.0600 
    242 H242       -6.9562  -20.1805  -49.5220 H         1 UNK         0.3800 
    243 H243       -8.2236  -19.3781  -48.6342 H         1 UNK         0.3800 
    244 H244       -5.0945  -16.9317  -52.3094 H         1 UNK         0.0800 
    245 H245       -6.0708  -16.1866  -51.0905 H         1 UNK         0.0800 
    246 H246       -2.8428  -17.9997  -51.9927 H         1 UNK         0.0800 
    247 H247       -2.6966  -16.2804  -51.7368 H         1 UNK         0.0800 
@<TRIPOS>BOND
     1    1    2 1    
     2    1  127 1    
     3    1  128 1    
     4    1  129 1    
     5    2    3 2    
     6    2    4 am   BACKBONE|DICT|INTERRES
     7    4    5 1    
     8    4  130 1    
     9    5    6 1    
    10    5   65 1    
    11    5  131 1    
    12    6    7 1    
    13    6  132 1    
    14    6  133 1    
    15    7    8 1    
    16    8    9 1    
    17    8  134 1    
    18    8  135 1    
    19    9   10 ar   
    20    9   14 ar   
    21   10   11 ar   
    22   10  136 1    
    23   11   12 ar   
    24   11  126 1    
    25   12   13 ar   
    26   12  137 1    
    27   13   14 ar   
    28   13   15 1    
    29   14  138 1    
    30   15   16 1    
    31   15  139 1    
    32   15  140 1    
    33   16   17 1    
    34   17   18 1    
    35   17  141 1    
    36   17  142 1    
    37   18   19 1    
    38   18   67 1    
    39   18  143 1    
    40   19   20 am   BACKBONE|DICT|INTERRES
    41   19  144 1    
    42   20   21 2    
    43   20   22 1    
    44   22   23 1    
    45   22   24 1    
    46   22  145 1    
    47   23  146 1    
    48   23  147 1    
    49   23  148 1    
    50   24   25 am   BACKBONE|DICT|INTERRES
    51   24  149 1    
    52   25   26 2    
    53   25   27 1    
    54   27   28 1    
    55   27   29 1    
    56   27  150 1    
    57   28  151 1    
    58   28  152 1    
    59   28  153 1    
    60   29   30 am   BACKBONE|DICT|INTERRES
    61   29  154 1    
    62   30   31 2    
    63   30   32 1    
    64   32   33 1    
    65   32   34 1    
    66   32  155 1    
    67   33  156 1    
    68   33  157 1    
    69   33  158 1    
    70   34   35 am   BACKBONE|DICT|INTERRES
    71   34  159 1    
    72   35   36 2    
    73   35   37 1    
    74   37   38 1    
    75   37   39 1    
    76   37  160 1    
    77   38  161 1    
    78   38  162 1    
    79   38  163 1    
    80   39   40 am   BACKBONE|DICT|INTERRES
    81   39  164 1    
    82   40   41 2    
    83   40   42 1    
    84   42   43 1    
    85   42   44 1    
    86   42  165 1    
    87   43  166 1    
    88   43  167 1    
    89   43  168 1    
    90   44   45 am   BACKBONE|DICT|INTERRES
    91   44  169 1    
    92   45   46 2    
    93   45   47 1    
    94   47   48 1    
    95   47   49 1    
    96   47  170 1    
    97   48  171 1    
    98   48  172 1    
    99   48  173 1    
   100   49   50 am   BACKBONE|DICT|INTERRES
   101   49  174 1    
   102   50   51 2    
   103   50   52 1    
   104   52   53 1    
   105   52   54 1    
   106   52  175 1    
   107   53  176 1    
   108   53  177 1    
   109   53  178 1    
   110   54   55 am   BACKBONE|DICT|INTERRES
   111   54  179 1    
   112   55   56 2    
   113   55   57 1    
   114   57   58 1    
   115   57   59 1    
   116   57  180 1    
   117   58  181 1    
   118   58  182 1    
   119   58  183 1    
   120   59   60 am   BACKBONE|DICT|INTERRES
   121   59  184 1    
   122   60   61 2    
   123   60   62 1    
   124   62   63 1    
   125   62   64 1    
   126   62  185 1    
   127   63  186 1    
   128   63  187 1    
   129   63  188 1    
   130   64   65 am   BACKBONE|DICT|INTERRES
   131   64  189 1    
   132   65   66 2    
   133   67   68 2    
   134   67   69 am   BACKBONE|DICT|INTERRES
   135   69   70 1    
   136   69  190 1    
   137   70   71 1    
   138   70   72 1    
   139   70  191 1    
   140   71  192 1    
   141   71  193 1    
   142   71  194 1    
   143   72   73 2    
   144   72   74 am   BACKBONE|DICT|INTERRES
   145   74   75 1    
   146   74  195 1    
   147   75   76 1    
   148   75   77 1    
   149   75  196 1    
   150   76  197 1    
   151   76  198 1    
   152   76  199 1    
   153   77   78 2    
   154   77   79 am   BACKBONE|DICT|INTERRES
   155   79   80 1    
   156   79  200 1    
   157   80   81 1    
   158   80   82 1    
   159   80  201 1    
   160   81  202 1    
   161   81  203 1    
   162   81  204 1    
   163   82   83 2    
   164   82   84 am   BACKBONE|DICT|INTERRES
   165   84   85 1    
   166   84  205 1    
   167   85   86 1    
   168   85   87 1    
   169   85  206 1    
   170   86  207 1    
   171   86  208 1    
   172   86  209 1    
   173   87   88 2    
   174   87   89 am   BACKBONE|DICT|INTERRES
   175   89   90 1    
   176   89  210 1    
   177   90   91 1    
   178   90   92 1    
   179   90  211 1    
   180   91  212 1    
   181   91  213 1    
   182   91  214 1    
   183   92   93 2    
   184   92   94 am   BACKBONE|DICT|INTERRES
   185   94   95 1    
   186   94  215 1    
   187   95   96 1    
   188   95   97 1    
   189   95  216 1    
   190   96  217 1    
   191   96  218 1    
   192   96  219 1    
   193   97   98 2    
   194   97   99 am   BACKBONE|DICT|INTERRES
   195   99  100 1    
   196   99  220 1    
   197  100  101 1    
   198  100  102 1    
   199  100  221 1    
   200  101  222 1    
   201  101  223 1    
   202  101  224 1    
   203  102  103 2    
   204  102  104 am   BACKBONE|DICT|INTERRES
   205  104  105 1    
   206  104  225 1    
   207  105  106 1    
   208  105  107 1    
   209  105  226 1    
   210  106  227 1    
   211  106  228 1    
   212  106  229 1    
   213  107  108 2    
   214  107  109 am   BACKBONE|DICT|INTERRES
   215  109  110 1    
   216  109  230 1    
   217  110  111 1    
   218  110  112 1    
   219  110  231 1    
   220  111  232 1    
   221  111  233 1    
   222  111  234 1    
   223  112  113 2    
   224  112  114 am   BACKBONE|DICT|INTERRES
   225  114  115 1    
   226  114  235 1    
   227  115  116 1    
   228  115  117 1    
   229  115  236 1    
   230  116  237 1    
   231  116  238 1    
   232  116  239 1    
   233  117  118 2    
   234  117  119 am   BACKBONE|DICT|INTERRES
   235  119  120 1    
   236  119  240 1    
   237  120  121 1    
   238  120  124 1    
   239  120  241 1    
   240  121  122 am   BACKBONE|DICT|INTERRES
   241  121  123 2    
   242  122  242 1    
   243  122  243 1    
   244  124  125 1    
   245  124  244 1    
   246  124  245 1    
   247  125  126 1    
   248  126  246 1    
   249  126  247 1    
@<TRIPOS>SUBSTRUCTURE
     1 UNK         1 GROUP             0       ****    0 ROOT    
