@<TRIPOS>MOLECULE
3R540
247   249    1
SMALL
USER_CHARGES


@<TRIPOS>ATOM
      1 CA          5.9527  -13.6337  -48.7414 C.3       0 UNK        -0.1800 
      2 C           4.4945  -13.9617  -48.4533 C.2       0 UNK         0.5000 
      3 O           4.2125  -14.7223  -47.5266 O.2       0 UNK        -0.5000 
      4 N           3.5754  -13.3945  -49.2469 N.am      1 UNK        -0.5000 
      5 CA          2.1208  -13.5556  -49.1440 C.3       1 UNK         0.1400 
      6 C6          1.3731  -12.8355  -50.2969 C.3       23 UNK        -0.0398 
      7 S7          1.8273  -13.4323  -51.9637 S.3       23 UNK        -0.2404 
      8 C8          0.2230  -13.9915  -52.6303 C.3       23 UNK        -0.0205 
      9 C9          0.0230  -15.4898  -52.4541 C.ar      23 UNK        -0.0193 
     10 C10         0.0647  -16.3386  -53.5649 C.ar      23 UNK        -0.1150 
     11 C11        -0.1017  -17.7185  -53.4147 C.ar      23 UNK        -0.0193 
     12 C12        -0.3020  -18.2504  -52.1376 C.ar      23 UNK        -0.1150 
     13 C13        -0.3472  -17.4120  -51.0198 C.ar      23 UNK        -0.0193 
     14 C14        -0.1986  -16.0322  -51.1852 C.ar      23 UNK        -0.1150 
     15 C15        -0.5147  -17.9990  -49.6295 C.3       23 UNK        -0.0205 
     16 S16         1.1001  -18.5147  -48.9739 S.3       23 UNK        -0.2404 
     17 C17         0.6865  -18.9280  -47.2504 C.3       23 UNK        -0.0398 
     18 CA          0.4804  -20.4465  -47.0241 C.3       11 UNK         0.1400 
     19 N           0.8158  -20.8507  -45.6592 N.am      11 UNK        -0.5000 
     20 C           0.8766  -22.1128  -45.2141 C.2       10 UNK         0.5000 
     21 O           0.6807  -23.1008  -45.9218 O.2       10 UNK        -0.5000 
     22 CA          1.1597  -22.2972  -43.7125 C.3       10 UNK         0.1400 
     23 CB          2.6580  -22.1452  -43.4104 C.3       10 UNK        -0.1800 
     24 N           0.3953  -21.3641  -42.8838 N.am      10 UNK        -0.5000 
     25 C          -0.9409  -21.3727  -42.7738 C.2       9 UNK         0.5000 
     26 O          -1.6704  -22.1888  -43.3383 O.2       9 UNK        -0.5000 
     27 CA         -1.5686  -20.2528  -41.9243 C.3       9 UNK         0.1400 
     28 CB         -1.4193  -20.5562  -40.4260 C.3       9 UNK        -0.1800 
     29 N          -0.9990  -18.9363  -42.2132 N.am      9 UNK        -0.5000 
     30 C          -1.0662  -18.3230  -43.4033 C.2       8 UNK         0.5000 
     31 O          -1.6406  -18.7885  -44.3862 O.2       8 UNK        -0.5000 
     32 CA         -0.3156  -16.9886  -43.5400 C.3       8 UNK         0.1400 
     33 CB         -1.1258  -15.8436  -42.9149 C.3       8 UNK        -0.1800 
     34 N           1.0276  -17.0237  -42.9584 N.am      8 UNK        -0.5000 
     35 C           1.9993  -17.8737  -43.3236 C.2       7 UNK         0.5000 
     36 O           1.8687  -18.7284  -44.1948 O.2       7 UNK        -0.5000 
     37 CA          3.3308  -17.7827  -42.5686 C.3       7 UNK         0.1400 
     38 CB          4.1826  -16.6361  -43.1259 C.3       7 UNK        -0.1800 
     39 N           3.1139  -17.6043  -41.1356 N.am      7 UNK        -0.5000 
     40 C           2.6772  -18.5772  -40.3229 C.2       6 UNK         0.5000 
     41 O           2.4715  -19.7360  -40.6873 O.2       6 UNK        -0.5000 
     42 CA          2.3797  -18.1718  -38.8681 C.3       6 UNK         0.1400 
     43 CB          3.6700  -18.1435  -38.0352 C.3       6 UNK        -0.1800 
     44 N           1.7104  -16.8733  -38.7725 N.am      6 UNK        -0.5000 
     45 C           0.4818  -16.6207  -39.2443 C.2       5 UNK         0.5000 
     46 O          -0.2262  -17.4623  -39.7979 O.2       5 UNK        -0.5000 
     47 CA         -0.0312  -15.1763  -39.1038 C.3       5 UNK         0.1400 
     48 CB         -0.7151  -14.9820  -37.7423 C.3       5 UNK        -0.1800 
     49 N           0.9943  -14.1427  -39.2811 N.am      5 UNK        -0.5000 
     50 C           1.7426  -13.9676  -40.3790 C.2       4 UNK         0.5000 
     51 O           1.7379  -14.7436  -41.3384 O.2       4 UNK        -0.5000 
     52 CA          2.6100  -12.6945  -40.3982 C.3       4 UNK         0.1400 
     53 CB          3.7500  -12.7513  -39.3599 C.3       4 UNK        -0.1800 
     54 N           3.0805  -12.3757  -41.7515 N.am      4 UNK        -0.5000 
     55 C           4.1033  -12.8965  -42.4425 C.2       3 UNK         0.5000 
     56 O           4.9564  -13.6473  -41.9671 O.2       3 UNK        -0.5000 
     57 CA          4.1502  -12.5235  -43.9421 C.3       3 UNK         0.1400 
     58 CB          5.4980  -12.8733  -44.5973 C.3       3 UNK        -0.1800 
     59 N           3.0822  -13.1759  -44.7047 N.am      3 UNK        -0.5000 
     60 C           1.7775  -12.8749  -44.6434 C.2       2 UNK         0.5000 
     61 O           1.3236  -11.9540  -43.9601 O.2       2 UNK        -0.5000 
     62 CA          0.8364  -13.7527  -45.4963 C.3       2 UNK         0.1400 
     63 CB         -0.6184  -13.2384  -45.5255 C.3       2 UNK        -0.1800 
     64 N           1.3283  -13.9803  -46.8594 N.am      2 UNK        -0.5000 
     65 C           1.6088  -13.0455  -47.7793 C.2       1 UNK         0.5000 
     66 O           1.4957  -11.8323  -47.5919 O.2       1 UNK        -0.5000 
     67 C          -0.9428  -20.8881  -47.4099 C.2       11 UNK         0.5000 
     68 O          -1.1183  -21.4858  -48.4688 O.2       11 UNK        -0.5000 
     69 N          -1.9233  -20.6320  -46.5312 N.am      12 UNK        -0.5000 
     70 CA         -3.3181  -21.0383  -46.7046 C.3       12 UNK         0.1400 
     71 CB         -4.1778  -20.4493  -45.5773 C.3       12 UNK        -0.1800 
     72 C          -3.4926  -22.5639  -46.7790 C.2       12 UNK         0.5000 
     73 O          -4.2642  -23.0379  -47.6126 O.2       12 UNK        -0.5000 
     74 N          -2.7526  -23.3041  -45.9413 N.am      13 UNK        -0.5000 
     75 CA         -2.7097  -24.7659  -45.9582 C.3       13 UNK         0.1400 
     76 CB         -1.9399  -25.2799  -44.7322 C.3       13 UNK        -0.1800 
     77 C          -2.1102  -25.3180  -47.2646 C.2       13 UNK         0.5000 
     78 O          -2.7079  -26.2040  -47.8764 O.2       13 UNK        -0.5000 
     79 N          -0.9697  -24.7564  -47.6917 N.am      14 UNK        -0.5000 
     80 CA         -0.2827  -25.1044  -48.9386 C.3       14 UNK         0.1400 
     81 CB          1.0794  -24.3955  -48.9854 C.3       14 UNK        -0.1800 
     82 C          -1.1094  -24.7769  -50.1970 C.2       14 UNK         0.5000 
     83 O          -1.1242  -25.5679  -51.1404 O.2       14 UNK        -0.5000 
     84 N          -1.8067  -23.6346  -50.1706 N.am      15 UNK        -0.5000 
     85 CA         -2.6889  -23.1522  -51.2324 C.3       15 UNK         0.1400 
     86 CB         -2.8331  -21.6281  -51.0927 C.3       15 UNK        -0.1800 
     87 C          -4.0755  -23.8246  -51.2499 C.2       15 UNK         0.5000 
     88 O          -4.8807  -23.4897  -52.1210 O.2       15 UNK        -0.5000 
     89 N          -4.3450  -24.7187  -50.2857 N.am      16 UNK        -0.5000 
     90 CA         -5.5902  -25.4657  -50.0811 C.3       16 UNK         0.1400 
     91 CB         -5.7906  -26.4989  -51.2087 C.3       16 UNK        -0.1800 
     92 C          -6.8067  -24.5390  -49.8760 C.2       16 UNK         0.5000 
     93 O          -7.8414  -24.7151  -50.5207 O.2       16 UNK        -0.5000 
     94 N          -6.6326  -23.5473  -48.9902 N.am      17 UNK        -0.5000 
     95 CA         -7.5608  -22.4555  -48.6791 C.3       17 UNK         0.1400 
     96 CB         -8.8718  -22.9880  -48.0626 C.3       17 UNK        -0.1800 
     97 C          -7.7820  -21.5142  -49.8820 C.2       17 UNK         0.5000 
     98 O          -8.8991  -21.0434  -50.1026 O.2       17 UNK        -0.5000 
     99 N          -6.6932  -21.2591  -50.6250 N.am      18 UNK        -0.5000 
    100 CA        -6.6069  -20.4397  -51.8373 C.3       18 UNK         0.1400 
    101 CB        -6.8947  -18.9562  -51.5265 C.3       18 UNK        -0.1800 
    102 C         -7.4735  -21.0071  -52.9771 C.2       18 UNK         0.5000 
    103 O         -8.3797  -20.3327  -53.4717 O.2       18 UNK        -0.5000 
    104 N         -7.1751  -22.2514  -53.3737 N.am      19 UNK        -0.5000 
    105 CA        -7.8709  -23.0195  -54.4106 C.3       19 UNK         0.1400 
    106 CB        -7.5382  -24.5099  -54.2211 C.3       19 UNK        -0.1800 
    107 C         -7.5704  -22.5256  -55.8449 C.2       19 UNK         0.5000 
    108 O         -7.1070  -23.3014  -56.6835 O.2       19 UNK        -0.5000 
    109 N         -7.8323  -21.2353  -56.0931 N.am      20 UNK        -0.5000 
    110 CA        -7.7060  -20.4666  -57.3383 C.3       20 UNK         0.1400 
    111 CB        -8.6376  -21.0206  -58.4337 C.3       20 UNK        -0.1800 
    112 C         -6.2626  -20.3123  -57.8554 C.2       20 UNK         0.5000 
    113 O         -5.7975  -19.1859  -58.0310 O.2       20 UNK        -0.5000 
    114 N         -5.5829  -21.4392  -58.0901 N.am      21 UNK        -0.5000 
    115 CA        -4.2114  -21.5122  -58.5950 C.3       21 UNK         0.1400 
    116 CB        -4.0083  -22.8829  -59.2598 C.3       21 UNK        -0.1800 
    117 C         -3.1492  -21.2824  -57.5027 C.2       21 UNK         0.5000 
    118 O         -2.0023  -20.9954  -57.8434 O.2       21 UNK        -0.5000 
    119 N         -3.5478  -21.4460  -56.2320 N.am      22 UNK        -0.5000 
    120 CA        -2.7630  -21.3031  -54.9892 C.3       22 UNK         0.1400 
    121 C         -1.4674  -22.1640  -54.8557 C.2       22 UNK         0.5000 
    122 N         -1.2262  -23.1463  -55.7140 N.am      22 UNK        -0.7600 
    123 O         -0.6925  -21.9810  -53.9224 O.2       22 UNK        -0.5000 
    124 C124       -2.6068  -19.8288  -54.5050 C.3       23 UNK        -0.0398 
    125 S125       -1.5900  -18.7229  -55.5470 S.3       23 UNK        -0.2404 
    126 C126       -0.0179  -18.6322  -54.6291 C.3       23 UNK        -0.0205 
    127 H127        6.0559  -12.9452  -49.5805 H         1 UNK         0.0600 
    128 H128        6.5008  -14.5450  -48.9800 H         1 UNK         0.0600 
    129 H129        6.4157  -13.1761  -47.8675 H         1 UNK         0.0600 
    130 H130        3.8829  -12.7816  -49.9883 H         1 UNK         0.3000 
    131 H131        1.9036  -14.6233  -49.2183 H         1 UNK         0.0600 
    132 H132        0.2955  -12.9340  -50.1582 H         1 UNK         0.0800 
    133 H133        1.5760  -11.7632  -50.2710 H         1 UNK         0.0800 
    134 H134       -0.6043  -13.4488  -52.1716 H         1 UNK         0.0800 
    135 H135        0.1912  -13.7331  -53.6898 H         1 UNK         0.0800 
    136 H136        0.2345  -15.9281  -54.5505 H         1 UNK         0.1150 
    137 H137       -0.4003  -19.3193  -52.0088 H         1 UNK         0.1150 
    138 H138       -0.2293  -15.3831  -50.3224 H         1 UNK         0.1150 
    139 H139       -0.9698  -17.2652  -48.9624 H         1 UNK         0.0800 
    140 H140       -1.1907  -18.8548  -49.6638 H         1 UNK         0.0800 
    141 H141       -0.1609  -18.3379  -46.8966 H         1 UNK         0.0800 
    142 H142        1.5434  -18.5837  -46.6732 H         1 UNK         0.0800 
    143 H143        1.1741  -20.9859  -47.6728 H         1 UNK         0.0600 
    144 H144        1.0437  -20.0977  -45.0123 H         1 UNK         0.3000 
    145 H145        0.8599  -23.3114  -43.4402 H         1 UNK         0.0600 
    146 H146        2.8689  -22.3389  -42.3585 H         1 UNK         0.0600 
    147 H147        3.2475  -22.8510  -43.9968 H         1 UNK         0.0600 
    148 H148        3.0190  -21.1429  -43.6426 H         1 UNK         0.0600 
    149 H149        0.9209  -20.6500  -42.3969 H         1 UNK         0.3000 
    150 H150       -2.6339  -20.2146  -42.1609 H         1 UNK         0.0600 
    151 H151       -1.8344  -21.5345  -40.1806 H         1 UNK         0.0600 
    152 H152       -1.9463  -19.8178  -39.8215 H         1 UNK         0.0600 
    153 H153       -0.3730  -20.5534  -40.1168 H         1 UNK         0.0600 
    154 H154       -0.5379  -18.4602  -41.4426 H         1 UNK         0.3000 
    155 H155       -0.2019  -16.7863  -44.6064 H         1 UNK         0.0600 
    156 H156       -1.3940  -16.0593  -41.8814 H         1 UNK         0.0600 
    157 H157       -0.5711  -14.9060  -42.9243 H         1 UNK         0.0600 
    158 H158       -2.0541  -15.6821  -43.4640 H         1 UNK         0.0600 
    159 H159        1.2377  -16.3246  -42.2503 H         1 UNK         0.3000 
    160 H160        3.8765  -18.7161  -42.7230 H         1 UNK         0.0600 
    161 H161        3.6459  -15.6895  -43.0860 H         1 UNK         0.0600 
    162 H162        4.4436  -16.8164  -44.1694 H         1 UNK         0.0600 
    163 H163        5.1134  -16.5216  -42.5703 H         1 UNK         0.0600 
    164 H164        3.1973  -16.6640  -40.7762 H         1 UNK         0.3000 
    165 H165        1.7146  -18.9266  -38.4429 H         1 UNK         0.0600 
    166 H166        3.4575  -17.9363  -36.9863 H         1 UNK         0.0600 
    167 H167        4.1826  -19.1055  -38.0780 H         1 UNK         0.0600 
    168 H168        4.3661  -17.3841  -38.3937 H         1 UNK         0.0600 
    169 H169        2.2241  -16.1206  -38.3387 H         1 UNK         0.3000 
    170 H170       -0.7823  -15.0203  -39.8795 H         1 UNK         0.0600 
    171 H171       -0.0070  -15.0784  -36.9182 H         1 UNK         0.0600 
    172 H172       -1.1824  -13.9996  -37.6712 H         1 UNK         0.0600 
    173 H173       -1.4999  -15.7243  -37.5894 H         1 UNK         0.0600 
    174 H174        1.0662  -13.4635  -38.5373 H         1 UNK         0.3000 
    175 H175        1.9563  -11.8653  -40.1238 H         1 UNK         0.0600 
    176 H176        4.4117  -11.8899  -39.4499 H         1 UNK         0.0600 
    177 H177        4.3536  -13.6535  -39.4626 H         1 UNK         0.0600 
    178 H178        3.3530  -12.7474  -38.3444 H         1 UNK         0.0600 
    179 H179        2.4058  -11.8625  -42.3114 H         1 UNK         0.3000 
    180 H180        4.0182  -11.4419  -44.0158 H         1 UNK         0.0600 
    181 H181        5.6718  -13.9502  -44.6132 H         1 UNK         0.0600 
    182 H182        6.3272  -12.4124  -44.0592 H         1 UNK         0.0600 
    183 H183        5.5386  -12.5127  -45.6248 H         1 UNK         0.0600 
    184 H184        3.3709  -13.9265  -45.3180 H         1 UNK         0.3000 
    185 H185        0.8323  -14.7273  -45.0108 H         1 UNK         0.0600 
    186 H186       -1.0236  -13.1408  -44.5181 H         1 UNK         0.0600 
    187 H187       -0.6928  -12.2595  -45.9998 H         1 UNK         0.0600 
    188 H188       -1.2672  -13.9251  -46.0692 H         1 UNK         0.0600 
    189 H189        1.5267  -14.9430  -47.0948 H         1 UNK         0.3000 
    190 H190       -1.7099  -20.1063  -45.6861 H         1 UNK         0.3000 
    191 H191       -3.6682  -20.6210  -47.6509 H         1 UNK         0.0600 
    192 H192       -4.1398  -19.3599  -45.5822 H         1 UNK         0.0600 
    193 H193       -5.2235  -20.7387  -45.6893 H         1 UNK         0.0600 
    194 H194       -3.8436  -20.7906  -44.5968 H         1 UNK         0.0600 
    195 H195       -2.1732  -22.8366  -45.2521 H         1 UNK         0.3000 
    196 H196       -3.7369  -25.1295  -45.8858 H         1 UNK         0.0600 
    197 H197       -1.9121  -26.3701  -44.7175 H         1 UNK         0.0600 
    198 H198       -2.4136  -24.9538  -43.8061 H         1 UNK         0.0600 
    199 H199       -0.9095  -24.9247  -44.7212 H         1 UNK         0.0600 
    200 H200       -0.5268  -24.0462  -47.1144 H         1 UNK         0.3000 
    201 H201       -0.1050  -26.1816  -48.9305 H         1 UNK         0.0600 
    202 H202        1.7038  -24.6859  -48.1404 H         1 UNK         0.0600 
    203 H203        0.9691  -23.3107  -48.9612 H         1 UNK         0.0600 
    204 H204        1.6230  -24.6511  -49.8958 H         1 UNK         0.0600 
    205 H205       -1.6755  -23.0047  -49.3816 H         1 UNK         0.3000 
    206 H206       -2.2204  -23.3678  -52.1932 H         1 UNK         0.0600 
    207 H207       -1.8597  -21.1387  -51.1269 H         1 UNK         0.0600 
    208 H208       -3.4279  -21.2112  -51.9024 H         1 UNK         0.0600 
    209 H209       -3.3144  -21.3538  -50.1535 H         1 UNK         0.0600 
    210 H210       -3.6238  -24.8898  -49.5969 H         1 UNK         0.3000 
    211 H211       -5.4671  -26.0172  -49.1478 H         1 UNK         0.0600 
    212 H212       -5.9196  -26.0210  -52.1794 H         1 UNK         0.0600 
    213 H213       -6.6725  -27.1136  -51.0254 H         1 UNK         0.0600 
    214 H214       -4.9357  -27.1714  -51.2797 H         1 UNK         0.0600 
    215 H215       -5.7295  -23.4845  -48.5190 H         1 UNK         0.3000 
    216 H216       -7.0663  -21.8531  -47.9156 H         1 UNK         0.0600 
    217 H217       -9.4878  -22.1683  -47.6911 H         1 UNK         0.0600 
    218 H218       -8.6707  -23.6491  -47.2197 H         1 UNK         0.0600 
    219 H219       -9.4697  -23.5400  -48.7880 H         1 UNK         0.0600 
    220 H220       -5.8478  -21.7496  -50.3737 H         1 UNK         0.3000 
    221 H221       -5.5759  -20.4992  -52.1840 H         1 UNK         0.0600 
    222 H222       -7.9227  -18.7974  -51.1996 H         1 UNK         0.0600 
    223 H223       -6.2331  -18.5826  -50.7449 H         1 UNK         0.0600 
    224 H224       -6.7353  -18.3368  -52.4099 H         1 UNK         0.0600 
    225 H225       -6.4039  -22.7314  -52.9137 H         1 UNK         0.3000 
    226 H226       -8.9455  -22.9025  -54.2566 H         1 UNK         0.0600 
    227 H227       -7.8468  -24.8572  -53.2356 H         1 UNK         0.0600 
    228 H228       -8.0566  -25.1277  -54.9553 H         1 UNK         0.0600 
    229 H229       -6.4689  -24.6986  -54.3241 H         1 UNK         0.0600 
    230 H230       -8.1654  -20.6989  -55.2948 H         1 UNK         0.3000 
    231 H231       -8.0570  -19.4622  -57.0959 H         1 UNK         0.0600 
    232 H232       -8.3688  -22.0352  -58.7284 H         1 UNK         0.0600 
    233 H233       -8.5958  -20.4001  -59.3297 H         1 UNK         0.0600 
    234 H234       -9.6743  -21.0344  -58.0971 H         1 UNK         0.0600 
    235 H235       -6.0432  -22.3168  -57.8592 H         1 UNK         0.3000 
    236 H236       -4.0741  -20.7403  -59.3552 H         1 UNK         0.0600 
    237 H237       -4.7099  -23.0294  -60.0813 H         1 UNK         0.0600 
    238 H238       -3.0028  -22.9739  -59.6730 H         1 UNK         0.0600 
    239 H239       -4.1485  -23.6990  -58.5499 H         1 UNK         0.0600 
    240 H240       -4.5117  -21.7132  -56.1001 H         1 UNK         0.3000 
    241 H241       -3.4156  -21.7704  -54.2511 H         1 UNK         0.0600 
    242 H242       -1.8376  -23.3049  -56.4979 H         1 UNK         0.3800 
    243 H243       -0.3948  -23.7047  -55.6034 H         1 UNK         0.3800 
    244 H244       -3.5968  -19.3763  -54.4376 H         1 UNK         0.0800 
    245 H245       -2.2225  -19.8093  -53.4861 H         1 UNK         0.0800 
    246 H246        0.3049  -19.6308  -54.3363 H         1 UNK         0.0800 
    247 H247        0.7533  -18.2593  -55.3046 H         1 UNK         0.0800 
@<TRIPOS>BOND
     1    1    2 1    
     2    1  127 1    
     3    1  128 1    
     4    1  129 1    
     5    2    3 2    
     6    2    4 am   BACKBONE|DICT|INTERRES
     7    4    5 1    
     8    4  130 1    
     9    5    6 1    
    10    5   65 1    
    11    5  131 1    
    12    6    7 1    
    13    6  132 1    
    14    6  133 1    
    15    7    8 1    
    16    8    9 1    
    17    8  134 1    
    18    8  135 1    
    19    9   10 ar   
    20    9   14 ar   
    21   10   11 ar   
    22   10  136 1    
    23   11   12 ar   
    24   11  126 1    
    25   12   13 ar   
    26   12  137 1    
    27   13   14 ar   
    28   13   15 1    
    29   14  138 1    
    30   15   16 1    
    31   15  139 1    
    32   15  140 1    
    33   16   17 1    
    34   17   18 1    
    35   17  141 1    
    36   17  142 1    
    37   18   19 1    
    38   18   67 1    
    39   18  143 1    
    40   19   20 am   BACKBONE|DICT|INTERRES
    41   19  144 1    
    42   20   21 2    
    43   20   22 1    
    44   22   23 1    
    45   22   24 1    
    46   22  145 1    
    47   23  146 1    
    48   23  147 1    
    49   23  148 1    
    50   24   25 am   BACKBONE|DICT|INTERRES
    51   24  149 1    
    52   25   26 2    
    53   25   27 1    
    54   27   28 1    
    55   27   29 1    
    56   27  150 1    
    57   28  151 1    
    58   28  152 1    
    59   28  153 1    
    60   29   30 am   BACKBONE|DICT|INTERRES
    61   29  154 1    
    62   30   31 2    
    63   30   32 1    
    64   32   33 1    
    65   32   34 1    
    66   32  155 1    
    67   33  156 1    
    68   33  157 1    
    69   33  158 1    
    70   34   35 am   BACKBONE|DICT|INTERRES
    71   34  159 1    
    72   35   36 2    
    73   35   37 1    
    74   37   38 1    
    75   37   39 1    
    76   37  160 1    
    77   38  161 1    
    78   38  162 1    
    79   38  163 1    
    80   39   40 am   BACKBONE|DICT|INTERRES
    81   39  164 1    
    82   40   41 2    
    83   40   42 1    
    84   42   43 1    
    85   42   44 1    
    86   42  165 1    
    87   43  166 1    
    88   43  167 1    
    89   43  168 1    
    90   44   45 am   BACKBONE|DICT|INTERRES
    91   44  169 1    
    92   45   46 2    
    93   45   47 1    
    94   47   48 1    
    95   47   49 1    
    96   47  170 1    
    97   48  171 1    
    98   48  172 1    
    99   48  173 1    
   100   49   50 am   BACKBONE|DICT|INTERRES
   101   49  174 1    
   102   50   51 2    
   103   50   52 1    
   104   52   53 1    
   105   52   54 1    
   106   52  175 1    
   107   53  176 1    
   108   53  177 1    
   109   53  178 1    
   110   54   55 am   BACKBONE|DICT|INTERRES
   111   54  179 1    
   112   55   56 2    
   113   55   57 1    
   114   57   58 1    
   115   57   59 1    
   116   57  180 1    
   117   58  181 1    
   118   58  182 1    
   119   58  183 1    
   120   59   60 am   BACKBONE|DICT|INTERRES
   121   59  184 1    
   122   60   61 2    
   123   60   62 1    
   124   62   63 1    
   125   62   64 1    
   126   62  185 1    
   127   63  186 1    
   128   63  187 1    
   129   63  188 1    
   130   64   65 am   BACKBONE|DICT|INTERRES
   131   64  189 1    
   132   65   66 2    
   133   67   68 2    
   134   67   69 am   BACKBONE|DICT|INTERRES
   135   69   70 1    
   136   69  190 1    
   137   70   71 1    
   138   70   72 1    
   139   70  191 1    
   140   71  192 1    
   141   71  193 1    
   142   71  194 1    
   143   72   73 2    
   144   72   74 am   BACKBONE|DICT|INTERRES
   145   74   75 1    
   146   74  195 1    
   147   75   76 1    
   148   75   77 1    
   149   75  196 1    
   150   76  197 1    
   151   76  198 1    
   152   76  199 1    
   153   77   78 2    
   154   77   79 am   BACKBONE|DICT|INTERRES
   155   79   80 1    
   156   79  200 1    
   157   80   81 1    
   158   80   82 1    
   159   80  201 1    
   160   81  202 1    
   161   81  203 1    
   162   81  204 1    
   163   82   83 2    
   164   82   84 am   BACKBONE|DICT|INTERRES
   165   84   85 1    
   166   84  205 1    
   167   85   86 1    
   168   85   87 1    
   169   85  206 1    
   170   86  207 1    
   171   86  208 1    
   172   86  209 1    
   173   87   88 2    
   174   87   89 am   BACKBONE|DICT|INTERRES
   175   89   90 1    
   176   89  210 1    
   177   90   91 1    
   178   90   92 1    
   179   90  211 1    
   180   91  212 1    
   181   91  213 1    
   182   91  214 1    
   183   92   93 2    
   184   92   94 am   BACKBONE|DICT|INTERRES
   185   94   95 1    
   186   94  215 1    
   187   95   96 1    
   188   95   97 1    
   189   95  216 1    
   190   96  217 1    
   191   96  218 1    
   192   96  219 1    
   193   97   98 2    
   194   97   99 am   BACKBONE|DICT|INTERRES
   195   99  100 1    
   196   99  220 1    
   197  100  101 1    
   198  100  102 1    
   199  100  221 1    
   200  101  222 1    
   201  101  223 1    
   202  101  224 1    
   203  102  103 2    
   204  102  104 am   BACKBONE|DICT|INTERRES
   205  104  105 1    
   206  104  225 1    
   207  105  106 1    
   208  105  107 1    
   209  105  226 1    
   210  106  227 1    
   211  106  228 1    
   212  106  229 1    
   213  107  108 2    
   214  107  109 am   BACKBONE|DICT|INTERRES
   215  109  110 1    
   216  109  230 1    
   217  110  111 1    
   218  110  112 1    
   219  110  231 1    
   220  111  232 1    
   221  111  233 1    
   222  111  234 1    
   223  112  113 2    
   224  112  114 am   BACKBONE|DICT|INTERRES
   225  114  115 1    
   226  114  235 1    
   227  115  116 1    
   228  115  117 1    
   229  115  236 1    
   230  116  237 1    
   231  116  238 1    
   232  116  239 1    
   233  117  118 2    
   234  117  119 am   BACKBONE|DICT|INTERRES
   235  119  120 1    
   236  119  240 1    
   237  120  121 1    
   238  120  124 1    
   239  120  241 1    
   240  121  122 am   BACKBONE|DICT|INTERRES
   241  121  123 2    
   242  122  242 1    
   243  122  243 1    
   244  124  125 1    
   245  124  244 1    
   246  124  245 1    
   247  125  126 1    
   248  126  246 1    
   249  126  247 1    
@<TRIPOS>SUBSTRUCTURE
     1 UNK         1 GROUP             0       ****    0 ROOT    
