@<TRIPOS>MOLECULE
3R540
247   249    1
SMALL
USER_CHARGES


@<TRIPOS>ATOM
      1 CA          6.9283  -12.3088  -46.6000 C.3       0 UNK        -0.1800 
      2 C           5.7008  -12.9142  -45.9348 C.2       0 UNK         0.5000 
      3 O           5.3710  -12.5496  -44.8058 O.2       0 UNK        -0.5000 
      4 N           5.0136  -13.8280  -46.6339 N.am      1 UNK        -0.5000 
      5 CA          3.8295  -14.5469  -46.1410 C.3       1 UNK         0.1400 
      6 C6          3.4463  -15.7552  -47.0276 C.3       23 UNK        -0.0398 
      7 S7          4.7804  -16.9811  -47.2000 S.3       23 UNK        -0.2404 
      8 C8          5.1686  -16.8394  -48.9750 C.3       23 UNK        -0.0205 
      9 C9          4.1624  -17.5621  -49.8635 C.ar      23 UNK        -0.0193 
     10 C10         3.4438  -16.8702  -50.8445 C.ar      23 UNK        -0.1150 
     11 C11         2.6043  -17.5575  -51.7292 C.ar      23 UNK        -0.0193 
     12 C12         2.4734  -18.9447  -51.6123 C.ar      23 UNK        -0.1150 
     13 C13         3.1536  -19.6429  -50.6109 C.ar      23 UNK        -0.0193 
     14 C14         4.0038  -18.9453  -49.7496 C.ar      23 UNK        -0.1150 
     15 C15         3.0122  -21.1531  -50.4835 C.3       23 UNK        -0.0205 
     16 S16         1.2836  -21.6696  -50.2378 S.3       23 UNK        -0.2404 
     17 C17         1.5249  -23.3761  -49.6306 C.3       23 UNK        -0.0398 
     18 CA          1.1649  -23.5715  -48.1354 C.3       11 UNK         0.1400 
     19 N           1.8794  -22.6447  -47.2483 N.am      11 UNK        -0.5000 
     20 C           2.9463  -22.9740  -46.5060 C.2       10 UNK         0.5000 
     21 O           3.4336  -24.1051  -46.4814 O.2       10 UNK        -0.5000 
     22 CA          3.6009  -21.8722  -45.6442 C.3       10 UNK         0.1400 
     23 CB          4.8736  -21.3448  -46.3220 C.3       10 UNK        -0.1800 
     24 N           2.7206  -20.7421  -45.3483 N.am      10 UNK        -0.5000 
     25 C           1.6567  -20.7965  -44.5369 C.2       9 UNK         0.5000 
     26 O           1.3339  -21.8023  -43.9040 O.2       9 UNK        -0.5000 
     27 CA          0.7914  -19.5246  -44.4206 C.3       9 UNK         0.1400 
     28 CB          1.1704  -18.7479  -43.1541 C.3       9 UNK        -0.1800 
     29 N           0.8147  -18.6020  -45.5656 N.am      9 UNK        -0.5000 
     30 C           0.5788  -18.9251  -46.8448 C.2       8 UNK         0.5000 
     31 O           0.4930  -20.0881  -47.2386 O.2       8 UNK        -0.5000 
     32 CA          0.3784  -17.7667  -47.8354 C.3       8 UNK         0.1400 
     33 CB         -0.3884  -18.2110  -49.0927 C.3       8 UNK        -0.1800 
     34 N          -0.3227  -16.6454  -47.2034 N.am      8 UNK        -0.5000 
     35 C          -0.2877  -15.3806  -47.6505 C.2       7 UNK         0.5000 
     36 O           0.4743  -15.0058  -48.5424 O.2       7 UNK        -0.5000 
     37 CA         -1.2475  -14.3531  -47.0041 C.3       7 UNK         0.1400 
     38 CB         -1.7759  -13.3177  -48.0211 C.3       7 UNK        -0.1800 
     39 N          -2.3509  -14.9519  -46.2496 N.am      7 UNK        -0.5000 
     40 C          -3.3411  -15.7279  -46.7184 C.2       6 UNK         0.5000 
     41 O          -3.5030  -15.9784  -47.9124 O.2       6 UNK        -0.5000 
     42 CA         -4.3097  -16.3387  -45.6787 C.3       6 UNK         0.1400 
     43 CB         -4.7077  -17.7822  -46.0444 C.3       6 UNK        -0.1800 
     44 N          -3.8346  -16.2826  -44.2885 N.am      6 UNK        -0.5000 
     45 C          -2.7106  -16.8153  -43.7876 C.2       5 UNK         0.5000 
     46 O          -1.8767  -17.4309  -44.4554 O.2       5 UNK        -0.5000 
     47 CA         -2.4752  -16.5877  -42.2826 C.3       5 UNK         0.1400 
     48 CB         -2.5666  -17.9209  -41.5241 C.3       5 UNK        -0.1800 
     49 N          -1.1917  -15.9518  -41.9726 N.am      5 UNK        -0.5000 
     50 C          -0.6909  -14.8333  -42.5177 C.2       4 UNK         0.5000 
     51 O          -1.2547  -14.1854  -43.4049 O.2       4 UNK        -0.5000 
     52 CA          0.6590  -14.3659  -41.9384 C.3       4 UNK         0.1400 
     53 CB          1.7601  -15.4214  -42.1428 C.3       4 UNK        -0.1800 
     54 N           1.1055  -13.1242  -42.5643 N.am      4 UNK        -0.5000 
     55 C           1.1197  -11.9190  -41.9810 C.2       3 UNK         0.5000 
     56 O           0.7008  -11.7122  -40.8408 O.2       3 UNK        -0.5000 
     57 CA          1.7329  -10.7436  -42.7729 C.3       3 UNK         0.1400 
     58 CB          3.0611  -10.3037  -42.1358 C.3       3 UNK        -0.1800 
     59 N           1.9823  -11.0569  -44.1798 N.am      3 UNK        -0.5000 
     60 C           1.0598  -11.0058  -45.1487 C.2       2 UNK         0.5000 
     61 O          -0.0975  -10.6253  -44.9722 O.2       2 UNK        -0.5000 
     62 CA          1.4977  -11.4712  -46.5525 C.3       2 UNK         0.1400 
     63 CB          1.8973  -10.2659  -47.4166 C.3       2 UNK        -0.1800 
     64 N           2.5927  -12.4470  -46.5662 N.am      2 UNK        -0.5000 
     65 C           2.5942  -13.6418  -45.9559 C.2       1 UNK         0.5000 
     66 O           1.6666  -14.0471  -45.2586 O.2       1 UNK        -0.5000 
     67 C          -0.3592  -23.5603  -47.9119 C.2       11 UNK         0.5000 
     68 O          -1.0067  -24.5400  -48.2806 O.2       11 UNK        -0.5000 
     69 N          -0.9180  -22.4991  -47.3082 N.am      12 UNK        -0.5000 
     70 CA         -2.3563  -22.2776  -47.1093 C.3       12 UNK         0.1400 
     71 CB         -2.5751  -20.9765  -46.3264 C.3       12 UNK        -0.1800 
     72 C          -3.1197  -23.4296  -46.4307 C.2       12 UNK         0.5000 
     73 O          -4.2851  -23.6493  -46.7596 O.2       12 UNK        -0.5000 
     74 N          -2.4506  -24.1583  -45.5279 N.am      13 UNK        -0.5000 
     75 CA         -2.9912  -25.3371  -44.8480 C.3       13 UNK         0.1400 
     76 CB         -2.0248  -25.7576  -43.7305 C.3       13 UNK        -0.1800 
     77 C          -3.2664  -26.5203  -45.7986 C.2       13 UNK         0.5000 
     78 O          -4.2157  -27.2706  -45.5698 O.2       13 UNK        -0.5000 
     79 N          -2.4455  -26.6571  -46.8482 N.am      14 UNK        -0.5000 
     80 CA         -2.6004  -27.6605  -47.9012 C.3       14 UNK         0.1400 
     81 CB         -1.2100  -28.0943  -48.3909 C.3       14 UNK        -0.1800 
     82 C          -3.4359  -27.1152  -49.0719 C.2       14 UNK         0.5000 
     83 O          -4.2167  -27.8608  -49.6628 O.2       14 UNK        -0.5000 
     84 N          -3.2715  -25.8201  -49.3739 N.am      15 UNK        -0.5000 
     85 CA         -3.9110  -25.1076  -50.4806 C.3       15 UNK         0.1400 
     86 CB         -3.0067  -23.9383  -50.9072 C.3       15 UNK        -0.1800 
     87 C          -5.3516  -24.6342  -50.1900 C.2       15 UNK         0.5000 
     88 O          -5.8701  -23.8095  -50.9453 O.2       15 UNK        -0.5000 
     89 N          -5.9696  -25.1502  -49.1180 N.am      16 UNK        -0.5000 
     90 CA         -7.3608  -24.9416  -48.7020 C.3       16 UNK         0.1400 
     91 CB         -8.3279  -25.5744  -49.7249 C.3       16 UNK        -0.1800 
     92 C          -7.6799  -23.4637  -48.4018 C.2       16 UNK         0.5000 
     93 O          -8.6057  -22.8958  -48.9821 O.2       16 UNK        -0.5000 
     94 N          -6.8773  -22.8709  -47.5071 N.am      17 UNK        -0.5000 
     95 CA         -6.8977  -21.4648  -47.0897 C.3       17 UNK         0.1400 
     96 CB         -8.2330  -21.0878  -46.4137 C.3       17 UNK        -0.1800 
     97 C          -6.4958  -20.5179  -48.2374 C.2       17 UNK         0.5000 
     98 O          -7.0932  -19.4539  -48.4053 O.2       17 UNK        -0.5000 
     99 N          -5.4752  -20.9438  -48.9976 N.am      18 UNK        -0.5000 
    100 CA        -4.8768  -20.2562  -50.1470 C.3       18 UNK         0.1400 
    101 CB        -4.2165  -18.9334  -49.7086 C.3       18 UNK        -0.1800 
    102 C         -5.8621  -20.0807  -51.3225 C.2       18 UNK         0.5000 
    103 O         -5.8567  -19.0469  -51.9930 O.2       18 UNK        -0.5000 
    104 N         -6.6912  -21.1046  -51.5564 N.am      19 UNK        -0.5000 
    105 CA        -7.6137  -21.1765  -52.6856 C.3       19 UNK         0.1400 
    106 CB        -8.8527  -21.9861  -52.2751 C.3       19 UNK        -0.1800 
    107 C         -6.9361  -21.8114  -53.9105 C.2       19 UNK         0.5000 
    108 O         -7.1379  -21.3395  -55.0299 O.2       19 UNK        -0.5000 
    109 N         -6.1476  -22.8703  -53.6788 N.am      20 UNK        -0.5000 
    110 CA        -5.4784  -23.6458  -54.7257 C.3       20 UNK         0.1400 
    111 CB        -5.3170  -25.0937  -54.2399 C.3       20 UNK        -0.1800 
    112 C         -4.1125  -23.0658  -55.1403 C.2       20 UNK         0.5000 
    113 O         -3.5934  -23.4505  -56.1892 O.2       20 UNK        -0.5000 
    114 N         -3.5467  -22.1704  -54.3236 N.am      21 UNK        -0.5000 
    115 CA        -2.2616  -21.5165  -54.5461 C.3       21 UNK         0.1400 
    116 CB        -1.1264  -22.3812  -53.9699 C.3       21 UNK        -0.1800 
    117 C         -2.2889  -20.1403  -53.8741 C.2       21 UNK         0.5000 
    118 O         -2.9642  -19.9772  -52.8565 O.2       21 UNK        -0.5000 
    119 N         -1.5483  -19.1851  -54.4468 N.am      22 UNK        -0.5000 
    120 CA        -1.3961  -17.7856  -54.0070 C.3       22 UNK         0.1400 
    121 C         -2.6666  -16.8998  -54.1724 C.2       22 UNK         0.5000 
    122 N         -3.8517  -17.3769  -53.8194 N.am      22 UNK        -0.7600 
    123 O         -2.5772  -15.7726  -54.6510 O.2       22 UNK        -0.5000 
    124 C124       -0.7973  -17.6715  -52.5782 C.3       23 UNK        -0.0398 
    125 S125        0.2504  -16.1914  -52.3579 S.3       23 UNK        -0.2404 
    126 C126        1.8917  -16.8104  -52.8492 C.3       23 UNK        -0.0205 
    127 H127        7.8155  -12.5049  -45.9980 H         1 UNK         0.0600 
    128 H128        6.8101  -11.2292  -46.6935 H         1 UNK         0.0600 
    129 H129        7.0950  -12.7207  -47.5956 H         1 UNK         0.0600 
    130 H130        5.3383  -14.0950  -47.5517 H         1 UNK         0.3000 
    131 H131        4.0773  -14.9325  -45.1494 H         1 UNK         0.0600 
    132 H132        2.6005  -16.2788  -46.5821 H         1 UNK         0.0800 
    133 H133        3.1166  -15.4246  -48.0143 H         1 UNK         0.0800 
    134 H134        6.1537  -17.2749  -49.1476 H         1 UNK         0.0800 
    135 H135        5.2517  -15.7874  -49.2510 H         1 UNK         0.0800 
    136 H136        3.5636  -15.8007  -50.9457 H         1 UNK         0.1150 
    137 H137        1.8464  -19.4897  -52.3031 H         1 UNK         0.1150 
    138 H138        4.5683  -19.4781  -49.0001 H         1 UNK         0.1150 
    139 H139        3.4069  -21.6294  -51.3818 H         1 UNK         0.0800 
    140 H140        3.6120  -21.5159  -49.6473 H         1 UNK         0.0800 
    141 H141        2.5619  -23.6736  -49.7895 H         1 UNK         0.0800 
    142 H142        0.9375  -24.0485  -50.2589 H         1 UNK         0.0800 
    143 H143        1.4545  -24.5930  -47.8808 H         1 UNK         0.0600 
    144 H144        1.5431  -21.6859  -47.2367 H         1 UNK         0.3000 
    145 H145        3.8892  -22.3305  -44.6959 H         1 UNK         0.0600 
    146 H146        5.3748  -20.6003  -45.7031 H         1 UNK         0.0600 
    147 H147        4.6499  -20.8877  -47.2841 H         1 UNK         0.0600 
    148 H148        5.5853  -22.1518  -46.5005 H         1 UNK         0.0600 
    149 H149        2.9031  -19.8797  -45.8395 H         1 UNK         0.3000 
    150 H150       -0.2419  -19.8571  -44.3092 H         1 UNK         0.0600 
    151 H151        2.1754  -18.3304  -43.2244 H         1 UNK         0.0600 
    152 H152        1.1383  -19.3885  -42.2718 H         1 UNK         0.0600 
    153 H153        0.4724  -17.9310  -42.9832 H         1 UNK         0.0600 
    154 H154        0.8490  -17.6215  -45.3300 H         1 UNK         0.3000 
    155 H155        1.3726  -17.4464  -48.1494 H         1 UNK         0.0600 
    156 H156        0.1800  -18.9462  -49.6615 H         1 UNK         0.0600 
    157 H157       -0.5775  -17.3669  -49.7521 H         1 UNK         0.0600 
    158 H158       -1.3478  -18.6576  -48.8382 H         1 UNK         0.0600 
    159 H159       -0.9545  -16.8804  -46.4449 H         1 UNK         0.3000 
    160 H160       -0.6613  -13.8104  -46.2646 H         1 UNK         0.0600 
    161 H161       -2.3592  -13.7870  -48.8133 H         1 UNK         0.0600 
    162 H162       -0.9592  -12.7815  -48.5044 H         1 UNK         0.0600 
    163 H163       -2.4063  -12.5740  -47.5338 H         1 UNK         0.0600 
    164 H164       -2.2889  -14.8227  -45.2457 H         1 UNK         0.3000 
    165 H165       -5.2127  -15.7278  -45.7155 H         1 UNK         0.0600 
    166 H166       -5.3786  -18.2129  -45.3014 H         1 UNK         0.0600 
    167 H167       -5.2249  -17.8150  -47.0034 H         1 UNK         0.0600 
    168 H168       -3.8323  -18.4247  -46.1229 H         1 UNK         0.0600 
    169 H169       -4.4332  -15.7673  -43.6579 H         1 UNK         0.3000 
    170 H170       -3.2565  -15.9272  -41.9015 H         1 UNK         0.0600 
    171 H171       -1.7783  -18.6110  -41.8280 H         1 UNK         0.0600 
    172 H172       -2.4864  -17.7713  -40.4473 H         1 UNK         0.0600 
    173 H173       -3.5219  -18.4128  -41.7121 H         1 UNK         0.0600 
    174 H174       -0.6485  -16.4105  -41.2568 H         1 UNK         0.3000 
    175 H175        0.5237  -14.2195  -40.8650 H         1 UNK         0.0600 
    176 H176        1.8368  -15.7305  -43.1856 H         1 UNK         0.0600 
    177 H177        2.7344  -15.0389  -41.8379 H         1 UNK         0.0600 
    178 H178        1.5698  -16.3113  -41.5432 H         1 UNK         0.0600 
    179 H179        1.3680  -13.2085  -43.5415 H         1 UNK         0.3000 
    180 H180        1.0334   -9.9074  -42.7107 H         1 UNK         0.0600 
    181 H181        3.4753   -9.4349  -42.6478 H         1 UNK         0.0600 
    182 H182        3.8059  -11.1001  -42.1701 H         1 UNK         0.0600 
    183 H183        2.9233  -10.0269  -41.0898 H         1 UNK         0.0600 
    184 H184        2.9077  -11.3907  -44.4126 H         1 UNK         0.3000 
    185 H185        0.6345  -11.9462  -47.0165 H         1 UNK         0.0600 
    186 H186        2.7850   -9.7677  -47.0247 H         1 UNK         0.0600 
    187 H187        2.1054  -10.5675  -48.4434 H         1 UNK         0.0600 
    188 H188        1.0953   -9.5274  -47.4536 H         1 UNK         0.0600 
    189 H189        3.4062  -12.1983  -47.1094 H         1 UNK         0.3000 
    190 H190       -0.3276  -21.6940  -47.1161 H         1 UNK         0.3000 
    191 H191       -2.7957  -22.1427  -48.0974 H         1 UNK         0.0600 
    192 H192       -2.2061  -20.1150  -46.8814 H         1 UNK         0.0600 
    193 H193       -2.0708  -20.9986  -45.3604 H         1 UNK         0.0600 
    194 H194       -3.6357  -20.8063  -46.1384 H         1 UNK         0.0600 
    195 H195       -1.4952  -23.9062  -45.3208 H         1 UNK         0.3000 
    196 H196       -3.9415  -25.0545  -44.3900 H         1 UNK         0.0600 
    197 H197       -1.8847  -24.9543  -43.0069 H         1 UNK         0.0600 
    198 H198       -1.0450  -26.0284  -44.1262 H         1 UNK         0.0600 
    199 H199       -2.4093  -26.6210  -43.1859 H         1 UNK         0.0600 
    200 H200       -1.7300  -25.9562  -47.0013 H         1 UNK         0.3000 
    201 H201       -3.1085  -28.5418  -47.5040 H         1 UNK         0.0600 
    202 H202       -0.6221  -28.5197  -47.5774 H         1 UNK         0.0600 
    203 H203       -0.6477  -27.2581  -48.8084 H         1 UNK         0.0600 
    204 H204       -1.2901  -28.8563  -49.1672 H         1 UNK         0.0600 
    205 H205       -2.5643  -25.2988  -48.8615 H         1 UNK         0.3000 
    206 H206       -3.9775  -25.7979  -51.3222 H         1 UNK         0.0600 
    207 H207       -2.0047  -24.2871  -51.1578 H         1 UNK         0.0600 
    208 H208       -2.9110  -23.1938  -50.1192 H         1 UNK         0.0600 
    209 H209       -3.4000  -23.4329  -51.7888 H         1 UNK         0.0600 
    210 H210       -5.4328  -25.7846  -48.5444 H         1 UNK         0.3000 
    211 H211       -7.4851  -25.4782  -47.7603 H         1 UNK         0.0600 
    212 H212       -8.2704  -25.0853  -50.6975 H         1 UNK         0.0600 
    213 H213       -9.3608  -25.5014  -49.3830 H         1 UNK         0.0600 
    214 H214       -8.1085  -26.6321  -49.8703 H         1 UNK         0.0600 
    215 H215       -6.0915  -23.4066  -47.1429 H         1 UNK         0.3000 
    216 H216       -6.1175  -21.3660  -46.3337 H         1 UNK         0.0600 
    217 H217       -8.1759  -20.0925  -45.9718 H         1 UNK         0.0600 
    218 H218       -8.4800  -21.7844  -45.6127 H         1 UNK         0.0600 
    219 H219       -9.0623  -21.0806  -47.1213 H         1 UNK         0.0600 
    220 H220       -5.1043  -21.8595  -48.7914 H         1 UNK         0.3000 
    221 H221       -4.0840  -20.9113  -50.5102 H         1 UNK         0.0600 
    222 H222       -4.9563  -18.1666  -49.4777 H         1 UNK         0.0600 
    223 H223       -3.6001  -19.0746  -48.8222 H         1 UNK         0.0600 
    224 H224       -3.5750  -18.5377  -50.4965 H         1 UNK         0.0600 
    225 H225       -6.6108  -21.9410  -50.9882 H         1 UNK         0.3000 
    226 H226       -7.9438  -20.1723  -52.9599 H         1 UNK         0.0600 
    227 H227       -9.3660  -21.5182  -51.4347 H         1 UNK         0.0600 
    228 H228       -9.5663  -22.0545  -53.0970 H         1 UNK         0.0600 
    229 H229       -8.5908  -23.0026  -51.9794 H         1 UNK         0.0600 
    230 H230       -6.0436  -23.2034  -52.7235 H         1 UNK         0.3000 
    231 H231       -6.1113  -23.6622  -55.6156 H         1 UNK         0.0600 
    232 H232       -4.9278  -25.7307  -55.0352 H         1 UNK         0.0600 
    233 H233       -4.6227  -25.1565  -53.4043 H         1 UNK         0.0600 
    234 H234       -6.2702  -25.5159  -53.9210 H         1 UNK         0.0600 
    235 H235       -4.0527  -21.8460  -53.5104 H         1 UNK         0.3000 
    236 H236       -2.1053  -21.3759  -55.6179 H         1 UNK         0.0600 
    237 H237       -1.2278  -22.5110  -52.8918 H         1 UNK         0.0600 
    238 H238       -1.1093  -23.3708  -54.4267 H         1 UNK         0.0600 
    239 H239       -0.1542  -21.9219  -54.1521 H         1 UNK         0.0600 
    240 H240       -1.0498  -19.4161  -55.2944 H         1 UNK         0.3000 
    241 H241       -0.6605  -17.3810  -54.7038 H         1 UNK         0.0600 
    242 H242       -4.6773  -16.8104  -53.9269 H         1 UNK         0.3800 
    243 H243       -3.9213  -18.2903  -53.3816 H         1 UNK         0.3800 
    244 H244       -0.2033  -18.5522  -52.3410 H         1 UNK         0.0800 
    245 H245       -1.5916  -17.6584  -51.8305 H         1 UNK         0.0800 
    246 H246        2.5003  -15.9604  -53.1610 H         1 UNK         0.0800 
    247 H247        1.7970  -17.4473  -53.7301 H         1 UNK         0.0800 
@<TRIPOS>BOND
     1    1    2 1    
     2    1  127 1    
     3    1  128 1    
     4    1  129 1    
     5    2    3 2    
     6    2    4 am   BACKBONE|DICT|INTERRES
     7    4    5 1    
     8    4  130 1    
     9    5    6 1    
    10    5   65 1    
    11    5  131 1    
    12    6    7 1    
    13    6  132 1    
    14    6  133 1    
    15    7    8 1    
    16    8    9 1    
    17    8  134 1    
    18    8  135 1    
    19    9   10 ar   
    20    9   14 ar   
    21   10   11 ar   
    22   10  136 1    
    23   11   12 ar   
    24   11  126 1    
    25   12   13 ar   
    26   12  137 1    
    27   13   14 ar   
    28   13   15 1    
    29   14  138 1    
    30   15   16 1    
    31   15  139 1    
    32   15  140 1    
    33   16   17 1    
    34   17   18 1    
    35   17  141 1    
    36   17  142 1    
    37   18   19 1    
    38   18   67 1    
    39   18  143 1    
    40   19   20 am   BACKBONE|DICT|INTERRES
    41   19  144 1    
    42   20   21 2    
    43   20   22 1    
    44   22   23 1    
    45   22   24 1    
    46   22  145 1    
    47   23  146 1    
    48   23  147 1    
    49   23  148 1    
    50   24   25 am   BACKBONE|DICT|INTERRES
    51   24  149 1    
    52   25   26 2    
    53   25   27 1    
    54   27   28 1    
    55   27   29 1    
    56   27  150 1    
    57   28  151 1    
    58   28  152 1    
    59   28  153 1    
    60   29   30 am   BACKBONE|DICT|INTERRES
    61   29  154 1    
    62   30   31 2    
    63   30   32 1    
    64   32   33 1    
    65   32   34 1    
    66   32  155 1    
    67   33  156 1    
    68   33  157 1    
    69   33  158 1    
    70   34   35 am   BACKBONE|DICT|INTERRES
    71   34  159 1    
    72   35   36 2    
    73   35   37 1    
    74   37   38 1    
    75   37   39 1    
    76   37  160 1    
    77   38  161 1    
    78   38  162 1    
    79   38  163 1    
    80   39   40 am   BACKBONE|DICT|INTERRES
    81   39  164 1    
    82   40   41 2    
    83   40   42 1    
    84   42   43 1    
    85   42   44 1    
    86   42  165 1    
    87   43  166 1    
    88   43  167 1    
    89   43  168 1    
    90   44   45 am   BACKBONE|DICT|INTERRES
    91   44  169 1    
    92   45   46 2    
    93   45   47 1    
    94   47   48 1    
    95   47   49 1    
    96   47  170 1    
    97   48  171 1    
    98   48  172 1    
    99   48  173 1    
   100   49   50 am   BACKBONE|DICT|INTERRES
   101   49  174 1    
   102   50   51 2    
   103   50   52 1    
   104   52   53 1    
   105   52   54 1    
   106   52  175 1    
   107   53  176 1    
   108   53  177 1    
   109   53  178 1    
   110   54   55 am   BACKBONE|DICT|INTERRES
   111   54  179 1    
   112   55   56 2    
   113   55   57 1    
   114   57   58 1    
   115   57   59 1    
   116   57  180 1    
   117   58  181 1    
   118   58  182 1    
   119   58  183 1    
   120   59   60 am   BACKBONE|DICT|INTERRES
   121   59  184 1    
   122   60   61 2    
   123   60   62 1    
   124   62   63 1    
   125   62   64 1    
   126   62  185 1    
   127   63  186 1    
   128   63  187 1    
   129   63  188 1    
   130   64   65 am   BACKBONE|DICT|INTERRES
   131   64  189 1    
   132   65   66 2    
   133   67   68 2    
   134   67   69 am   BACKBONE|DICT|INTERRES
   135   69   70 1    
   136   69  190 1    
   137   70   71 1    
   138   70   72 1    
   139   70  191 1    
   140   71  192 1    
   141   71  193 1    
   142   71  194 1    
   143   72   73 2    
   144   72   74 am   BACKBONE|DICT|INTERRES
   145   74   75 1    
   146   74  195 1    
   147   75   76 1    
   148   75   77 1    
   149   75  196 1    
   150   76  197 1    
   151   76  198 1    
   152   76  199 1    
   153   77   78 2    
   154   77   79 am   BACKBONE|DICT|INTERRES
   155   79   80 1    
   156   79  200 1    
   157   80   81 1    
   158   80   82 1    
   159   80  201 1    
   160   81  202 1    
   161   81  203 1    
   162   81  204 1    
   163   82   83 2    
   164   82   84 am   BACKBONE|DICT|INTERRES
   165   84   85 1    
   166   84  205 1    
   167   85   86 1    
   168   85   87 1    
   169   85  206 1    
   170   86  207 1    
   171   86  208 1    
   172   86  209 1    
   173   87   88 2    
   174   87   89 am   BACKBONE|DICT|INTERRES
   175   89   90 1    
   176   89  210 1    
   177   90   91 1    
   178   90   92 1    
   179   90  211 1    
   180   91  212 1    
   181   91  213 1    
   182   91  214 1    
   183   92   93 2    
   184   92   94 am   BACKBONE|DICT|INTERRES
   185   94   95 1    
   186   94  215 1    
   187   95   96 1    
   188   95   97 1    
   189   95  216 1    
   190   96  217 1    
   191   96  218 1    
   192   96  219 1    
   193   97   98 2    
   194   97   99 am   BACKBONE|DICT|INTERRES
   195   99  100 1    
   196   99  220 1    
   197  100  101 1    
   198  100  102 1    
   199  100  221 1    
   200  101  222 1    
   201  101  223 1    
   202  101  224 1    
   203  102  103 2    
   204  102  104 am   BACKBONE|DICT|INTERRES
   205  104  105 1    
   206  104  225 1    
   207  105  106 1    
   208  105  107 1    
   209  105  226 1    
   210  106  227 1    
   211  106  228 1    
   212  106  229 1    
   213  107  108 2    
   214  107  109 am   BACKBONE|DICT|INTERRES
   215  109  110 1    
   216  109  230 1    
   217  110  111 1    
   218  110  112 1    
   219  110  231 1    
   220  111  232 1    
   221  111  233 1    
   222  111  234 1    
   223  112  113 2    
   224  112  114 am   BACKBONE|DICT|INTERRES
   225  114  115 1    
   226  114  235 1    
   227  115  116 1    
   228  115  117 1    
   229  115  236 1    
   230  116  237 1    
   231  116  238 1    
   232  116  239 1    
   233  117  118 2    
   234  117  119 am   BACKBONE|DICT|INTERRES
   235  119  120 1    
   236  119  240 1    
   237  120  121 1    
   238  120  124 1    
   239  120  241 1    
   240  121  122 am   BACKBONE|DICT|INTERRES
   241  121  123 2    
   242  122  242 1    
   243  122  243 1    
   244  124  125 1    
   245  124  244 1    
   246  124  245 1    
   247  125  126 1    
   248  126  246 1    
   249  126  247 1    
@<TRIPOS>SUBSTRUCTURE
     1 UNK         1 GROUP             0       ****    0 ROOT    
