@<TRIPOS>MOLECULE
3R540
247   249    1
SMALL
USER_CHARGES


@<TRIPOS>ATOM
      1 CA         -0.6576   -9.4956  -46.8326 C.3       0 UNK        -0.1800 
      2 C           0.3046   -9.9082  -47.9374 C.2       0 UNK         0.5000 
      3 O           1.1869   -9.1312  -48.3023 O.2       0 UNK        -0.5000 
      4 N           0.1315  -11.1227  -48.4748 N.am      1 UNK        -0.5000 
      5 CA          0.9310  -11.6833  -49.5752 C.3       1 UNK         0.1400 
      6 C6          0.2757  -12.9520  -50.1779 C.3       23 UNK        -0.0398 
      7 S7         -1.4498  -12.6874  -50.7212 S.3       23 UNK        -0.2404 
      8 C8         -2.3774  -13.8628  -49.6640 C.3       23 UNK        -0.0205 
      9 C9         -2.0956  -15.3475  -49.9138 C.ar      23 UNK        -0.0193 
     10 C10        -1.5596  -15.8129  -51.1206 C.ar      23 UNK        -0.1150 
     11 C11        -1.2957  -17.1705  -51.3124 C.ar      23 UNK        -0.0193 
     12 C12        -1.5618  -18.0744  -50.2804 C.ar      23 UNK        -0.1150 
     13 C13        -2.1136  -17.6358  -49.0716 C.ar      23 UNK        -0.0193 
     14 C14        -2.3895  -16.2734  -48.9049 C.ar      23 UNK        -0.1150 
     15 C15        -2.3659  -18.6180  -47.9294 C.3       23 UNK        -0.0205 
     16 S16        -3.3138  -20.0817  -48.4600 S.3       23 UNK        -0.2404 
     17 C17        -3.4209  -21.0702  -46.9293 C.3       23 UNK        -0.0398 
     18 CA         -2.2487  -22.0763  -46.8059 C.3       11 UNK         0.1400 
     19 N          -1.0389  -21.4611  -46.2565 N.am      11 UNK        -0.5000 
     20 C           0.1865  -21.9995  -46.3267 C.2       10 UNK         0.5000 
     21 O           0.4380  -23.0592  -46.8991 O.2       10 UNK        -0.5000 
     22 CA          1.3080  -21.2444  -45.5896 C.3       10 UNK         0.1400 
     23 CB          1.8569  -20.1048  -46.4607 C.3       10 UNK        -0.1800 
     24 N           0.8634  -20.7085  -44.3011 N.am      10 UNK        -0.5000 
     25 C           0.4985  -21.4670  -43.2571 C.2       9 UNK         0.5000 
     26 O           0.5328  -22.6964  -43.2578 O.2       9 UNK        -0.5000 
     27 CA         -0.0510  -20.7291  -42.0267 C.3       9 UNK         0.1400 
     28 CB          1.0946  -20.2330  -41.1317 C.3       9 UNK        -0.1800 
     29 N          -0.8991  -19.5983  -42.3934 N.am      9 UNK        -0.5000 
     30 C          -2.0762  -19.6726  -43.0272 C.2       8 UNK         0.5000 
     31 O          -2.5786  -20.7349  -43.3923 O.2       8 UNK        -0.5000 
     32 CA         -2.7862  -18.3459  -43.3654 C.3       8 UNK         0.1400 
     33 CB         -4.2986  -18.4009  -43.0734 C.3       8 UNK        -0.1800 
     34 N          -2.1630  -17.1623  -42.7612 N.am      8 UNK        -0.5000 
     35 C          -2.0894  -16.8237  -41.4638 C.2       7 UNK         0.5000 
     36 O          -2.6090  -17.4714  -40.5551 O.2       7 UNK        -0.5000 
     37 CA         -1.2539  -15.5745  -41.1093 C.3       7 UNK         0.1400 
     38 CB          0.0367  -15.9912  -40.3855 C.3       7 UNK        -0.1800 
     39 N          -0.8925  -14.7660  -42.2756 N.am      7 UNK        -0.5000 
     40 C          -1.7407  -13.9853  -42.9594 C.2       6 UNK         0.5000 
     41 O          -2.9073  -13.7810  -42.6234 O.2       6 UNK        -0.5000 
     42 CA         -1.2036  -13.3702  -44.2639 C.3       6 UNK         0.1400 
     43 CB         -0.4966  -12.0381  -43.9748 C.3       6 UNK        -0.1800 
     44 N          -0.2799  -14.2615  -44.9696 N.am      6 UNK        -0.5000 
     45 C          -0.6043  -15.4404  -45.5185 C.2       5 UNK         0.5000 
     46 O          -1.7421  -15.9060  -45.5105 O.2       5 UNK        -0.5000 
     47 CA          0.5450  -16.2702  -46.1134 C.3       5 UNK         0.1400 
     48 CB          0.9654  -15.7598  -47.4959 C.3       5 UNK        -0.1800 
     49 N           1.7111  -16.2772  -45.2358 N.am      5 UNK        -0.5000 
     50 C           1.8186  -17.0193  -44.1282 C.2       4 UNK         0.5000 
     51 O           0.9519  -17.8077  -43.7521 O.2       4 UNK        -0.5000 
     52 CA          3.1121  -16.8659  -43.3085 C.3       4 UNK         0.1400 
     53 CB          4.1048  -17.9785  -43.6756 C.3       4 UNK        -0.1800 
     54 N           3.7555  -15.5613  -43.4896 N.am      4 UNK        -0.5000 
     55 C           3.2836  -14.4155  -42.9790 C.2       3 UNK         0.5000 
     56 O           2.2532  -14.3398  -42.3084 O.2       3 UNK        -0.5000 
     57 CA          4.0664  -13.1342  -43.3314 C.3       3 UNK         0.1400 
     58 CB          5.3924  -13.0700  -42.5576 C.3       3 UNK        -0.1800 
     59 N           4.3261  -12.9767  -44.7693 N.am      3 UNK        -0.5000 
     60 C           3.3667  -12.9199  -45.7012 C.2       2 UNK         0.5000 
     61 O           2.1698  -13.0679  -45.4431 O.2       2 UNK        -0.5000 
     62 CA          3.7873  -12.6841  -47.1609 C.3       2 UNK         0.1400 
     63 CB          4.4453  -13.9482  -47.7483 C.3       2 UNK        -0.1800 
     64 N           2.5628  -12.3432  -47.8788 N.am      2 UNK        -0.5000 
     65 C           2.3894  -11.9822  -49.1534 C.2       1 UNK         0.5000 
     66 O           3.3025  -11.8729  -49.9724 O.2       1 UNK        -0.5000 
     67 C          -2.6434  -23.3341  -46.0077 C.2       11 UNK         0.5000 
     68 O          -2.9762  -24.3476  -46.6212 O.2       11 UNK        -0.5000 
     69 N          -2.5563  -23.2746  -44.6714 N.am      12 UNK        -0.5000 
     70 CA         -2.8019  -24.4046  -43.7735 C.3       12 UNK         0.1400 
     71 CB         -2.7812  -23.9251  -42.3147 C.3       12 UNK        -0.1800 
     72 C          -1.8078  -25.5605  -43.9880 C.2       12 UNK         0.5000 
     73 O          -2.2337  -26.7113  -44.0879 O.2       12 UNK        -0.5000 
     74 N          -0.5131  -25.2333  -44.1133 N.am      13 UNK        -0.5000 
     75 CA          0.5664  -26.1810  -44.4079 C.3       13 UNK         0.1400 
     76 CB          1.9197  -25.4617  -44.3065 C.3       13 UNK        -0.1800 
     77 C           0.4192  -26.8605  -45.7828 C.2       13 UNK         0.5000 
     78 O           0.7520  -28.0381  -45.9192 O.2       13 UNK        -0.5000 
     79 N          -0.1109  -26.1180  -46.7630 N.am      14 UNK        -0.5000 
     80 CA         -0.4399  -26.6047  -48.1024 C.3       14 UNK         0.1400 
     81 CB         -0.4538  -25.4085  -49.0671 C.3       14 UNK        -0.1800 
     82 C          -1.7814  -27.3634  -48.1714 C.2       14 UNK         0.5000 
     83 O          -2.1423  -27.8240  -49.2535 O.2       14 UNK        -0.5000 
     84 N          -2.5219  -27.4490  -47.0547 N.am      15 UNK        -0.5000 
     85 CA         -3.8629  -28.0345  -46.9301 C.3       15 UNK         0.1400 
     86 CB         -3.8095  -29.5656  -47.1115 C.3       15 UNK        -0.1800 
     87 C          -4.8944  -27.3476  -47.8527 C.2       15 UNK         0.5000 
     88 O          -5.7214  -28.0163  -48.4742 O.2       15 UNK        -0.5000 
     89 N          -4.7887  -26.0139  -47.9387 N.am      16 UNK        -0.5000 
     90 CA         -5.5641  -25.0801  -48.7592 C.3       16 UNK         0.1400 
     91 CB         -7.0723  -25.1675  -48.4494 C.3       16 UNK        -0.1800 
     92 C          -5.2724  -25.1506  -50.2725 C.2       16 UNK         0.5000 
     93 O          -5.9036  -24.4131  -51.0289 O.2       16 UNK        -0.5000 
     94 N          -4.3022  -25.9697  -50.7094 N.am      17 UNK        -0.5000 
     95 CA         -3.9103  -26.0873  -52.1201 C.3       17 UNK         0.1400 
     96 CB         -3.0027  -27.3116  -52.3063 C.3       17 UNK        -0.1800 
     97 C          -3.2225  -24.8214  -52.6695 C.2       17 UNK         0.5000 
     98 O          -3.2779  -24.5749  -53.8745 O.2       17 UNK        -0.5000 
     99 N          -2.6036  -24.0358  -51.7768 N.am      18 UNK        -0.5000 
    100 CA        -1.9639  -22.7592  -52.0950 C.3       18 UNK         0.1400 
    101 CB        -0.9487  -22.4120  -50.9951 C.3       18 UNK        -0.1800 
    102 C         -2.9638  -21.6027  -52.2811 C.2       18 UNK         0.5000 
    103 O         -2.5795  -20.5784  -52.8427 O.2       18 UNK        -0.5000 
    104 N         -4.2177  -21.7663  -51.8314 N.am      19 UNK        -0.5000 
    105 CA        -5.2738  -20.7490  -51.8747 C.3       19 UNK         0.1400 
    106 CB        -6.3063  -21.0502  -50.7722 C.3       19 UNK        -0.1800 
    107 C         -5.9180  -20.6195  -53.2741 C.2       19 UNK         0.5000 
    108 O         -7.1432  -20.6615  -53.4054 O.2       19 UNK        -0.5000 
    109 N         -5.0717  -20.4733  -54.2970 N.am      20 UNK        -0.5000 
    110 CA        -5.4310  -20.2216  -55.6892 C.3       20 UNK         0.1400 
    111 CB        -4.5049  -21.0730  -56.5803 C.3       20 UNK        -0.1800 
    112 C         -5.3221  -18.7111  -55.9852 C.2       20 UNK         0.5000 
    113 O         -5.4273  -17.8935  -55.0674 O.2       20 UNK        -0.5000 
    114 N         -5.1036  -18.3545  -57.2594 N.am      21 UNK        -0.5000 
    115 CA        -4.7594  -16.9918  -57.6776 C.3       21 UNK         0.1400 
    116 CB        -4.8586  -16.8810  -59.2071 C.3       21 UNK        -0.1800 
    117 C         -3.3562  -16.5852  -57.1838 C.2       21 UNK         0.5000 
    118 O         -3.1852  -15.4584  -56.7199 O.2       21 UNK        -0.5000 
    119 N         -2.4145  -17.5373  -57.2819 N.am      22 UNK        -0.5000 
    120 CA        -1.0441  -17.6241  -56.7298 C.3       22 UNK         0.1400 
    121 C         -0.0738  -16.4029  -56.8173 C.2       22 UNK         0.5000 
    122 N         -0.5011  -15.2218  -57.2323 N.am      22 UNK        -0.7600 
    123 O          1.1150  -16.5482  -56.5448 O.2       22 UNK        -0.5000 
    124 C124       -1.0161  -18.3214  -55.3414 C.3       23 UNK        -0.0398 
    125 S125       -1.8743  -17.4178  -54.0082 S.3       23 UNK        -0.2404 
    126 C126       -0.7080  -17.6515  -52.6306 C.3       23 UNK        -0.0205 
    127 H127       -1.3946  -10.2716  -46.6247 H         1 UNK         0.0600 
    128 H128       -0.1085   -9.2898  -45.9138 H         1 UNK         0.0600 
    129 H129       -1.1918   -8.5902  -47.1205 H         1 UNK         0.0600 
    130 H130       -0.6317  -11.6993  -48.1534 H         1 UNK         0.3000 
    131 H131        0.9759  -10.9274  -50.3623 H         1 UNK         0.0600 
    132 H132        0.3020  -13.7725  -49.4620 H         1 UNK         0.0800 
    133 H133        0.8440  -13.2935  -51.0450 H         1 UNK         0.0800 
    134 H134       -3.4433  -13.6907  -49.8173 H         1 UNK         0.0800 
    135 H135       -2.1745  -13.6221  -48.6192 H         1 UNK         0.0800 
    136 H136       -1.3466  -15.1271  -51.9274 H         1 UNK         0.1150 
    137 H137       -1.3456  -19.1243  -50.4198 H         1 UNK         0.1150 
    138 H138       -2.8091  -15.9256  -47.9712 H         1 UNK         0.1150 
    139 H139       -1.4027  -18.9367  -47.5311 H         1 UNK         0.0800 
    140 H140       -2.8987  -18.1279  -47.1129 H         1 UNK         0.0800 
    141 H141       -4.3778  -21.5938  -46.9779 H         1 UNK         0.0800 
    142 H142       -3.4845  -20.4174  -46.0575 H         1 UNK         0.0800 
    143 H143       -2.0067  -22.4345  -47.8076 H         1 UNK         0.0600 
    144 H144       -1.1606  -20.6189  -45.7170 H         1 UNK         0.3000 
    145 H145        2.1186  -21.9512  -45.4000 H         1 UNK         0.0600 
    146 H146        2.6729  -19.5821  -45.9621 H         1 UNK         0.0600 
    147 H147        2.2465  -20.4902  -47.4037 H         1 UNK         0.0600 
    148 H148        1.0861  -19.3738  -46.7018 H         1 UNK         0.0600 
    149 H149        0.8161  -19.6986  -44.2009 H         1 UNK         0.3000 
    150 H150       -0.6567  -21.4328  -41.4528 H         1 UNK         0.0600 
    151 H151        1.7272  -19.5095  -41.6473 H         1 UNK         0.0600 
    152 H152        1.7312  -21.0615  -40.8183 H         1 UNK         0.0600 
    153 H153        0.7111  -19.7579  -40.2285 H         1 UNK         0.0600 
    154 H154       -0.5125  -18.6783  -42.2359 H         1 UNK         0.3000 
    155 H155       -2.6704  -18.2211  -44.4424 H         1 UNK         0.0600 
    156 H156       -4.5038  -18.6100  -42.0234 H         1 UNK         0.0600 
    157 H157       -4.7810  -19.1841  -43.6595 H         1 UNK         0.0600 
    158 H158       -4.7836  -17.4594  -43.3311 H         1 UNK         0.0600 
    159 H159       -1.7129  -16.5472  -43.4274 H         1 UNK         0.3000 
    160 H160       -1.8486  -14.9611  -40.4295 H         1 UNK         0.0600 
    161 H161        0.6708  -16.6111  -41.0201 H         1 UNK         0.0600 
    162 H162       -0.1845  -16.5633  -39.4836 H         1 UNK         0.0600 
    163 H163        0.6173  -15.1200  -40.0816 H         1 UNK         0.0600 
    164 H164        0.0698  -14.8232  -42.5867 H         1 UNK         0.3000 
    165 H165       -2.0536  -13.1763  -44.9213 H         1 UNK         0.0600 
    166 H166       -0.1267  -11.5827  -44.8922 H         1 UNK         0.0600 
    167 H167       -1.1761  -11.3260  -43.5053 H         1 UNK         0.0600 
    168 H168        0.3558  -12.1731  -43.3073 H         1 UNK         0.0600 
    169 H169        0.6827  -13.9348  -45.0384 H         1 UNK         0.3000 
    170 H170        0.1848  -17.2935  -46.2296 H         1 UNK         0.0600 
    171 H171        1.2883  -14.7218  -47.4595 H         1 UNK         0.0600 
    172 H172        0.1435  -15.8229  -48.2037 H         1 UNK         0.0600 
    173 H173        1.7822  -16.3548  -47.9045 H         1 UNK         0.0600 
    174 H174        2.4530  -15.6298  -45.4535 H         1 UNK         0.3000 
    175 H175        2.8487  -16.9796  -42.2550 H         1 UNK         0.0600 
    176 H176        4.4184  -17.9118  -44.7182 H         1 UNK         0.0600 
    177 H177        4.9977  -17.9311  -43.0521 H         1 UNK         0.0600 
    178 H178        3.6600  -18.9640  -43.5287 H         1 UNK         0.0600 
    179 H179        4.6025  -15.5379  -44.0386 H         1 UNK         0.3000 
    180 H180        3.4539  -12.2866  -43.0164 H         1 UNK         0.0600 
    181 H181        5.8904  -12.1122  -42.7092 H         1 UNK         0.0600 
    182 H182        6.0806  -13.8580  -42.8655 H         1 UNK         0.0600 
    183 H183        5.2247  -13.1806  -41.4853 H         1 UNK         0.0600 
    184 H184        5.2904  -12.8586  -45.0453 H         1 UNK         0.3000 
    185 H185        4.4762  -11.8389  -47.2047 H         1 UNK         0.0600 
    186 H186        4.7562  -13.7954  -48.7814 H         1 UNK         0.0600 
    187 H187        5.3389  -14.2228  -47.1868 H         1 UNK         0.0600 
    188 H188        3.7705  -14.8036  -47.7273 H         1 UNK         0.0600 
    189 H189        1.7521  -12.3681  -47.2710 H         1 UNK         0.3000 
    190 H190       -2.3396  -22.3852  -44.2285 H         1 UNK         0.3000 
    191 H191       -3.8027  -24.7848  -43.9888 H         1 UNK         0.0600 
    192 H192       -3.0050  -24.7451  -41.6314 H         1 UNK         0.0600 
    193 H193       -3.5257  -23.1471  -42.1448 H         1 UNK         0.0600 
    194 H194       -1.8077  -23.5225  -42.0360 H         1 UNK         0.0600 
    195 H195       -0.2352  -24.2652  -43.9699 H         1 UNK         0.3000 
    196 H196        0.5381  -26.9643  -43.6479 H         1 UNK         0.0600 
    197 H197        1.9893  -24.6362  -45.0161 H         1 UNK         0.0600 
    198 H198        2.0766  -25.0571  -43.3065 H         1 UNK         0.0600 
    199 H199        2.7440  -26.1452  -44.5136 H         1 UNK         0.0600 
    200 H200       -0.3110  -25.1425  -46.5781 H         1 UNK         0.3000 
    201 H201        0.3401  -27.2950  -48.4296 H         1 UNK         0.0600 
    202 H202       -1.2292  -24.6896  -48.8017 H         1 UNK         0.0600 
    203 H203       -0.6356  -25.7295  -50.0934 H         1 UNK         0.0600 
    204 H204        0.5028  -24.8859  -49.0586 H         1 UNK         0.0600 
    205 H205       -2.1593  -27.0242  -46.2095 H         1 UNK         0.3000 
    206 H206       -4.1893  -27.8349  -45.9085 H         1 UNK         0.0600 
    207 H207       -3.0816  -30.0160  -46.4367 H         1 UNK         0.0600 
    208 H208       -4.7772  -30.0185  -46.8931 H         1 UNK         0.0600 
    209 H209       -3.5405  -29.8455  -48.1304 H         1 UNK         0.0600 
    210 H210       -4.0520  -25.5669  -47.3933 H         1 UNK         0.3000 
    211 H211       -5.2328  -24.0879  -48.4492 H         1 UNK         0.0600 
    212 H212       -7.6163  -24.3521  -48.9278 H         1 UNK         0.0600 
    213 H213       -7.2602  -25.0957  -47.3782 H         1 UNK         0.0600 
    214 H214       -7.5088  -26.1001  -48.8071 H         1 UNK         0.0600 
    215 H215       -3.8158  -26.5645  -50.0494 H         1 UNK         0.3000 
    216 H216       -4.8174  -26.2493  -52.7063 H         1 UNK         0.0600 
    217 H217       -2.0399  -27.1778  -51.8126 H         1 UNK         0.0600 
    218 H218       -2.8029  -27.4893  -53.3637 H         1 UNK         0.0600 
    219 H219       -3.4650  -28.2141  -51.9059 H         1 UNK         0.0600 
    220 H220       -2.6074  -24.3181  -50.8089 H         1 UNK         0.3000 
    221 H221       -1.4170  -22.8681  -53.0340 H         1 UNK         0.0600 
    222 H222       -0.1778  -23.1775  -50.9123 H         1 UNK         0.0600 
    223 H223       -1.4293  -22.3058  -50.0236 H         1 UNK         0.0600 
    224 H224       -0.4429  -21.4702  -51.2122 H         1 UNK         0.0600 
    225 H225       -4.4890  -22.6674  -51.4622 H         1 UNK         0.3000 
    226 H226       -4.8242  -19.7811  -51.6415 H         1 UNK         0.0600 
    227 H227       -6.8637  -21.9637  -50.9792 H         1 UNK         0.0600 
    228 H228       -5.8299  -21.1622  -49.7986 H         1 UNK         0.0600 
    229 H229       -7.0301  -20.2391  -50.6865 H         1 UNK         0.0600 
    230 H230       -4.0863  -20.3938  -54.0641 H         1 UNK         0.3000 
    231 H231       -6.4637  -20.5234  -55.8736 H         1 UNK         0.0600 
    232 H232       -3.4675  -20.7416  -56.5167 H         1 UNK         0.0600 
    233 H233       -4.8069  -21.0343  -57.6272 H         1 UNK         0.0600 
    234 H234       -4.5340  -22.1218  -56.2830 H         1 UNK         0.0600 
    235 H235       -5.0655  -19.0723  -57.9683 H         1 UNK         0.3000 
    236 H236       -5.4839  -16.3019  -57.2392 H         1 UNK         0.0600 
    237 H237       -5.8680  -17.1040  -59.5530 H         1 UNK         0.0600 
    238 H238       -4.6179  -15.8705  -59.5400 H         1 UNK         0.0600 
    239 H239       -4.1728  -17.5640  -59.7097 H         1 UNK         0.0600 
    240 H240       -2.7118  -18.3867  -57.7372 H         1 UNK         0.3000 
    241 H241       -0.5708  -18.3338  -57.4096 H         1 UNK         0.0600 
    242 H242        0.1366  -14.4447  -57.2994 H         1 UNK         0.3800 
    243 H243       -1.5042  -15.0759  -57.3088 H         1 UNK         0.3800 
    244 H244        0.0140  -18.5229  -55.0429 H         1 UNK         0.0800 
    245 H245       -1.4870  -19.3022  -55.4181 H         1 UNK         0.0800 
    246 H246       -0.4428  -18.7080  -52.5643 H         1 UNK         0.0800 
    247 H247        0.2143  -17.1074  -52.8385 H         1 UNK         0.0800 
@<TRIPOS>BOND
     1    1    2 1    
     2    1  127 1    
     3    1  128 1    
     4    1  129 1    
     5    2    3 2    
     6    2    4 am   BACKBONE|DICT|INTERRES
     7    4    5 1    
     8    4  130 1    
     9    5    6 1    
    10    5   65 1    
    11    5  131 1    
    12    6    7 1    
    13    6  132 1    
    14    6  133 1    
    15    7    8 1    
    16    8    9 1    
    17    8  134 1    
    18    8  135 1    
    19    9   10 ar   
    20    9   14 ar   
    21   10   11 ar   
    22   10  136 1    
    23   11   12 ar   
    24   11  126 1    
    25   12   13 ar   
    26   12  137 1    
    27   13   14 ar   
    28   13   15 1    
    29   14  138 1    
    30   15   16 1    
    31   15  139 1    
    32   15  140 1    
    33   16   17 1    
    34   17   18 1    
    35   17  141 1    
    36   17  142 1    
    37   18   19 1    
    38   18   67 1    
    39   18  143 1    
    40   19   20 am   BACKBONE|DICT|INTERRES
    41   19  144 1    
    42   20   21 2    
    43   20   22 1    
    44   22   23 1    
    45   22   24 1    
    46   22  145 1    
    47   23  146 1    
    48   23  147 1    
    49   23  148 1    
    50   24   25 am   BACKBONE|DICT|INTERRES
    51   24  149 1    
    52   25   26 2    
    53   25   27 1    
    54   27   28 1    
    55   27   29 1    
    56   27  150 1    
    57   28  151 1    
    58   28  152 1    
    59   28  153 1    
    60   29   30 am   BACKBONE|DICT|INTERRES
    61   29  154 1    
    62   30   31 2    
    63   30   32 1    
    64   32   33 1    
    65   32   34 1    
    66   32  155 1    
    67   33  156 1    
    68   33  157 1    
    69   33  158 1    
    70   34   35 am   BACKBONE|DICT|INTERRES
    71   34  159 1    
    72   35   36 2    
    73   35   37 1    
    74   37   38 1    
    75   37   39 1    
    76   37  160 1    
    77   38  161 1    
    78   38  162 1    
    79   38  163 1    
    80   39   40 am   BACKBONE|DICT|INTERRES
    81   39  164 1    
    82   40   41 2    
    83   40   42 1    
    84   42   43 1    
    85   42   44 1    
    86   42  165 1    
    87   43  166 1    
    88   43  167 1    
    89   43  168 1    
    90   44   45 am   BACKBONE|DICT|INTERRES
    91   44  169 1    
    92   45   46 2    
    93   45   47 1    
    94   47   48 1    
    95   47   49 1    
    96   47  170 1    
    97   48  171 1    
    98   48  172 1    
    99   48  173 1    
   100   49   50 am   BACKBONE|DICT|INTERRES
   101   49  174 1    
   102   50   51 2    
   103   50   52 1    
   104   52   53 1    
   105   52   54 1    
   106   52  175 1    
   107   53  176 1    
   108   53  177 1    
   109   53  178 1    
   110   54   55 am   BACKBONE|DICT|INTERRES
   111   54  179 1    
   112   55   56 2    
   113   55   57 1    
   114   57   58 1    
   115   57   59 1    
   116   57  180 1    
   117   58  181 1    
   118   58  182 1    
   119   58  183 1    
   120   59   60 am   BACKBONE|DICT|INTERRES
   121   59  184 1    
   122   60   61 2    
   123   60   62 1    
   124   62   63 1    
   125   62   64 1    
   126   62  185 1    
   127   63  186 1    
   128   63  187 1    
   129   63  188 1    
   130   64   65 am   BACKBONE|DICT|INTERRES
   131   64  189 1    
   132   65   66 2    
   133   67   68 2    
   134   67   69 am   BACKBONE|DICT|INTERRES
   135   69   70 1    
   136   69  190 1    
   137   70   71 1    
   138   70   72 1    
   139   70  191 1    
   140   71  192 1    
   141   71  193 1    
   142   71  194 1    
   143   72   73 2    
   144   72   74 am   BACKBONE|DICT|INTERRES
   145   74   75 1    
   146   74  195 1    
   147   75   76 1    
   148   75   77 1    
   149   75  196 1    
   150   76  197 1    
   151   76  198 1    
   152   76  199 1    
   153   77   78 2    
   154   77   79 am   BACKBONE|DICT|INTERRES
   155   79   80 1    
   156   79  200 1    
   157   80   81 1    
   158   80   82 1    
   159   80  201 1    
   160   81  202 1    
   161   81  203 1    
   162   81  204 1    
   163   82   83 2    
   164   82   84 am   BACKBONE|DICT|INTERRES
   165   84   85 1    
   166   84  205 1    
   167   85   86 1    
   168   85   87 1    
   169   85  206 1    
   170   86  207 1    
   171   86  208 1    
   172   86  209 1    
   173   87   88 2    
   174   87   89 am   BACKBONE|DICT|INTERRES
   175   89   90 1    
   176   89  210 1    
   177   90   91 1    
   178   90   92 1    
   179   90  211 1    
   180   91  212 1    
   181   91  213 1    
   182   91  214 1    
   183   92   93 2    
   184   92   94 am   BACKBONE|DICT|INTERRES
   185   94   95 1    
   186   94  215 1    
   187   95   96 1    
   188   95   97 1    
   189   95  216 1    
   190   96  217 1    
   191   96  218 1    
   192   96  219 1    
   193   97   98 2    
   194   97   99 am   BACKBONE|DICT|INTERRES
   195   99  100 1    
   196   99  220 1    
   197  100  101 1    
   198  100  102 1    
   199  100  221 1    
   200  101  222 1    
   201  101  223 1    
   202  101  224 1    
   203  102  103 2    
   204  102  104 am   BACKBONE|DICT|INTERRES
   205  104  105 1    
   206  104  225 1    
   207  105  106 1    
   208  105  107 1    
   209  105  226 1    
   210  106  227 1    
   211  106  228 1    
   212  106  229 1    
   213  107  108 2    
   214  107  109 am   BACKBONE|DICT|INTERRES
   215  109  110 1    
   216  109  230 1    
   217  110  111 1    
   218  110  112 1    
   219  110  231 1    
   220  111  232 1    
   221  111  233 1    
   222  111  234 1    
   223  112  113 2    
   224  112  114 am   BACKBONE|DICT|INTERRES
   225  114  115 1    
   226  114  235 1    
   227  115  116 1    
   228  115  117 1    
   229  115  236 1    
   230  116  237 1    
   231  116  238 1    
   232  116  239 1    
   233  117  118 2    
   234  117  119 am   BACKBONE|DICT|INTERRES
   235  119  120 1    
   236  119  240 1    
   237  120  121 1    
   238  120  124 1    
   239  120  241 1    
   240  121  122 am   BACKBONE|DICT|INTERRES
   241  121  123 2    
   242  122  242 1    
   243  122  243 1    
   244  124  125 1    
   245  124  244 1    
   246  124  245 1    
   247  125  126 1    
   248  126  246 1    
   249  126  247 1    
@<TRIPOS>SUBSTRUCTURE
     1 UNK         1 GROUP             0       ****    0 ROOT    
