@<TRIPOS>MOLECULE
3R540
247   249    1
SMALL
USER_CHARGES


@<TRIPOS>ATOM
      1 CA          1.7462  -10.2279  -50.0696 C.3       0 UNK        -0.1800 
      2 C           1.4524  -11.3451  -49.0803 C.2       0 UNK         0.5000 
      3 O           0.5934  -11.1792  -48.2153 O.2       0 UNK        -0.5000 
      4 N           2.1643  -12.4735  -49.1979 N.am      1 UNK        -0.5000 
      5 CA          2.0128  -13.6880  -48.3850 C.3       1 UNK         0.1400 
      6 C6          3.1010  -14.7317  -48.7717 C.3       23 UNK        -0.0398 
      7 S7          2.8090  -16.4626  -48.2567 S.3       23 UNK        -0.2404 
      8 C8          2.3749  -17.2005  -49.8626 C.3       23 UNK        -0.0205 
      9 C9          1.5779  -18.4798  -49.6884 C.ar      23 UNK        -0.0193 
     10 C10         0.1821  -18.4424  -49.7383 C.ar      23 UNK        -0.1150 
     11 C11        -0.5632  -19.6136  -49.5845 C.ar      23 UNK        -0.0193 
     12 C12         0.0969  -20.8301  -49.4005 C.ar      23 UNK        -0.1150 
     13 C13         1.4916  -20.8727  -49.3093 C.ar      23 UNK        -0.0193 
     14 C14         2.2293  -19.6969  -49.4708 C.ar      23 UNK        -0.1150 
     15 C15         2.1932  -22.1820  -48.9827 C.3       23 UNK        -0.0205 
     16 S16         2.6849  -22.2806  -47.2260 S.3       23 UNK        -0.2404 
     17 C17         1.0903  -22.0592  -46.3660 C.3       23 UNK        -0.0398 
     18 CA          0.3387  -23.3961  -46.1590 C.3       11 UNK         0.1400 
     19 N           0.9003  -24.1647  -45.0394 N.am      11 UNK        -0.5000 
     20 C           0.5805  -25.4206  -44.6954 C.2       10 UNK         0.5000 
     21 O          -0.2890  -26.0861  -45.2579 O.2       10 UNK        -0.5000 
     22 CA          1.3288  -26.0140  -43.4888 C.3       10 UNK         0.1400 
     23 CB          2.6577  -26.6387  -43.9386 C.3       10 UNK        -0.1800 
     24 N           1.5869  -25.0198  -42.4449 N.am      10 UNK        -0.5000 
     25 C           0.6381  -24.4682  -41.6737 C.2       9 UNK         0.5000 
     26 O          -0.5526  -24.7740  -41.7322 O.2       9 UNK        -0.5000 
     27 CA          1.0926  -23.3625  -40.7008 C.3       9 UNK         0.1400 
     28 CB          1.5572  -23.9709  -39.3690 C.3       9 UNK        -0.1800 
     29 N           2.1588  -22.5168  -41.2476 N.am      9 UNK        -0.5000 
     30 C           2.0163  -21.7206  -42.3154 C.2       8 UNK         0.5000 
     31 O           0.9639  -21.6191  -42.9491 O.2       8 UNK        -0.5000 
     32 CA          3.2795  -20.9657  -42.7769 C.3       8 UNK         0.1400 
     33 CB          4.2202  -21.9167  -43.5346 C.3       8 UNK        -0.1800 
     34 N           2.9818  -19.8168  -43.6372 N.am      8 UNK        -0.5000 
     35 C           2.3551  -18.7065  -43.2300 C.2       7 UNK         0.5000 
     36 O           1.9727  -18.5241  -42.0692 O.2       7 UNK        -0.5000 
     37 CA          2.1328  -17.6108  -44.2875 C.3       7 UNK         0.1400 
     38 CB          1.0009  -17.9847  -45.2606 C.3       7 UNK        -0.1800 
     39 N           1.7834  -16.3798  -43.5862 N.am      7 UNK        -0.5000 
     40 C           2.2301  -15.1530  -43.8645 C.2       6 UNK         0.5000 
     41 O           2.9302  -14.8742  -44.8409 O.2       6 UNK        -0.5000 
     42 CA          1.8560  -14.0690  -42.8315 C.3       6 UNK         0.1400 
     43 CB          2.7596  -14.1748  -41.5918 C.3       6 UNK        -0.1800 
     44 N           1.9467  -12.7054  -43.3551 N.am      6 UNK        -0.5000 
     45 C           1.1803  -12.2092  -44.3319 C.2       5 UNK         0.5000 
     46 O           0.2946  -12.8552  -44.8965 O.2       5 UNK        -0.5000 
     47 CA          1.4707  -10.7559  -44.7473 C.3       5 UNK         0.1400 
     48 CB          2.7995  -10.6589  -45.5151 C.3       5 UNK        -0.1800 
     49 N           0.4010  -10.2342  -45.5950 N.am      5 UNK        -0.5000 
     50 C          -0.7224   -9.6623  -45.1451 C.2       4 UNK         0.5000 
     51 O          -0.9464   -9.4402  -43.9541 O.2       4 UNK        -0.5000 
     52 CA         -1.7759   -9.2775  -46.1949 C.3       4 UNK         0.1400 
     53 CB         -1.4086   -7.9540  -46.8884 C.3       4 UNK        -0.1800 
     54 N          -1.9504  -10.3330  -47.1911 N.am      4 UNK        -0.5000 
     55 C          -3.0884  -10.5877  -47.8474 C.2       3 UNK         0.5000 
     56 O          -4.1267   -9.9421  -47.6960 O.2       3 UNK        -0.5000 
     57 CA         -3.0715  -11.7675  -48.8386 C.3       3 UNK         0.1400 
     58 CB         -2.5945  -11.3037  -50.2235 C.3       3 UNK        -0.1800 
     59 N          -2.2336  -12.8804  -48.3948 N.am      3 UNK        -0.5000 
     60 C          -2.4872  -13.6712  -47.3446 C.2       2 UNK         0.5000 
     61 O          -3.4829  -13.5514  -46.6298 O.2       2 UNK        -0.5000 
     62 CA         -1.4545  -14.7657  -47.0107 C.3       2 UNK         0.1400 
     63 CB         -1.8259  -16.1074  -47.6628 C.3       2 UNK        -0.1800 
     64 N          -0.0641  -14.3866  -47.2861 N.am      2 UNK        -0.5000 
     65 C           0.5602  -14.2176  -48.4593 C.2       1 UNK         0.5000 
     66 O           0.0330  -14.4008  -49.5586 O.2       1 UNK        -0.5000 
     67 C          -1.1830  -23.1547  -46.0550 C.2       11 UNK         0.5000 
     68 O          -1.8139  -22.8651  -47.0704 O.2       11 UNK        -0.5000 
     69 N          -1.7598  -23.3203  -44.8559 N.am      12 UNK        -0.5000 
     70 CA         -3.2041  -23.3106  -44.6203 C.3       12 UNK         0.1400 
     71 CB         -3.4601  -23.3261  -43.1060 C.3       12 UNK        -0.1800 
     72 C          -3.9503  -24.4752  -45.3086 C.2       12 UNK         0.5000 
     73 O          -5.1626  -24.3733  -45.4996 O.2       12 UNK        -0.5000 
     74 N          -3.2267  -25.5439  -45.6729 N.am      13 UNK        -0.5000 
     75 CA         -3.7372  -26.6861  -46.4266 C.3       13 UNK         0.1400 
     76 CB         -3.7157  -27.9364  -45.5326 C.3       13 UNK        -0.1800 
     77 C          -2.9176  -26.9122  -47.7072 C.2       13 UNK         0.5000 
     78 O          -3.5025  -27.0437  -48.7835 O.2       13 UNK        -0.5000 
     79 N          -1.5839  -26.9565  -47.5790 N.am      14 UNK        -0.5000 
     80 CA         -0.6412  -27.2277  -48.6631 C.3       14 UNK         0.1400 
     81 CB          0.7624  -27.4497  -48.0751 C.3       14 UNK        -0.1800 
     82 C          -0.6346  -26.0933  -49.7003 C.2       14 UNK         0.5000 
     83 O          -0.1728  -24.9944  -49.3943 O.2       14 UNK        -0.5000 
     84 N          -1.1681  -26.3841  -50.8956 N.am      15 UNK        -0.5000 
     85 CA         -1.3062  -25.4801  -52.0449 C.3       15 UNK         0.1400 
     86 CB          0.0803  -25.0757  -52.5909 C.3       15 UNK        -0.1800 
     87 C          -2.2088  -24.2555  -51.7766 C.2       15 UNK         0.5000 
     88 O          -2.0996  -23.2572  -52.4899 O.2       15 UNK        -0.5000 
     89 N          -3.0994  -24.3532  -50.7771 N.am      16 UNK        -0.5000 
     90 CA         -3.9454  -23.2590  -50.2957 C.3       16 UNK         0.1400 
     91 CB         -4.7569  -23.7317  -49.0815 C.3       16 UNK        -0.1800 
     92 C          -4.8667  -22.6727  -51.3803 C.2       16 UNK         0.5000 
     93 O          -4.9091  -21.4550  -51.5596 O.2       16 UNK        -0.5000 
     94 N          -5.5521  -23.5622  -52.1100 N.am      17 UNK        -0.5000 
     95 CA         -6.4442  -23.2113  -53.2155 C.3       17 UNK         0.1400 
     96 CB         -7.4139  -24.3766  -53.4635 C.3       17 UNK        -0.1800 
     97 C          -5.6875  -22.8578  -54.5095 C.2       17 UNK         0.5000 
     98 O          -6.2141  -22.1007  -55.3246 O.2       17 UNK        -0.5000 
     99 N          -4.4755  -23.4062  -54.6779 N.am      18 UNK        -0.5000 
    100 CA        -3.6112  -23.1687  -55.8352 C.3       18 UNK         0.1400 
    101 CB        -2.5362  -24.2638  -55.9125 C.3       18 UNK        -0.1800 
    102 C         -2.9768  -21.7685  -55.7962 C.2       18 UNK         0.5000 
    103 O         -2.9828  -21.0686  -56.8095 O.2       18 UNK        -0.5000 
    104 N         -2.4746  -21.3737  -54.6179 N.am      19 UNK        -0.5000 
    105 CA        -1.9770  -20.0250  -54.3423 C.3       19 UNK         0.1400 
    106 CB        -1.1049  -20.0629  -53.0811 C.3       19 UNK        -0.1800 
    107 C         -3.1158  -18.9962  -54.1965 C.2       19 UNK         0.5000 
    108 O         -2.8930  -17.8099  -54.4375 O.2       19 UNK        -0.5000 
    109 N         -4.3101  -19.4698  -53.8103 N.am      20 UNK        -0.5000 
    110 CA        -5.6120  -18.7923  -53.7341 C.3       20 UNK         0.1400 
    111 CB        -6.0324  -18.2440  -55.1100 C.3       20 UNK        -0.1800 
    112 C         -5.7400  -17.7109  -52.6441 C.2       20 UNK         0.5000 
    113 O         -6.8302  -17.5429  -52.0957 O.2       20 UNK        -0.5000 
    114 N         -4.6393  -17.0240  -52.3120 N.am      21 UNK        -0.5000 
    115 CA        -4.5459  -15.9698  -51.2946 C.3       21 UNK         0.1400 
    116 CB        -3.1225  -15.3921  -51.3173 C.3       21 UNK        -0.1800 
    117 C         -4.9253  -16.4238  -49.8689 C.2       21 UNK         0.5000 
    118 O         -5.2964  -15.5896  -49.0438 O.2       21 UNK        -0.5000 
    119 N         -4.8449  -17.7355  -49.6217 N.am      22 UNK        -0.5000 
    120 CA        -5.2867  -18.4077  -48.3933 C.3       22 UNK         0.1400 
    121 C         -6.8276  -18.6279  -48.3160 C.2       22 UNK         0.5000 
    122 N         -7.6047  -18.3662  -49.3617 N.am      22 UNK        -0.7600 
    123 O         -7.3337  -19.0382  -47.2754 O.2       22 UNK        -0.5000 
    124 C124       -4.5271  -19.7436  -48.1887 C.3       23 UNK        -0.0398 
    125 S125       -2.7411  -19.5105  -47.9010 S.3       23 UNK        -0.2404 
    126 C126       -2.0797  -19.5667  -49.5947 C.3       23 UNK        -0.0205 
    127 H127        2.5355  -10.5019  -50.7699 H         1 UNK         0.0600 
    128 H128        2.0593   -9.3303  -49.5365 H         1 UNK         0.0600 
    129 H129        0.8497   -9.9901  -50.6418 H         1 UNK         0.0600 
    130 H130        2.8385  -12.5376  -49.9465 H         1 UNK         0.3000 
    131 H131        2.2000  -13.4021  -47.3480 H         1 UNK         0.0600 
    132 H132        4.0561  -14.4207  -48.3465 H         1 UNK         0.0800 
    133 H133        3.2552  -14.7233  -49.8517 H         1 UNK         0.0800 
    134 H134        3.2857  -17.3981  -50.4296 H         1 UNK         0.0800 
    135 H135        1.7923  -16.4903  -50.4520 H         1 UNK         0.0800 
    136 H136       -0.3224  -17.4979  -49.8854 H         1 UNK         0.1150 
    137 H137       -0.4797  -21.7361  -49.2684 H         1 UNK         0.1150 
    138 H138        3.3077  -19.7249  -49.4010 H         1 UNK         0.1150 
    139 H139        3.0816  -22.2853  -49.6070 H         1 UNK         0.0800 
    140 H140        1.5514  -23.0293  -49.2249 H         1 UNK         0.0800 
    141 H141        0.4855  -21.3299  -46.9004 H         1 UNK         0.0800 
    142 H142        1.2909  -21.5794  -45.4114 H         1 UNK         0.0800 
    143 H143        0.4717  -24.0051  -47.0542 H         1 UNK         0.0600 
    144 H144        1.5912  -23.6844  -44.4839 H         1 UNK         0.3000 
    145 H145        0.7048  -26.8042  -43.0656 H         1 UNK         0.0600 
    146 H146        2.4922  -27.3942  -44.7081 H         1 UNK         0.0600 
    147 H147        3.1643  -27.1289  -43.1071 H         1 UNK         0.0600 
    148 H148        3.3362  -25.8918  -44.3529 H         1 UNK         0.0600 
    149 H149        2.5429  -24.7210  -42.3217 H         1 UNK         0.3000 
    150 H150        0.2284  -22.7252  -40.5010 H         1 UNK         0.0600 
    151 H151        1.8006  -23.1941  -38.6440 H         1 UNK         0.0600 
    152 H152        0.7743  -24.5901  -38.9290 H         1 UNK         0.0600 
    153 H153        2.4392  -24.5995  -39.4978 H         1 UNK         0.0600 
    154 H154        3.0515  -22.5559  -40.7767 H         1 UNK         0.3000 
    155 H155        3.7981  -20.5961  -41.8897 H         1 UNK         0.0600 
    156 H156        3.7435  -22.3351  -44.4209 H         1 UNK         0.0600 
    157 H157        4.5294  -22.7521  -42.9053 H         1 UNK         0.0600 
    158 H158        5.1276  -21.4036  -43.8537 H         1 UNK         0.0600 
    159 H159        3.2467  -19.9028  -44.6073 H         1 UNK         0.3000 
    160 H160        3.0631  -17.4760  -44.8437 H         1 UNK         0.0600 
    161 H161        0.0664  -18.1873  -44.7362 H         1 UNK         0.0600 
    162 H162        1.2549  -18.8732  -45.8399 H         1 UNK         0.0600 
    163 H163        0.8172  -17.1798  -45.9721 H         1 UNK         0.0600 
    164 H164        1.2920  -16.5414  -42.7159 H         1 UNK         0.3000 
    165 H165        0.8217  -14.2377  -42.5236 H         1 UNK         0.0600 
    166 H166        2.6931  -15.1641  -41.1369 H         1 UNK         0.0600 
    167 H167        3.8067  -14.0001  -41.8428 H         1 UNK         0.0600 
    168 H168        2.4712  -13.4508  -40.8294 H         1 UNK         0.0600 
    169 H169        2.6764  -12.1270  -42.9658 H         1 UNK         0.3000 
    170 H170        1.5484  -10.1475  -43.8437 H         1 UNK         0.0600 
    171 H171        2.8055  -11.2971  -46.3977 H         1 UNK         0.0600 
    172 H172        3.6397  -10.9620  -44.8895 H         1 UNK         0.0600 
    173 H173        2.9924   -9.6368  -45.8412 H         1 UNK         0.0600 
    174 H174        0.4893  -10.4436  -46.5864 H         1 UNK         0.3000 
    175 H175       -2.7169   -9.1367  -45.6585 H         1 UNK         0.0600 
    176 H176       -1.2469   -7.1606  -46.1576 H         1 UNK         0.0600 
    177 H177       -0.4963   -8.0512  -47.4785 H         1 UNK         0.0600 
    178 H178       -2.2046   -7.6234  -47.5557 H         1 UNK         0.0600 
    179 H179       -1.1345  -10.9000  -47.4024 H         1 UNK         0.3000 
    180 H180       -4.0947  -12.1365  -48.9353 H         1 UNK         0.0600 
    181 H181       -1.5649  -10.9458  -50.1944 H         1 UNK         0.0600 
    182 H182       -3.2153  -10.4885  -50.5973 H         1 UNK         0.0600 
    183 H183       -2.6475  -12.1127  -50.9521 H         1 UNK         0.0600 
    184 H184       -1.3967  -13.0726  -48.9331 H         1 UNK         0.3000 
    185 H185       -1.4993  -14.9095  -45.9300 H         1 UNK         0.0600 
    186 H186       -2.8120  -16.4355  -47.3330 H         1 UNK         0.0600 
    187 H187       -1.8577  -16.0394  -48.7484 H         1 UNK         0.0600 
    188 H188       -1.1159  -16.8895  -47.3960 H         1 UNK         0.0600 
    189 H189        0.4272  -14.0839  -46.4503 H         1 UNK         0.3000 
    190 H190       -1.1730  -23.5507  -44.0660 H         1 UNK         0.3000 
    191 H191       -3.6031  -22.3791  -45.0275 H         1 UNK         0.0600 
    192 H192       -2.9671  -22.4887  -42.6118 H         1 UNK         0.0600 
    193 H193       -4.5264  -23.2499  -42.8894 H         1 UNK         0.0600 
    194 H194       -3.0979  -24.2473  -42.6481 H         1 UNK         0.0600 
    195 H195       -2.2308  -25.5408  -45.4819 H         1 UNK         0.3000 
    196 H196       -4.7694  -26.5103  -46.7368 H         1 UNK         0.0600 
    197 H197       -4.0681  -28.8132  -46.0773 H         1 UNK         0.0600 
    198 H198       -4.3649  -27.8087  -44.6663 H         1 UNK         0.0600 
    199 H199       -2.7115  -28.1556  -45.1671 H         1 UNK         0.0600 
    200 H200       -1.1635  -26.7767  -46.6703 H         1 UNK         0.3000 
    201 H201       -0.9483  -28.1555  -49.1503 H         1 UNK         0.0600 
    202 H202        1.4743  -27.7127  -48.8582 H         1 UNK         0.0600 
    203 H203        0.7630  -28.2611  -47.3472 H         1 UNK         0.0600 
    204 H204        1.1403  -26.5552  -47.5786 H         1 UNK         0.0600 
    205 H205       -1.5570  -27.3080  -51.0266 H         1 UNK         0.3000 
    206 H206       -1.8095  -26.0548  -52.8234 H         1 UNK         0.0600 
    207 H207        0.7010  -25.9514  -52.7800 H         1 UNK         0.0600 
    208 H208       -0.0076  -24.5342  -53.5330 H         1 UNK         0.0600 
    209 H209        0.6159  -24.4278  -51.8962 H         1 UNK         0.0600 
    210 H210       -3.1274  -25.2138  -50.2458 H         1 UNK         0.3000 
    211 H211       -3.2784  -22.4681  -49.9560 H         1 UNK         0.0600 
    212 H212       -5.3933  -24.5838  -49.3225 H         1 UNK         0.0600 
    213 H213       -5.3978  -22.9356  -48.7007 H         1 UNK         0.0600 
    214 H214       -4.0957  -24.0283  -48.2683 H         1 UNK         0.0600 
    215 H215       -5.4516  -24.5438  -51.8963 H         1 UNK         0.3000 
    216 H216       -7.0312  -22.3365  -52.9266 H         1 UNK         0.0600 
    217 H217       -8.0046  -24.5941  -52.5734 H         1 UNK         0.0600 
    218 H218       -6.8859  -25.2876  -53.7479 H         1 UNK         0.0600 
    219 H219       -8.1136  -24.1386  -54.2659 H         1 UNK         0.0600 
    220 H220       -4.1013  -23.9819  -53.9393 H         1 UNK         0.3000 
    221 H221       -4.2213  -23.2344  -56.7388 H         1 UNK         0.0600 
    222 H222       -1.8876  -24.2583  -55.0374 H         1 UNK         0.0600 
    223 H223       -2.9861  -25.2536  -55.9910 H         1 UNK         0.0600 
    224 H224       -1.9025  -24.1245  -56.7893 H         1 UNK         0.0600 
    225 H225       -2.4557  -22.0326  -53.8419 H         1 UNK         0.3000 
    226 H226       -1.3511  -19.7041  -55.1776 H         1 UNK         0.0600 
    227 H227       -0.2152  -20.6734  -53.2359 H         1 UNK         0.0600 
    228 H228       -0.7710  -19.0647  -52.7944 H         1 UNK         0.0600 
    229 H229       -1.6508  -20.4876  -52.2411 H         1 UNK         0.0600 
    230 H230       -4.3393  -20.4437  -53.5383 H         1 UNK         0.3000 
    231 H231       -6.3234  -19.5754  -53.4668 H         1 UNK         0.0600 
    232 H232       -5.3771  -17.4403  -55.4468 H         1 UNK         0.0600 
    233 H233       -7.0466  -17.8443  -55.0761 H         1 UNK         0.0600 
    234 H234       -6.0179  -19.0296  -55.8659 H         1 UNK         0.0600 
    235 H235       -3.8085  -17.1980  -52.8696 H         1 UNK         0.3000 
    236 H236       -5.2427  -15.1777  -51.5754 H         1 UNK         0.0600 
    237 H237       -2.3733  -16.1591  -51.1176 H         1 UNK         0.0600 
    238 H238       -2.8930  -14.9462  -52.2851 H         1 UNK         0.0600 
    239 H239       -3.0024  -14.6117  -50.5656 H         1 UNK         0.0600 
    240 H240       -4.5635  -18.3394  -50.3785 H         1 UNK         0.3000 
    241 H241       -5.0423  -17.7576  -47.5511 H         1 UNK         0.0600 
    242 H242       -8.5984  -18.5111  -49.2816 H         1 UNK         0.3800 
    243 H243       -7.2224  -18.0252  -50.2380 H         1 UNK         0.3800 
    244 H244       -4.9137  -20.2746  -47.3170 H         1 UNK         0.0800 
    245 H245       -4.6815  -20.4107  -49.0371 H         1 UNK         0.0800 
    246 H246       -2.4720  -20.4374  -50.1146 H         1 UNK         0.0800 
    247 H247       -2.4143  -18.6943  -50.1549 H         1 UNK         0.0800 
@<TRIPOS>BOND
     1    1    2 1    
     2    1  127 1    
     3    1  128 1    
     4    1  129 1    
     5    2    3 2    
     6    2    4 am   BACKBONE|DICT|INTERRES
     7    4    5 1    
     8    4  130 1    
     9    5    6 1    
    10    5   65 1    
    11    5  131 1    
    12    6    7 1    
    13    6  132 1    
    14    6  133 1    
    15    7    8 1    
    16    8    9 1    
    17    8  134 1    
    18    8  135 1    
    19    9   10 ar   
    20    9   14 ar   
    21   10   11 ar   
    22   10  136 1    
    23   11   12 ar   
    24   11  126 1    
    25   12   13 ar   
    26   12  137 1    
    27   13   14 ar   
    28   13   15 1    
    29   14  138 1    
    30   15   16 1    
    31   15  139 1    
    32   15  140 1    
    33   16   17 1    
    34   17   18 1    
    35   17  141 1    
    36   17  142 1    
    37   18   19 1    
    38   18   67 1    
    39   18  143 1    
    40   19   20 am   BACKBONE|DICT|INTERRES
    41   19  144 1    
    42   20   21 2    
    43   20   22 1    
    44   22   23 1    
    45   22   24 1    
    46   22  145 1    
    47   23  146 1    
    48   23  147 1    
    49   23  148 1    
    50   24   25 am   BACKBONE|DICT|INTERRES
    51   24  149 1    
    52   25   26 2    
    53   25   27 1    
    54   27   28 1    
    55   27   29 1    
    56   27  150 1    
    57   28  151 1    
    58   28  152 1    
    59   28  153 1    
    60   29   30 am   BACKBONE|DICT|INTERRES
    61   29  154 1    
    62   30   31 2    
    63   30   32 1    
    64   32   33 1    
    65   32   34 1    
    66   32  155 1    
    67   33  156 1    
    68   33  157 1    
    69   33  158 1    
    70   34   35 am   BACKBONE|DICT|INTERRES
    71   34  159 1    
    72   35   36 2    
    73   35   37 1    
    74   37   38 1    
    75   37   39 1    
    76   37  160 1    
    77   38  161 1    
    78   38  162 1    
    79   38  163 1    
    80   39   40 am   BACKBONE|DICT|INTERRES
    81   39  164 1    
    82   40   41 2    
    83   40   42 1    
    84   42   43 1    
    85   42   44 1    
    86   42  165 1    
    87   43  166 1    
    88   43  167 1    
    89   43  168 1    
    90   44   45 am   BACKBONE|DICT|INTERRES
    91   44  169 1    
    92   45   46 2    
    93   45   47 1    
    94   47   48 1    
    95   47   49 1    
    96   47  170 1    
    97   48  171 1    
    98   48  172 1    
    99   48  173 1    
   100   49   50 am   BACKBONE|DICT|INTERRES
   101   49  174 1    
   102   50   51 2    
   103   50   52 1    
   104   52   53 1    
   105   52   54 1    
   106   52  175 1    
   107   53  176 1    
   108   53  177 1    
   109   53  178 1    
   110   54   55 am   BACKBONE|DICT|INTERRES
   111   54  179 1    
   112   55   56 2    
   113   55   57 1    
   114   57   58 1    
   115   57   59 1    
   116   57  180 1    
   117   58  181 1    
   118   58  182 1    
   119   58  183 1    
   120   59   60 am   BACKBONE|DICT|INTERRES
   121   59  184 1    
   122   60   61 2    
   123   60   62 1    
   124   62   63 1    
   125   62   64 1    
   126   62  185 1    
   127   63  186 1    
   128   63  187 1    
   129   63  188 1    
   130   64   65 am   BACKBONE|DICT|INTERRES
   131   64  189 1    
   132   65   66 2    
   133   67   68 2    
   134   67   69 am   BACKBONE|DICT|INTERRES
   135   69   70 1    
   136   69  190 1    
   137   70   71 1    
   138   70   72 1    
   139   70  191 1    
   140   71  192 1    
   141   71  193 1    
   142   71  194 1    
   143   72   73 2    
   144   72   74 am   BACKBONE|DICT|INTERRES
   145   74   75 1    
   146   74  195 1    
   147   75   76 1    
   148   75   77 1    
   149   75  196 1    
   150   76  197 1    
   151   76  198 1    
   152   76  199 1    
   153   77   78 2    
   154   77   79 am   BACKBONE|DICT|INTERRES
   155   79   80 1    
   156   79  200 1    
   157   80   81 1    
   158   80   82 1    
   159   80  201 1    
   160   81  202 1    
   161   81  203 1    
   162   81  204 1    
   163   82   83 2    
   164   82   84 am   BACKBONE|DICT|INTERRES
   165   84   85 1    
   166   84  205 1    
   167   85   86 1    
   168   85   87 1    
   169   85  206 1    
   170   86  207 1    
   171   86  208 1    
   172   86  209 1    
   173   87   88 2    
   174   87   89 am   BACKBONE|DICT|INTERRES
   175   89   90 1    
   176   89  210 1    
   177   90   91 1    
   178   90   92 1    
   179   90  211 1    
   180   91  212 1    
   181   91  213 1    
   182   91  214 1    
   183   92   93 2    
   184   92   94 am   BACKBONE|DICT|INTERRES
   185   94   95 1    
   186   94  215 1    
   187   95   96 1    
   188   95   97 1    
   189   95  216 1    
   190   96  217 1    
   191   96  218 1    
   192   96  219 1    
   193   97   98 2    
   194   97   99 am   BACKBONE|DICT|INTERRES
   195   99  100 1    
   196   99  220 1    
   197  100  101 1    
   198  100  102 1    
   199  100  221 1    
   200  101  222 1    
   201  101  223 1    
   202  101  224 1    
   203  102  103 2    
   204  102  104 am   BACKBONE|DICT|INTERRES
   205  104  105 1    
   206  104  225 1    
   207  105  106 1    
   208  105  107 1    
   209  105  226 1    
   210  106  227 1    
   211  106  228 1    
   212  106  229 1    
   213  107  108 2    
   214  107  109 am   BACKBONE|DICT|INTERRES
   215  109  110 1    
   216  109  230 1    
   217  110  111 1    
   218  110  112 1    
   219  110  231 1    
   220  111  232 1    
   221  111  233 1    
   222  111  234 1    
   223  112  113 2    
   224  112  114 am   BACKBONE|DICT|INTERRES
   225  114  115 1    
   226  114  235 1    
   227  115  116 1    
   228  115  117 1    
   229  115  236 1    
   230  116  237 1    
   231  116  238 1    
   232  116  239 1    
   233  117  118 2    
   234  117  119 am   BACKBONE|DICT|INTERRES
   235  119  120 1    
   236  119  240 1    
   237  120  121 1    
   238  120  124 1    
   239  120  241 1    
   240  121  122 am   BACKBONE|DICT|INTERRES
   241  121  123 2    
   242  122  242 1    
   243  122  243 1    
   244  124  125 1    
   245  124  244 1    
   246  124  245 1    
   247  125  126 1    
   248  126  246 1    
   249  126  247 1    
@<TRIPOS>SUBSTRUCTURE
     1 UNK         1 GROUP             0       ****    0 ROOT    
