@<TRIPOS>MOLECULE
3R540
247   249    1
SMALL
USER_CHARGES


@<TRIPOS>ATOM
      1 CA          3.0730  -16.8867  -47.8609 C.3       0 UNK        -0.1800 
      2 C           4.0462  -15.7129  -47.9471 C.2       0 UNK         0.5000 
      3 O           5.2551  -15.9318  -47.9276 O.2       0 UNK        -0.5000 
      4 N           3.5876  -14.4577  -48.0487 N.am      1 UNK        -0.5000 
      5 CA          2.1863  -14.0134  -48.0596 C.3       1 UNK         0.1400 
      6 C6          1.8405  -13.2656  -49.3788 C.3       23 UNK        -0.0398 
      7 S7          0.2430  -13.8111  -50.0692 S.3       23 UNK        -0.2404 
      8 C8          0.7851  -15.2646  -51.0237 C.3       23 UNK        -0.0205 
      9 C9         -0.2264  -16.3972  -50.9483 C.ar      23 UNK        -0.0193 
     10 C10        -0.9341  -16.7945  -52.0861 C.ar      23 UNK        -0.1150 
     11 C11        -1.8430  -17.8612  -52.0288 C.ar      23 UNK        -0.0193 
     12 C12        -2.0283  -18.5214  -50.8098 C.ar      23 UNK        -0.1150 
     13 C13        -1.3374  -18.1294  -49.6609 C.ar      23 UNK        -0.0193 
     14 C14        -0.4382  -17.0637  -49.7390 C.ar      23 UNK        -0.1150 
     15 C15        -1.6051  -18.8241  -48.3313 C.3       23 UNK        -0.0205 
     16 S16        -0.0821  -19.3440  -47.4701 S.3       23 UNK        -0.2404 
     17 C17         0.3824  -20.8225  -48.4335 C.3       23 UNK        -0.0398 
     18 CA          0.1655  -22.1832  -47.7213 C.3       11 UNK         0.1400 
     19 N           1.1131  -22.4154  -46.6255 N.am      11 UNK        -0.5000 
     20 C           1.4003  -23.6350  -46.1451 C.2       10 UNK         0.5000 
     21 O           0.8773  -24.6701  -46.5583 O.2       10 UNK        -0.5000 
     22 CA          2.4185  -23.7121  -44.9946 C.3       10 UNK         0.1400 
     23 CB          3.8454  -23.4688  -45.5096 C.3       10 UNK        -0.1800 
     24 N           2.1259  -22.7761  -43.9105 N.am      10 UNK        -0.5000 
     25 C           1.0380  -22.8276  -43.1288 C.2       9 UNK         0.5000 
     26 O           0.1460  -23.6650  -43.2488 O.2       9 UNK        -0.5000 
     27 CA          0.9058  -21.7312  -42.0555 C.3       9 UNK         0.1400 
     28 CB          1.6300  -22.1448  -40.7658 C.3       9 UNK        -0.1800 
     29 N           1.4096  -20.4301  -42.5014 N.am      9 UNK        -0.5000 
     30 C           0.8947  -19.7443  -43.5283 C.2       8 UNK         0.5000 
     31 O          -0.0548  -20.1413  -44.2104 O.2       8 UNK        -0.5000 
     32 CA          1.5822  -18.4216  -43.8808 C.3       8 UNK         0.1400 
     33 CB          2.7945  -18.6722  -44.7925 C.3       8 UNK        -0.1800 
     34 N           0.6055  -17.5955  -44.5722 N.am      8 UNK        -0.5000 
     35 C           0.5308  -16.2648  -44.5423 C.2       7 UNK         0.5000 
     36 O           1.3816  -15.5506  -44.0026 O.2       7 UNK        -0.5000 
     37 CA         -0.6785  -15.6323  -45.2688 C.3       7 UNK         0.1400 
     38 CB         -1.9725  -16.4720  -45.1513 C.3       7 UNK        -0.1800 
     39 N          -0.9096  -14.2443  -44.8542 N.am      7 UNK        -0.5000 
     40 C          -1.2775  -13.8262  -43.6369 C.2       6 UNK         0.5000 
     41 O          -1.5948  -14.5758  -42.7105 O.2       6 UNK        -0.5000 
     42 CA         -1.2605  -12.3130  -43.3915 C.3       6 UNK         0.1400 
     43 CB         -2.6809  -11.7324  -43.3115 C.3       6 UNK        -0.1800 
     44 N          -0.5718  -12.1243  -42.1247 N.am      6 UNK        -0.5000 
     45 C           0.2887  -11.1520  -41.8210 C.2       5 UNK         0.5000 
     46 O           0.4599  -10.1520  -42.5174 O.2       5 UNK        -0.5000 
     47 CA          1.1580  -11.3627  -40.5649 C.3       5 UNK         0.1400 
     48 CB          0.4555  -10.8557  -39.2909 C.3       5 UNK        -0.1800 
     49 N           1.6492  -12.7442  -40.4266 N.am      5 UNK        -0.5000 
     50 C           0.9773  -13.8611  -40.1017 C.2       4 UNK         0.5000 
     51 O          -0.2057  -13.8636  -39.7613 O.2       4 UNK        -0.5000 
     52 CA          1.7395  -15.1961  -40.2456 C.3       4 UNK         0.1400 
     53 CB          0.7953  -16.3956  -40.4489 C.3       4 UNK        -0.1800 
     54 N           2.6640  -15.1372  -41.3778 N.am      4 UNK        -0.5000 
     55 C           3.9870  -14.9484  -41.2933 C.2       3 UNK         0.5000 
     56 O           4.6056  -14.8771  -40.2315 O.2       3 UNK        -0.5000 
     57 CA          4.7352  -14.7555  -42.6251 C.3       3 UNK         0.1400 
     58 CB          5.1882  -16.1099  -43.1872 C.3       3 UNK        -0.1800 
     59 N           3.9192  -14.0591  -43.6241 N.am      3 UNK        -0.5000 
     60 C           3.5821  -12.7631  -43.5541 C.2       2 UNK         0.5000 
     61 O           3.9512  -12.0209  -42.6431 O.2       2 UNK        -0.5000 
     62 CA          2.6799  -12.2105  -44.6725 C.3       2 UNK         0.1400 
     63 CB          2.9278  -10.7168  -44.9572 C.3       2 UNK        -0.1800 
     64 N           2.8222  -12.9790  -45.9092 N.am      2 UNK        -0.5000 
     65 C           1.8470  -13.1759  -46.8062 C.2       1 UNK         0.5000 
     66 O           0.7042  -12.7381  -46.6648 O.2       1 UNK        -0.5000 
     67 C          -1.2938  -22.4324  -47.2807 C.2       11 UNK         0.5000 
     68 O          -2.0931  -22.9208  -48.0820 O.2       11 UNK        -0.5000 
     69 N          -1.5987  -22.1442  -46.0057 N.am      12 UNK        -0.5000 
     70 CA         -2.8768  -22.4503  -45.3677 C.3       12 UNK         0.1400 
     71 CB         -2.9572  -21.7482  -44.0044 C.3       12 UNK        -0.1800 
     72 C          -3.1090  -23.9657  -45.2271 C.2       12 UNK         0.5000 
     73 O          -4.1857  -24.4424  -45.5846 O.2       12 UNK        -0.5000 
     74 N          -2.0897  -24.7032  -44.7597 N.am      13 UNK        -0.5000 
     75 CA         -2.1075  -26.1645  -44.6303 C.3       13 UNK         0.1400 
     76 CB         -0.8623  -26.6344  -43.8637 C.3       13 UNK        -0.1800 
     77 C          -2.2110  -26.8894  -45.9846 C.2       13 UNK         0.5000 
     78 O          -2.8902  -27.9124  -46.0766 O.2       13 UNK        -0.5000 
     79 N          -1.5706  -26.3256  -47.0179 N.am      14 UNK        -0.5000 
     80 CA         -1.6680  -26.7751  -48.4083 C.3       14 UNK         0.1400 
     81 CB         -0.5225  -26.1414  -49.2136 C.3       14 UNK        -0.1800 
     82 C          -3.0249  -26.4502  -49.0690 C.2       14 UNK         0.5000 
     83 O          -3.3063  -26.9834  -50.1427 O.2       14 UNK        -0.5000 
     84 N          -3.8211  -25.5729  -48.4364 N.am      15 UNK        -0.5000 
     85 CA         -5.1004  -25.0239  -48.8976 C.3       15 UNK         0.1400 
     86 CB         -6.1757  -26.1255  -48.9920 C.3       15 UNK        -0.1800 
     87 C          -4.9621  -24.2042  -50.1966 C.2       15 UNK         0.5000 
     88 O          -5.8935  -24.1558  -51.0024 O.2       15 UNK        -0.5000 
     89 N          -3.8032  -23.5525  -50.3718 N.am      16 UNK        -0.5000 
     90 CA         -3.4294  -22.8092  -51.5754 C.3       16 UNK         0.1400 
     91 CB         -1.9678  -22.3585  -51.4547 C.3       16 UNK        -0.1800 
     92 C          -4.3347  -21.5991  -51.8501 C.2       16 UNK         0.5000 
     93 O          -4.5634  -21.2687  -53.0128 O.2       16 UNK        -0.5000 
     94 N          -4.8410  -20.9759  -50.7778 N.am      17 UNK        -0.5000 
     95 CA         -5.7651  -19.8440  -50.8323 C.3       17 UNK         0.1400 
     96 CB         -5.7988  -19.1580  -49.4582 C.3       17 UNK        -0.1800 
     97 C          -7.1810  -20.2544  -51.2760 C.2       17 UNK         0.5000 
     98 O          -7.8524  -19.4740  -51.9505 O.2       17 UNK        -0.5000 
     99 N          -7.6012  -21.4723  -50.9063 N.am      18 UNK        -0.5000 
    100 CA        -8.8848  -22.0557  -51.2964 C.3       18 UNK         0.1400 
    101 CB        -9.2732  -23.1553  -50.2958 C.3       18 UNK        -0.1800 
    102 C         -8.8358  -22.6111  -52.7293 C.2       18 UNK         0.5000 
    103 O         -9.7843  -22.4214  -53.4912 O.2       18 UNK        -0.5000 
    104 N         -7.7197  -23.2682  -53.0732 N.am      19 UNK        -0.5000 
    105 CA        -7.4522  -23.8250  -54.3996 C.3       19 UNK         0.1400 
    106 CB        -6.2797  -24.8123  -54.2866 C.3       19 UNK        -0.1800 
    107 C         -7.1403  -22.7560  -55.4654 C.2       19 UNK         0.5000 
    108 O         -7.2794  -23.0408  -56.6554 O.2       19 UNK        -0.5000 
    109 N         -6.6945  -21.5703  -55.0208 N.am      20 UNK        -0.5000 
    110 CA        -6.1463  -20.4654  -55.8168 C.3       20 UNK         0.1400 
    111 CB        -7.2188  -19.8488  -56.7378 C.3       20 UNK        -0.1800 
    112 C         -4.8622  -20.8848  -56.5642 C.2       20 UNK         0.5000 
    113 O         -4.6451  -20.4954  -57.7136 O.2       20 UNK        -0.5000 
    114 N         -4.0288  -21.6845  -55.8826 N.am      21 UNK        -0.5000 
    115 CA        -2.8187  -22.3181  -56.4163 C.3       21 UNK         0.1400 
    116 CB        -2.2977  -23.3340  -55.3889 C.3       21 UNK        -0.1800 
    117 C         -1.7109  -21.3202  -56.8048 C.2       21 UNK         0.5000 
    118 O         -0.8547  -21.6472  -57.6273 O.2       21 UNK        -0.5000 
    119 N         -1.7649  -20.1198  -56.2198 N.am      22 UNK        -0.5000 
    120 CA        -0.9380  -18.9580  -56.5677 C.3       22 UNK         0.1400 
    121 C         -1.3392  -18.2491  -57.8979 C.2       22 UNK         0.5000 
    122 N         -2.4547  -18.5887  -58.5360 N.am      22 UNK        -0.7600 
    123 O         -0.6111  -17.3805  -58.3708 O.2       22 UNK        -0.5000 
    124 C124       -0.8459  -17.9659  -55.3792 C.3       23 UNK        -0.0398 
    125 S125       -2.4747  -17.3848  -54.7792 S.3       23 UNK        -0.2404 
    126 C126       -2.6578  -18.3421  -53.2334 C.3       23 UNK        -0.0205 
    127 H127        2.3580  -16.7532  -47.0502 H         1 UNK         0.0600 
    128 H128        3.6116  -17.8163  -47.6761 H         1 UNK         0.0600 
    129 H129        2.5282  -17.0029  -48.7967 H         1 UNK         0.0600 
    130 H130        4.2670  -13.7155  -48.1460 H         1 UNK         0.3000 
    131 H131        1.5318  -14.8800  -47.9815 H         1 UNK         0.0600 
    132 H132        2.6069  -13.4310  -50.1379 H         1 UNK         0.0800 
    133 H133        1.8105  -12.1828  -49.2420 H         1 UNK         0.0800 
    134 H134        0.9613  -14.9631  -52.0573 H         1 UNK         0.0800 
    135 H135        1.7402  -15.6331  -50.6480 H         1 UNK         0.0800 
    136 H136       -0.7654  -16.2637  -53.0107 H         1 UNK         0.1150 
    137 H137       -2.7306  -19.3376  -50.7517 H         1 UNK         0.1150 
    138 H138        0.0945  -16.7483  -48.8539 H         1 UNK         0.1150 
    139 H139       -2.2535  -19.6915  -48.4647 H         1 UNK         0.0800 
    140 H140       -2.1585  -18.1312  -47.6998 H         1 UNK         0.0800 
    141 H141        1.4344  -20.7208  -48.7029 H         1 UNK         0.0800 
    142 H142       -0.1498  -20.8096  -49.3836 H         1 UNK         0.0800 
    143 H143        0.3777  -22.9433  -48.4765 H         1 UNK         0.0600 
    144 H144        1.5395  -21.6008  -46.2098 H         1 UNK         0.3000 
    145 H145        2.3749  -24.7231  -44.5836 H         1 UNK         0.0600 
    146 H146        4.0917  -24.1596  -46.3172 H         1 UNK         0.0600 
    147 H147        4.5803  -23.6209  -44.7189 H         1 UNK         0.0600 
    148 H148        3.9713  -22.4558  -45.8939 H         1 UNK         0.0600 
    149 H149        2.8023  -22.0468  -43.7421 H         1 UNK         0.3000 
    150 H150       -0.1565  -21.6190  -41.8283 H         1 UNK         0.0600 
    151 H151        2.7049  -22.2458  -40.9206 H         1 UNK         0.0600 
    152 H152        1.2592  -23.1038  -40.4011 H         1 UNK         0.0600 
    153 H153        1.4714  -21.4140  -39.9726 H         1 UNK         0.0600 
    154 H154        2.1940  -20.0498  -41.9919 H         1 UNK         0.3000 
    155 H155        1.9010  -17.9292  -42.9599 H         1 UNK         0.0600 
    156 H156        2.5105  -19.1993  -45.7040 H         1 UNK         0.0600 
    157 H157        3.5507  -19.2729  -44.2860 H         1 UNK         0.0600 
    158 H158        3.2681  -17.7369  -45.0854 H         1 UNK         0.0600 
    159 H159       -0.1295  -18.1352  -45.0142 H         1 UNK         0.3000 
    160 H160       -0.4075  -15.5912  -46.3245 H         1 UNK         0.0600 
    161 H161       -2.2757  -16.6185  -44.1147 H         1 UNK         0.0600 
    162 H162       -1.8512  -17.4636  -45.5832 H         1 UNK         0.0600 
    163 H163       -2.7990  -15.9933  -45.6764 H         1 UNK         0.0600 
    164 H164       -0.5901  -13.5489  -45.5239 H         1 UNK         0.3000 
    165 H165       -0.7123  -11.8201  -44.1974 H         1 UNK         0.0600 
    166 H166       -3.2150  -11.8818  -44.2506 H         1 UNK         0.0600 
    167 H167       -3.2648  -12.2046  -42.5203 H         1 UNK         0.0600 
    168 H168       -2.6567  -10.6603  -43.1156 H         1 UNK         0.0600 
    169 H169       -0.6514  -12.9104  -41.4841 H         1 UNK         0.3000 
    170 H170        2.0529  -10.7538  -40.7035 H         1 UNK         0.0600 
    171 H171       -0.4954  -11.3592  -39.1161 H         1 UNK         0.0600 
    172 H172        0.2441   -9.7886  -39.3677 H         1 UNK         0.0600 
    173 H173        1.0813  -11.0010  -38.4104 H         1 UNK         0.0600 
    174 H174        2.6091  -12.8675  -40.7204 H         1 UNK         0.3000 
    175 H175        2.2852  -15.3535  -39.3133 H         1 UNK         0.0600 
    176 H176        0.1127  -16.5081  -39.6059 H         1 UNK         0.0600 
    177 H177        0.1910  -16.2827  -41.3498 H         1 UNK         0.0600 
    178 H178        1.3553  -17.3266  -40.5353 H         1 UNK         0.0600 
    179 H179        2.2391  -15.1753  -42.3015 H         1 UNK         0.3000 
    180 H180        5.6243  -14.1520  -42.4302 H         1 UNK         0.0600 
    181 H181        4.3472  -16.7911  -43.3049 H         1 UNK         0.0600 
    182 H182        5.9016  -16.5887  -42.5155 H         1 UNK         0.0600 
    183 H183        5.6755  -15.9990  -44.1562 H         1 UNK         0.0600 
    184 H184        3.4706  -14.6351  -44.3235 H         1 UNK         0.3000 
    185 H185        1.6611  -12.3245  -44.3006 H         1 UNK         0.0600 
    186 H186        2.7983  -10.1139  -44.0577 H         1 UNK         0.0600 
    187 H187        3.9384  -10.5438  -45.3282 H         1 UNK         0.0600 
    188 H188        2.2270  -10.3350  -45.6997 H         1 UNK         0.0600 
    189 H189        3.7342  -13.3787  -46.0816 H         1 UNK         0.3000 
    190 H190       -0.8995  -21.6943  -45.4253 H         1 UNK         0.3000 
    191 H191       -3.6710  -22.0486  -46.0007 H         1 UNK         0.0600 
    192 H192       -2.8634  -20.6675  -44.1131 H         1 UNK         0.0600 
    193 H193       -3.9136  -21.9454  -43.5188 H         1 UNK         0.0600 
    194 H194       -2.1699  -22.0844  -43.3297 H         1 UNK         0.0600 
    195 H195       -1.2456  -24.2364  -44.4386 H         1 UNK         0.3000 
    196 H196       -2.9881  -26.4358  -44.0444 H         1 UNK         0.0600 
    197 H197       -0.8512  -27.7201  -43.7605 H         1 UNK         0.0600 
    198 H198       -0.8372  -26.2136  -42.8585 H         1 UNK         0.0600 
    199 H199        0.0570  -26.3421  -44.3727 H         1 UNK         0.0600 
    200 H200       -0.9659  -25.5305  -46.8390 H         1 UNK         0.3000 
    201 H201       -1.5431  -27.8595  -48.4296 H         1 UNK         0.0600 
    202 H202       -0.5260  -26.4942  -50.2457 H         1 UNK         0.0600 
    203 H203        0.4484  -26.3953  -48.7876 H         1 UNK         0.0600 
    204 H204       -0.6046  -25.0548  -49.2392 H         1 UNK         0.0600 
    205 H205       -3.4935  -25.1975  -47.5554 H         1 UNK         0.3000 
    206 H206       -5.4200  -24.3180  -48.1301 H         1 UNK         0.0600 
    207 H207       -6.2391  -26.6938  -48.0640 H         1 UNK         0.0600 
    208 H208       -7.1607  -25.6959  -49.1755 H         1 UNK         0.0600 
    209 H209       -5.9704  -26.8256  -49.8021 H         1 UNK         0.0600 
    210 H210       -3.1187  -23.5765  -49.6210 H         1 UNK         0.3000 
    211 H211       -3.5143  -23.4868  -52.4268 H         1 UNK         0.0600 
    212 H212       -1.6491  -21.7987  -52.3348 H         1 UNK         0.0600 
    213 H213       -1.2976  -23.2115  -51.3470 H         1 UNK         0.0600 
    214 H214       -1.8298  -21.7111  -50.5905 H         1 UNK         0.0600 
    215 H215       -4.5962  -21.3259  -49.8632 H         1 UNK         0.3000 
    216 H216       -5.3895  -19.1238  -51.5607 H         1 UNK         0.0600 
    217 H217       -4.8112  -18.7942  -49.1743 H         1 UNK         0.0600 
    218 H218       -6.1455  -19.8354  -48.6769 H         1 UNK         0.0600 
    219 H219       -6.4693  -18.2977  -49.4685 H         1 UNK         0.0600 
    220 H220       -6.9686  -22.0709  -50.3961 H         1 UNK         0.3000 
    221 H221       -9.6530  -21.2801  -51.2599 H         1 UNK         0.0600 
    222 H222       -8.5497  -23.9706  -50.2883 H         1 UNK         0.0600 
    223 H223       -9.3436  -22.7595  -49.2826 H         1 UNK         0.0600 
    224 H224      -10.2449  -23.5828  -50.5461 H         1 UNK         0.0600 
    225 H225       -7.0159  -23.4418  -52.3600 H         1 UNK         0.3000 
    226 H226       -8.3360  -24.3753  -54.7290 H         1 UNK         0.0600 
    227 H227       -6.5049  -25.6134  -53.5822 H         1 UNK         0.0600 
    228 H228       -6.0618  -25.2765  -55.2493 H         1 UNK         0.0600 
    229 H229       -5.3700  -24.3161  -53.9471 H         1 UNK         0.0600 
    230 H230       -6.5713  -21.4732  -54.0216 H         1 UNK         0.3000 
    231 H231       -5.8448  -19.6970  -55.1032 H         1 UNK         0.0600 
    232 H232       -7.5203  -20.5345  -57.5298 H         1 UNK         0.0600 
    233 H233       -6.8452  -18.9431  -57.2167 H         1 UNK         0.0600 
    234 H234       -8.1101  -19.5737  -56.1739 H         1 UNK         0.0600 
    235 H235       -4.2577  -21.8753  -54.9131 H         1 UNK         0.3000 
    236 H236       -3.1006  -22.8596  -57.3215 H         1 UNK         0.0600 
    237 H237       -2.0006  -22.8468  -54.4608 H         1 UNK         0.0600 
    238 H238       -3.0549  -24.0813  -55.1511 H         1 UNK         0.0600 
    239 H239       -1.4265  -23.8662  -55.7728 H         1 UNK         0.0600 
    240 H240       -2.5231  -19.9396  -55.5795 H         1 UNK         0.3000 
    241 H241        0.0740  -19.3285  -56.7415 H         1 UNK         0.0600 
    242 H242       -2.6886  -18.1207  -59.3971 H         1 UNK         0.3800 
    243 H243       -3.0813  -19.2977  -58.1712 H         1 UNK         0.3800 
    244 H244       -0.3094  -18.4399  -54.5562 H         1 UNK         0.0800 
    245 H245       -0.2457  -17.0953  -55.6487 H         1 UNK         0.0800 
    246 H246       -3.7133  -18.3159  -52.9635 H         1 UNK         0.0800 
    247 H247       -2.4197  -19.3885  -53.4281 H         1 UNK         0.0800 
@<TRIPOS>BOND
     1    1    2 1    
     2    1  127 1    
     3    1  128 1    
     4    1  129 1    
     5    2    3 2    
     6    2    4 am   BACKBONE|DICT|INTERRES
     7    4    5 1    
     8    4  130 1    
     9    5    6 1    
    10    5   65 1    
    11    5  131 1    
    12    6    7 1    
    13    6  132 1    
    14    6  133 1    
    15    7    8 1    
    16    8    9 1    
    17    8  134 1    
    18    8  135 1    
    19    9   10 ar   
    20    9   14 ar   
    21   10   11 ar   
    22   10  136 1    
    23   11   12 ar   
    24   11  126 1    
    25   12   13 ar   
    26   12  137 1    
    27   13   14 ar   
    28   13   15 1    
    29   14  138 1    
    30   15   16 1    
    31   15  139 1    
    32   15  140 1    
    33   16   17 1    
    34   17   18 1    
    35   17  141 1    
    36   17  142 1    
    37   18   19 1    
    38   18   67 1    
    39   18  143 1    
    40   19   20 am   BACKBONE|DICT|INTERRES
    41   19  144 1    
    42   20   21 2    
    43   20   22 1    
    44   22   23 1    
    45   22   24 1    
    46   22  145 1    
    47   23  146 1    
    48   23  147 1    
    49   23  148 1    
    50   24   25 am   BACKBONE|DICT|INTERRES
    51   24  149 1    
    52   25   26 2    
    53   25   27 1    
    54   27   28 1    
    55   27   29 1    
    56   27  150 1    
    57   28  151 1    
    58   28  152 1    
    59   28  153 1    
    60   29   30 am   BACKBONE|DICT|INTERRES
    61   29  154 1    
    62   30   31 2    
    63   30   32 1    
    64   32   33 1    
    65   32   34 1    
    66   32  155 1    
    67   33  156 1    
    68   33  157 1    
    69   33  158 1    
    70   34   35 am   BACKBONE|DICT|INTERRES
    71   34  159 1    
    72   35   36 2    
    73   35   37 1    
    74   37   38 1    
    75   37   39 1    
    76   37  160 1    
    77   38  161 1    
    78   38  162 1    
    79   38  163 1    
    80   39   40 am   BACKBONE|DICT|INTERRES
    81   39  164 1    
    82   40   41 2    
    83   40   42 1    
    84   42   43 1    
    85   42   44 1    
    86   42  165 1    
    87   43  166 1    
    88   43  167 1    
    89   43  168 1    
    90   44   45 am   BACKBONE|DICT|INTERRES
    91   44  169 1    
    92   45   46 2    
    93   45   47 1    
    94   47   48 1    
    95   47   49 1    
    96   47  170 1    
    97   48  171 1    
    98   48  172 1    
    99   48  173 1    
   100   49   50 am   BACKBONE|DICT|INTERRES
   101   49  174 1    
   102   50   51 2    
   103   50   52 1    
   104   52   53 1    
   105   52   54 1    
   106   52  175 1    
   107   53  176 1    
   108   53  177 1    
   109   53  178 1    
   110   54   55 am   BACKBONE|DICT|INTERRES
   111   54  179 1    
   112   55   56 2    
   113   55   57 1    
   114   57   58 1    
   115   57   59 1    
   116   57  180 1    
   117   58  181 1    
   118   58  182 1    
   119   58  183 1    
   120   59   60 am   BACKBONE|DICT|INTERRES
   121   59  184 1    
   122   60   61 2    
   123   60   62 1    
   124   62   63 1    
   125   62   64 1    
   126   62  185 1    
   127   63  186 1    
   128   63  187 1    
   129   63  188 1    
   130   64   65 am   BACKBONE|DICT|INTERRES
   131   64  189 1    
   132   65   66 2    
   133   67   68 2    
   134   67   69 am   BACKBONE|DICT|INTERRES
   135   69   70 1    
   136   69  190 1    
   137   70   71 1    
   138   70   72 1    
   139   70  191 1    
   140   71  192 1    
   141   71  193 1    
   142   71  194 1    
   143   72   73 2    
   144   72   74 am   BACKBONE|DICT|INTERRES
   145   74   75 1    
   146   74  195 1    
   147   75   76 1    
   148   75   77 1    
   149   75  196 1    
   150   76  197 1    
   151   76  198 1    
   152   76  199 1    
   153   77   78 2    
   154   77   79 am   BACKBONE|DICT|INTERRES
   155   79   80 1    
   156   79  200 1    
   157   80   81 1    
   158   80   82 1    
   159   80  201 1    
   160   81  202 1    
   161   81  203 1    
   162   81  204 1    
   163   82   83 2    
   164   82   84 am   BACKBONE|DICT|INTERRES
   165   84   85 1    
   166   84  205 1    
   167   85   86 1    
   168   85   87 1    
   169   85  206 1    
   170   86  207 1    
   171   86  208 1    
   172   86  209 1    
   173   87   88 2    
   174   87   89 am   BACKBONE|DICT|INTERRES
   175   89   90 1    
   176   89  210 1    
   177   90   91 1    
   178   90   92 1    
   179   90  211 1    
   180   91  212 1    
   181   91  213 1    
   182   91  214 1    
   183   92   93 2    
   184   92   94 am   BACKBONE|DICT|INTERRES
   185   94   95 1    
   186   94  215 1    
   187   95   96 1    
   188   95   97 1    
   189   95  216 1    
   190   96  217 1    
   191   96  218 1    
   192   96  219 1    
   193   97   98 2    
   194   97   99 am   BACKBONE|DICT|INTERRES
   195   99  100 1    
   196   99  220 1    
   197  100  101 1    
   198  100  102 1    
   199  100  221 1    
   200  101  222 1    
   201  101  223 1    
   202  101  224 1    
   203  102  103 2    
   204  102  104 am   BACKBONE|DICT|INTERRES
   205  104  105 1    
   206  104  225 1    
   207  105  106 1    
   208  105  107 1    
   209  105  226 1    
   210  106  227 1    
   211  106  228 1    
   212  106  229 1    
   213  107  108 2    
   214  107  109 am   BACKBONE|DICT|INTERRES
   215  109  110 1    
   216  109  230 1    
   217  110  111 1    
   218  110  112 1    
   219  110  231 1    
   220  111  232 1    
   221  111  233 1    
   222  111  234 1    
   223  112  113 2    
   224  112  114 am   BACKBONE|DICT|INTERRES
   225  114  115 1    
   226  114  235 1    
   227  115  116 1    
   228  115  117 1    
   229  115  236 1    
   230  116  237 1    
   231  116  238 1    
   232  116  239 1    
   233  117  118 2    
   234  117  119 am   BACKBONE|DICT|INTERRES
   235  119  120 1    
   236  119  240 1    
   237  120  121 1    
   238  120  124 1    
   239  120  241 1    
   240  121  122 am   BACKBONE|DICT|INTERRES
   241  121  123 2    
   242  122  242 1    
   243  122  243 1    
   244  124  125 1    
   245  124  244 1    
   246  124  245 1    
   247  125  126 1    
   248  126  246 1    
   249  126  247 1    
@<TRIPOS>SUBSTRUCTURE
     1 UNK         1 GROUP             0       ****    0 ROOT    
