@<TRIPOS>MOLECULE
3R540
247   249    1
SMALL
USER_CHARGES


@<TRIPOS>ATOM
      1 CA          4.0116  -11.9536  -53.2049 C.3       0 UNK        -0.1800 
      2 C           3.6965  -11.8091  -51.7230 C.2       0 UNK         0.5000 
      3 O           3.0640  -10.8328  -51.3214 O.2       0 UNK        -0.5000 
      4 N           4.1194  -12.7841  -50.9093 N.am      1 UNK        -0.5000 
      5 CA          3.9245  -12.8231  -49.4537 C.3       1 UNK         0.1400 
      6 C6          5.0734  -13.5770  -48.7317 C.3       23 UNK        -0.0398 
      7 S7          5.2812  -15.3116  -49.2662 S.3       23 UNK        -0.2404 
      8 C8          4.4976  -16.2150  -47.8916 C.3       23 UNK        -0.0205 
      9 C9          3.7721  -17.4433  -48.4097 C.ar      23 UNK        -0.0193 
     10 C10         2.5456  -17.3030  -49.0615 C.ar      23 UNK        -0.1150 
     11 C11         1.8851  -18.4169  -49.5830 C.ar      23 UNK        -0.0193 
     12 C12         2.4595  -19.6837  -49.4402 C.ar      23 UNK        -0.1150 
     13 C13         3.6727  -19.8437  -48.7562 C.ar      23 UNK        -0.0193 
     14 C14         4.3256  -18.7149  -48.2524 C.ar      23 UNK        -0.1150 
     15 C15         4.3146  -21.2152  -48.5587 C.3       23 UNK        -0.0205 
     16 S16         3.1406  -22.5717  -48.2310 S.3       23 UNK        -0.2404 
     17 C17         2.1851  -21.9260  -46.8117 C.3       23 UNK        -0.0398 
     18 CA          0.9958  -22.8351  -46.4226 C.3       11 UNK         0.1400 
     19 N           0.3015  -22.3436  -45.2351 N.am      11 UNK        -0.5000 
     20 C          -0.5246  -23.0879  -44.4872 C.2       10 UNK         0.5000 
     21 O          -0.6913  -24.2975  -44.6452 O.2       10 UNK        -0.5000 
     22 CA         -1.3209  -22.3531  -43.3958 C.3       10 UNK         0.1400 
     23 CB         -0.5298  -22.3320  -42.0798 C.3       10 UNK        -0.1800 
     24 N          -1.6876  -20.9867  -43.7766 N.am      10 UNK        -0.5000 
     25 C          -2.5304  -20.6826  -44.7748 C.2       9 UNK         0.5000 
     26 O          -3.0914  -21.5275  -45.4731 O.2       9 UNK        -0.5000 
     27 CA         -2.7678  -19.1891  -45.0619 C.3       9 UNK         0.1400 
     28 CB         -3.7793  -18.6019  -44.0681 C.3       9 UNK        -0.1800 
     29 N          -1.5471  -18.3809  -45.0538 N.am      9 UNK        -0.5000 
     30 C          -0.5127  -18.5471  -45.8914 C.2       8 UNK         0.5000 
     31 O          -0.4393  -19.4509  -46.7225 O.2       8 UNK        -0.5000 
     32 CA          0.6564  -17.5584  -45.7510 C.3       8 UNK         0.1400 
     33 CB          0.3008  -16.1934  -46.3574 C.3       8 UNK        -0.1800 
     34 N           1.0611  -17.3954  -44.3570 N.am      8 UNK        -0.5000 
     35 C           1.6392  -18.3629  -43.6318 C.2       7 UNK         0.5000 
     36 O           1.9662  -19.4617  -44.0835 O.2       7 UNK        -0.5000 
     37 CA          1.8334  -18.0676  -42.1352 C.3       7 UNK         0.1400 
     38 CB          3.0769  -17.1966  -41.8995 C.3       7 UNK        -0.1800 
     39 N           0.6571  -17.4286  -41.5411 N.am      7 UNK        -0.5000 
     40 C          -0.5294  -18.0359  -41.3924 C.2       6 UNK         0.5000 
     41 O          -0.7520  -19.1926  -41.7438 O.2       6 UNK        -0.5000 
     42 CA         -1.6720  -17.2188  -40.7662 C.3       6 UNK         0.1400 
     43 CB         -1.6592  -17.3652  -39.2374 C.3       6 UNK        -0.1800 
     44 N          -1.6448  -15.7996  -41.1121 N.am      6 UNK        -0.5000 
     45 C          -1.7509  -15.2906  -42.3472 C.2       5 UNK         0.5000 
     46 O          -1.8554  -15.9794  -43.3645 O.2       5 UNK        -0.5000 
     47 CA         -1.7428  -13.7498  -42.4642 C.3       5 UNK         0.1400 
     48 CB         -1.5437  -13.0187  -41.1174 C.3       5 UNK        -0.1800 
     49 N          -0.7774  -13.2220  -43.4306 N.am      5 UNK        -0.5000 
     50 C           0.5054  -13.5619  -43.6109 C.2       4 UNK         0.5000 
     51 O           1.0427  -14.5328  -43.0728 O.2       4 UNK        -0.5000 
     52 CA          1.3324  -12.6279  -44.5259 C.3       4 UNK         0.1400 
     53 CB          2.7508  -13.1687  -44.7864 C.3       4 UNK        -0.1800 
     54 N           0.6889  -12.2958  -45.8062 N.am      4 UNK        -0.5000 
     55 C          -0.3351  -11.4417  -45.9734 C.2       3 UNK         0.5000 
     56 O          -0.9093  -10.8972  -45.0292 O.2       3 UNK        -0.5000 
     57 CA         -0.8062  -11.1078  -47.4061 C.3       3 UNK         0.1400 
     58 CB         -0.4812   -9.6448  -47.7484 C.3       3 UNK        -0.1800 
     59 N          -0.2264  -11.9600  -48.4410 N.am      3 UNK        -0.5000 
     60 C          -0.6112  -13.2110  -48.7218 C.2       2 UNK         0.5000 
     61 O          -1.5607  -13.7706  -48.1744 O.2       2 UNK        -0.5000 
     62 CA          0.2151  -13.9739  -49.7811 C.3       2 UNK         0.1400 
     63 CB         -0.5115  -13.9612  -51.1342 C.3       2 UNK        -0.1800 
     64 N           1.5867  -13.4829  -49.9814 N.am      2 UNK        -0.5000 
     65 C           2.5246  -13.3317  -49.0337 C.2       1 UNK         0.5000 
     66 O           2.3057  -13.5623  -47.8470 O.2       1 UNK        -0.5000 
     67 C          -0.0111  -23.0373  -47.5741 C.2       11 UNK         0.5000 
     68 O          -0.0824  -24.1364  -48.1246 O.2       11 UNK        -0.5000 
     69 N          -0.7975  -21.9958  -47.8867 N.am      12 UNK        -0.5000 
     70 CA         -1.7921  -21.9636  -48.9625 C.3       12 UNK         0.1400 
     71 CB         -2.5011  -20.6076  -48.9602 C.3       12 UNK        -0.1800 
     72 C          -2.8318  -23.0937  -48.8992 C.2       12 UNK         0.5000 
     73 O          -3.1952  -23.6366  -49.9423 O.2       12 UNK        -0.5000 
     74 N          -3.2386  -23.4745  -47.6810 N.am      13 UNK        -0.5000 
     75 CA         -4.1296  -24.6011  -47.3985 C.3       13 UNK         0.1400 
     76 CB         -4.3447  -24.6949  -45.8812 C.3       13 UNK        -0.1800 
     77 C          -3.6435  -25.9553  -47.9575 C.2       13 UNK         0.5000 
     78 O          -4.4780  -26.8119  -48.2496 O.2       13 UNK        -0.5000 
     79 N          -2.3230  -26.1153  -48.1175 N.am      14 UNK        -0.5000 
     80 CA         -1.6915  -27.2763  -48.7381 C.3       14 UNK         0.1400 
     81 CB         -0.5308  -27.7513  -47.8494 C.3       14 UNK        -0.1800 
     82 C          -1.1884  -26.9436  -50.1532 C.2       14 UNK         0.5000 
     83 O          -1.4436  -27.7112  -51.0807 O.2       14 UNK        -0.5000 
     84 N          -0.4772  -25.8163  -50.2955 N.am      15 UNK        -0.5000 
     85 CA          0.2327  -25.4175  -51.5128 C.3       15 UNK         0.1400 
     86 CB          1.2054  -24.2754  -51.1784 C.3       15 UNK        -0.1800 
     87 C          -0.6913  -25.0117  -52.6733 C.2       15 UNK         0.5000 
     88 O          -0.3947  -25.3398  -53.8227 O.2       15 UNK        -0.5000 
     89 N          -1.7864  -24.3128  -52.3541 N.am      16 UNK        -0.5000 
     90 CA         -2.7995  -23.8565  -53.3082 C.3       16 UNK         0.1400 
     91 CB         -3.0053  -22.3459  -53.1112 C.3       16 UNK        -0.1800 
     92 C          -4.1266  -24.6214  -53.1385 C.2       16 UNK         0.5000 
     93 O          -5.0602  -24.3843  -53.9053 O.2       16 UNK        -0.5000 
     94 N          -4.1867  -25.5117  -52.1357 N.am      17 UNK        -0.5000 
     95 CA         -5.3304  -26.3226  -51.7066 C.3       17 UNK         0.1400 
     96 CB         -5.7551  -27.3072  -52.8161 C.3       17 UNK        -0.1800 
     97 C          -6.5148  -25.4955  -51.1575 C.2       17 UNK         0.5000 
     98 O          -7.6336  -26.0084  -51.0921 O.2       17 UNK        -0.5000 
     99 N          -6.2602  -24.2436  -50.7573 N.am      18 UNK        -0.5000 
    100 CA        -7.2459  -23.3121  -50.2232 C.3       18 UNK         0.1400 
    101 CB        -8.1244  -22.7412  -51.3520 C.3       18 UNK        -0.1800 
    102 C         -6.4951  -22.1922  -49.5012 C.2       18 UNK         0.5000 
    103 O         -5.6347  -21.5560  -50.1085 O.2       18 UNK        -0.5000 
    104 N         -6.8385  -21.9565  -48.2294 N.am      19 UNK        -0.5000 
    105 CA        -6.1770  -20.9889  -47.3469 C.3       19 UNK         0.1400 
    106 CB        -6.7385  -21.1568  -45.9274 C.3       19 UNK        -0.1800 
    107 C         -6.2946  -19.5190  -47.8018 C.2       19 UNK         0.5000 
    108 O         -5.4602  -18.6992  -47.4215 O.2       19 UNK        -0.5000 
    109 N         -7.3271  -19.2131  -48.5979 N.am      20 UNK        -0.5000 
    110 CA        -7.5762  -17.8908  -49.1732 C.3       20 UNK         0.1400 
    111 CB        -9.0856  -17.7510  -49.4294 C.3       20 UNK        -0.1800 
    112 C         -6.7851  -17.6275  -50.4719 C.2       20 UNK         0.5000 
    113 O         -6.7385  -16.4796  -50.9174 O.2       20 UNK        -0.5000 
    114 N         -6.2098  -18.6769  -51.0734 N.am      21 UNK        -0.5000 
    115 CA        -5.4351  -18.6135  -52.3120 C.3       21 UNK         0.1400 
    116 CB        -5.7661  -19.8659  -53.1451 C.3       21 UNK        -0.1800 
    117 C         -3.9255  -18.4846  -52.0191 C.2       21 UNK         0.5000 
    118 O         -3.5311  -18.2655  -50.8733 O.2       21 UNK        -0.5000 
    119 N         -3.1056  -18.6171  -53.0671 N.am      22 UNK        -0.5000 
    120 CA        -1.6376  -18.6966  -53.0174 C.3       22 UNK         0.1400 
    121 C         -1.0662  -19.1581  -54.3858 C.2       22 UNK         0.5000 
    122 N         -1.6051  -18.6933  -55.5083 N.am      22 UNK        -0.7600 
    123 O         -0.1513  -19.9743  -54.4359 O.2       22 UNK        -0.5000 
    124 C124       -0.9573  -17.3926  -52.5101 C.3       23 UNK        -0.0398 
    125 S125        0.7769  -17.6291  -51.9882 S.3       23 UNK        -0.2404 
    126 C126        0.5515  -18.2444  -50.2918 C.3       23 UNK        -0.0205 
    127 H127        4.5650  -12.8694  -53.4141 H         1 UNK         0.0600 
    128 H128        4.6109  -11.1089  -53.5448 H         1 UNK         0.0600 
    129 H129        3.0889  -11.9738  -53.7848 H         1 UNK         0.0600 
    130 H130        4.6167  -13.5755  -51.2947 H         1 UNK         0.3000 
    131 H131        3.9675  -11.7944  -49.0898 H         1 UNK         0.0600 
    132 H132        4.9518  -13.5312  -47.6479 H         1 UNK         0.0800 
    133 H133        6.0140  -13.0622  -48.9314 H         1 UNK         0.0800 
    134 H134        3.7856  -15.5857  -47.3589 H         1 UNK         0.0800 
    135 H135        5.2616  -16.4906  -47.1633 H         1 UNK         0.0800 
    136 H136        2.1176  -16.3198  -49.1808 H         1 UNK         0.1150 
    137 H137        1.9528  -20.5467  -49.8484 H         1 UNK         0.1150 
    138 H138        5.2726  -18.8243  -47.7427 H         1 UNK         0.1150 
    139 H139        4.8895  -21.4603  -49.4524 H         1 UNK         0.0800 
    140 H140        5.0271  -21.1828  -47.7329 H         1 UNK         0.0800 
    141 H141        1.8299  -20.9191  -47.0320 H         1 UNK         0.0800 
    142 H142        2.8650  -21.8245  -45.9646 H         1 UNK         0.0800 
    143 H143        1.4088  -23.8171  -46.1804 H         1 UNK         0.0600 
    144 H144        0.3720  -21.3536  -45.0412 H         1 UNK         0.3000 
    145 H145       -2.2439  -22.9126  -43.2293 H         1 UNK         0.0600 
    146 H146       -1.1220  -21.9028  -41.2715 H         1 UNK         0.0600 
    147 H147        0.3865  -21.7470  -42.1720 H         1 UNK         0.0600 
    148 H148       -0.2481  -23.3407  -41.7749 H         1 UNK         0.0600 
    149 H149       -1.2891  -20.2390  -43.2133 H         1 UNK         0.3000 
    150 H150       -3.1965  -19.1116  -46.0616 H         1 UNK         0.0600 
    151 H151       -4.7135  -19.1622  -44.0806 H         1 UNK         0.0600 
    152 H152       -4.0187  -17.5671  -44.3137 H         1 UNK         0.0600 
    153 H153       -3.3979  -18.6277  -43.0485 H         1 UNK         0.0600 
    154 H154       -1.5307  -17.5949  -44.4094 H         1 UNK         0.3000 
    155 H155        1.5036  -17.9648  -46.3079 H         1 UNK         0.0600 
    156 H156       -0.4912  -15.6919  -45.8001 H         1 UNK         0.0600 
    157 H157       -0.0425  -16.3033  -47.3862 H         1 UNK         0.0600 
    158 H158        1.1675  -15.5348  -46.3750 H         1 UNK         0.0600 
    159 H159        0.8220  -16.5217  -43.9011 H         1 UNK         0.3000 
    160 H160        1.9895  -19.0217  -41.6271 H         1 UNK         0.0600 
    161 H161        2.9867  -16.2209  -42.3774 H         1 UNK         0.0600 
    162 H162        3.9691  -17.6766  -42.3035 H         1 UNK         0.0600 
    163 H163        3.2488  -17.0343  -40.8355 H         1 UNK         0.0600 
    164 H164        0.7425  -16.4538  -41.2895 H         1 UNK         0.3000 
    165 H165       -2.6135  -17.6285  -41.1338 H         1 UNK         0.0600 
    166 H166       -2.5178  -16.8682  -38.7854 H         1 UNK         0.0600 
    167 H167       -1.7032  -18.4155  -38.9456 H         1 UNK         0.0600 
    168 H168       -0.7550  -16.9406  -38.7993 H         1 UNK         0.0600 
    169 H169       -1.5516  -15.1546  -40.3413 H         1 UNK         0.3000 
    170 H170       -2.7288  -13.4783  -42.8433 H         1 UNK         0.0600 
    171 H171       -0.5718  -13.2406  -40.6745 H         1 UNK         0.0600 
    172 H172       -1.6020  -11.9382  -41.2511 H         1 UNK         0.0600 
    173 H173       -2.3167  -13.2863  -40.3959 H         1 UNK         0.0600 
    174 H174       -1.0903  -12.4078  -43.9523 H         1 UNK         0.3000 
    175 H175        1.4512  -11.6951  -43.9710 H         1 UNK         0.0600 
    176 H176        2.7293  -14.1405  -45.2791 H         1 UNK         0.0600 
    177 H177        3.3268  -12.4869  -45.4121 H         1 UNK         0.0600 
    178 H178        3.3004  -13.2911  -43.8524 H         1 UNK         0.0600 
    179 H179        1.1063  -12.7277  -46.6264 H         1 UNK         0.3000 
    180 H180       -1.8915  -11.2272  -47.4250 H         1 UNK         0.0600 
    181 H181       -0.8673   -9.3742  -48.7314 H         1 UNK         0.0600 
    182 H182        0.5939   -9.4610  -47.7470 H         1 UNK         0.0600 
    183 H183       -0.9318   -8.9624  -47.0265 H         1 UNK         0.0600 
    184 H184        0.5673  -11.5867  -48.9407 H         1 UNK         0.3000 
    185 H185        0.2827  -15.0084  -49.4447 H         1 UNK         0.0600 
    186 H186       -0.6070  -12.9487  -51.5283 H         1 UNK         0.0600 
    187 H187        0.0200  -14.5597  -51.8739 H         1 UNK         0.0600 
    188 H188       -1.5165  -14.3755  -51.0432 H         1 UNK         0.0600 
    189 H189        1.8453  -13.2542  -50.9298 H         1 UNK         0.3000 
    190 H190       -0.6759  -21.1216  -47.3777 H         1 UNK         0.3000 
    191 H191       -1.2543  -22.0647  -49.9067 H         1 UNK         0.0600 
    192 H192       -3.0228  -20.4262  -48.0224 H         1 UNK         0.0600 
    193 H193       -3.2399  -20.5627  -49.7589 H         1 UNK         0.0600 
    194 H194       -1.8056  -19.7849  -49.1129 H         1 UNK         0.0600 
    195 H195       -2.9283  -22.9309  -46.8809 H         1 UNK         0.3000 
    196 H196       -5.0900  -24.3837  -47.8680 H         1 UNK         0.0600 
    197 H197       -4.7683  -23.7730  -45.4839 H         1 UNK         0.0600 
    198 H198       -3.4076  -24.8839  -45.3560 H         1 UNK         0.0600 
    199 H199       -5.0327  -25.5033  -45.6309 H         1 UNK         0.0600 
    200 H200       -1.7086  -25.3437  -47.8811 H         1 UNK         0.3000 
    201 H201       -2.4033  -28.1000  -48.8241 H         1 UNK         0.0600 
    202 H202       -0.8899  -28.0536  -46.8655 H         1 UNK         0.0600 
    203 H203        0.2166  -26.9700  -47.7048 H         1 UNK         0.0600 
    204 H204       -0.0270  -28.6121  -48.2908 H         1 UNK         0.0600 
    205 H205       -0.3151  -25.2322  -49.4762 H         1 UNK         0.3000 
    206 H206        0.8229  -26.2731  -51.8476 H         1 UNK         0.0600 
    207 H207        1.7775  -23.9768  -52.0577 H         1 UNK         0.0600 
    208 H208        0.6818  -23.3918  -50.8122 H         1 UNK         0.0600 
    209 H209        1.9205  -24.5789  -50.4136 H         1 UNK         0.0600 
    210 H210       -1.9817  -24.1042  -51.3797 H         1 UNK         0.3000 
    211 H211       -2.4641  -24.0202  -54.3340 H         1 UNK         0.0600 
    212 H212       -2.0607  -21.8101  -53.1949 H         1 UNK         0.0600 
    213 H213       -3.4350  -22.1155  -52.1357 H         1 UNK         0.0600 
    214 H214       -3.6743  -21.9434  -53.8720 H         1 UNK         0.0600 
    215 H215       -3.3594  -25.6015  -51.5640 H         1 UNK         0.3000 
    216 H216       -4.9702  -26.9198  -50.8690 H         1 UNK         0.0600 
    217 H217       -6.4864  -28.0252  -52.4433 H         1 UNK         0.0600 
    218 H218       -4.9023  -27.8778  -53.1840 H         1 UNK         0.0600 
    219 H219       -6.2076  -26.7930  -53.6642 H         1 UNK         0.0600 
    220 H220       -5.3097  -23.8904  -50.8003 H         1 UNK         0.3000 
    221 H221       -7.8798  -23.8375  -49.5058 H         1 UNK         0.0600 
    222 H222       -7.5216  -22.2644  -52.1259 H         1 UNK         0.0600 
    223 H223       -8.7182  -23.5214  -51.8278 H         1 UNK         0.0600 
    224 H224       -8.8200  -21.9940  -50.9684 H         1 UNK         0.0600 
    225 H225       -7.5726  -22.5088  -47.8097 H         1 UNK         0.3000 
    226 H226       -5.1154  -21.2378  -47.3228 H         1 UNK         0.0600 
    227 H227       -6.5880  -22.1711  -45.5587 H         1 UNK         0.0600 
    228 H228       -6.2417  -20.4845  -45.2288 H         1 UNK         0.0600 
    229 H229       -7.8065  -20.9392  -45.8889 H         1 UNK         0.0600 
    230 H230       -7.9700  -19.9479  -48.8525 H         1 UNK         0.3000 
    231 H231       -7.2829  -17.1256  -48.4514 H         1 UNK         0.0600 
    232 H232       -9.3265  -16.7632  -49.8245 H         1 UNK         0.0600 
    233 H233       -9.6555  -17.8778  -48.5087 H         1 UNK         0.0600 
    234 H234       -9.4415  -18.4882  -50.1501 H         1 UNK         0.0600 
    235 H235       -6.1997  -19.5714  -50.5975 H         1 UNK         0.3000 
    236 H236       -5.7301  -17.7364  -52.8912 H         1 UNK         0.0600 
    237 H237       -5.4476  -20.7784  -52.6423 H         1 UNK         0.0600 
    238 H238       -6.8392  -19.9454  -53.3199 H         1 UNK         0.0600 
    239 H239       -5.2878  -19.8413  -54.1243 H         1 UNK         0.0600 
    240 H240       -3.5053  -18.8198  -53.9722 H         1 UNK         0.3000 
    241 H241       -1.4098  -19.4920  -52.3051 H         1 UNK         0.0600 
    242 H242       -1.2360  -19.0136  -56.3903 H         1 UNK         0.3800 
    243 H243       -2.3106  -17.9740  -55.5053 H         1 UNK         0.3800 
    244 H244       -0.9868  -16.6230  -53.2828 H         1 UNK         0.0800 
    245 H245       -1.4964  -16.9696  -51.6634 H         1 UNK         0.0800 
    246 H246        0.0241  -19.1972  -50.3293 H         1 UNK         0.0800 
    247 H247       -0.0805  -17.5590  -49.7251 H         1 UNK         0.0800 
@<TRIPOS>BOND
     1    1    2 1    
     2    1  127 1    
     3    1  128 1    
     4    1  129 1    
     5    2    3 2    
     6    2    4 am   BACKBONE|DICT|INTERRES
     7    4    5 1    
     8    4  130 1    
     9    5    6 1    
    10    5   65 1    
    11    5  131 1    
    12    6    7 1    
    13    6  132 1    
    14    6  133 1    
    15    7    8 1    
    16    8    9 1    
    17    8  134 1    
    18    8  135 1    
    19    9   10 ar   
    20    9   14 ar   
    21   10   11 ar   
    22   10  136 1    
    23   11   12 ar   
    24   11  126 1    
    25   12   13 ar   
    26   12  137 1    
    27   13   14 ar   
    28   13   15 1    
    29   14  138 1    
    30   15   16 1    
    31   15  139 1    
    32   15  140 1    
    33   16   17 1    
    34   17   18 1    
    35   17  141 1    
    36   17  142 1    
    37   18   19 1    
    38   18   67 1    
    39   18  143 1    
    40   19   20 am   BACKBONE|DICT|INTERRES
    41   19  144 1    
    42   20   21 2    
    43   20   22 1    
    44   22   23 1    
    45   22   24 1    
    46   22  145 1    
    47   23  146 1    
    48   23  147 1    
    49   23  148 1    
    50   24   25 am   BACKBONE|DICT|INTERRES
    51   24  149 1    
    52   25   26 2    
    53   25   27 1    
    54   27   28 1    
    55   27   29 1    
    56   27  150 1    
    57   28  151 1    
    58   28  152 1    
    59   28  153 1    
    60   29   30 am   BACKBONE|DICT|INTERRES
    61   29  154 1    
    62   30   31 2    
    63   30   32 1    
    64   32   33 1    
    65   32   34 1    
    66   32  155 1    
    67   33  156 1    
    68   33  157 1    
    69   33  158 1    
    70   34   35 am   BACKBONE|DICT|INTERRES
    71   34  159 1    
    72   35   36 2    
    73   35   37 1    
    74   37   38 1    
    75   37   39 1    
    76   37  160 1    
    77   38  161 1    
    78   38  162 1    
    79   38  163 1    
    80   39   40 am   BACKBONE|DICT|INTERRES
    81   39  164 1    
    82   40   41 2    
    83   40   42 1    
    84   42   43 1    
    85   42   44 1    
    86   42  165 1    
    87   43  166 1    
    88   43  167 1    
    89   43  168 1    
    90   44   45 am   BACKBONE|DICT|INTERRES
    91   44  169 1    
    92   45   46 2    
    93   45   47 1    
    94   47   48 1    
    95   47   49 1    
    96   47  170 1    
    97   48  171 1    
    98   48  172 1    
    99   48  173 1    
   100   49   50 am   BACKBONE|DICT|INTERRES
   101   49  174 1    
   102   50   51 2    
   103   50   52 1    
   104   52   53 1    
   105   52   54 1    
   106   52  175 1    
   107   53  176 1    
   108   53  177 1    
   109   53  178 1    
   110   54   55 am   BACKBONE|DICT|INTERRES
   111   54  179 1    
   112   55   56 2    
   113   55   57 1    
   114   57   58 1    
   115   57   59 1    
   116   57  180 1    
   117   58  181 1    
   118   58  182 1    
   119   58  183 1    
   120   59   60 am   BACKBONE|DICT|INTERRES
   121   59  184 1    
   122   60   61 2    
   123   60   62 1    
   124   62   63 1    
   125   62   64 1    
   126   62  185 1    
   127   63  186 1    
   128   63  187 1    
   129   63  188 1    
   130   64   65 am   BACKBONE|DICT|INTERRES
   131   64  189 1    
   132   65   66 2    
   133   67   68 2    
   134   67   69 am   BACKBONE|DICT|INTERRES
   135   69   70 1    
   136   69  190 1    
   137   70   71 1    
   138   70   72 1    
   139   70  191 1    
   140   71  192 1    
   141   71  193 1    
   142   71  194 1    
   143   72   73 2    
   144   72   74 am   BACKBONE|DICT|INTERRES
   145   74   75 1    
   146   74  195 1    
   147   75   76 1    
   148   75   77 1    
   149   75  196 1    
   150   76  197 1    
   151   76  198 1    
   152   76  199 1    
   153   77   78 2    
   154   77   79 am   BACKBONE|DICT|INTERRES
   155   79   80 1    
   156   79  200 1    
   157   80   81 1    
   158   80   82 1    
   159   80  201 1    
   160   81  202 1    
   161   81  203 1    
   162   81  204 1    
   163   82   83 2    
   164   82   84 am   BACKBONE|DICT|INTERRES
   165   84   85 1    
   166   84  205 1    
   167   85   86 1    
   168   85   87 1    
   169   85  206 1    
   170   86  207 1    
   171   86  208 1    
   172   86  209 1    
   173   87   88 2    
   174   87   89 am   BACKBONE|DICT|INTERRES
   175   89   90 1    
   176   89  210 1    
   177   90   91 1    
   178   90   92 1    
   179   90  211 1    
   180   91  212 1    
   181   91  213 1    
   182   91  214 1    
   183   92   93 2    
   184   92   94 am   BACKBONE|DICT|INTERRES
   185   94   95 1    
   186   94  215 1    
   187   95   96 1    
   188   95   97 1    
   189   95  216 1    
   190   96  217 1    
   191   96  218 1    
   192   96  219 1    
   193   97   98 2    
   194   97   99 am   BACKBONE|DICT|INTERRES
   195   99  100 1    
   196   99  220 1    
   197  100  101 1    
   198  100  102 1    
   199  100  221 1    
   200  101  222 1    
   201  101  223 1    
   202  101  224 1    
   203  102  103 2    
   204  102  104 am   BACKBONE|DICT|INTERRES
   205  104  105 1    
   206  104  225 1    
   207  105  106 1    
   208  105  107 1    
   209  105  226 1    
   210  106  227 1    
   211  106  228 1    
   212  106  229 1    
   213  107  108 2    
   214  107  109 am   BACKBONE|DICT|INTERRES
   215  109  110 1    
   216  109  230 1    
   217  110  111 1    
   218  110  112 1    
   219  110  231 1    
   220  111  232 1    
   221  111  233 1    
   222  111  234 1    
   223  112  113 2    
   224  112  114 am   BACKBONE|DICT|INTERRES
   225  114  115 1    
   226  114  235 1    
   227  115  116 1    
   228  115  117 1    
   229  115  236 1    
   230  116  237 1    
   231  116  238 1    
   232  116  239 1    
   233  117  118 2    
   234  117  119 am   BACKBONE|DICT|INTERRES
   235  119  120 1    
   236  119  240 1    
   237  120  121 1    
   238  120  124 1    
   239  120  241 1    
   240  121  122 am   BACKBONE|DICT|INTERRES
   241  121  123 2    
   242  122  242 1    
   243  122  243 1    
   244  124  125 1    
   245  124  244 1    
   246  124  245 1    
   247  125  126 1    
   248  126  246 1    
   249  126  247 1    
@<TRIPOS>SUBSTRUCTURE
     1 UNK         1 GROUP             0       ****    0 ROOT    
