@<TRIPOS>MOLECULE
3R540
247   249    1
SMALL
USER_CHARGES


@<TRIPOS>ATOM
      1 CA          4.0943  -14.8310  -44.2111 C.3       0 UNK        -0.1800 
      2 C           3.4947  -13.6156  -44.9016 C.2       0 UNK         0.5000 
      3 O           3.0002  -12.7121  -44.2266 O.2       0 UNK        -0.5000 
      4 N           3.5311  -13.5910  -46.2418 N.am      1 UNK        -0.5000 
      5 CA          2.9143  -12.5605  -47.0918 C.3       1 UNK         0.1400 
      6 C6          2.9593  -12.9228  -48.5973 C.3       23 UNK        -0.0398 
      7 S7          2.0890  -14.4809  -48.9718 S.3       23 UNK        -0.2404 
      8 C8          3.3981  -15.4438  -49.7852 C.3       23 UNK        -0.0205 
      9 C9          2.9323  -16.8615  -50.0759 C.ar      23 UNK        -0.0193 
     10 C10         2.2081  -17.1450  -51.2386 C.ar      23 UNK        -0.1150 
     11 C11         1.7860  -18.4503  -51.5102 C.ar      23 UNK        -0.0193 
     12 C12         2.0850  -19.4720  -50.6049 C.ar      23 UNK        -0.1150 
     13 C13         2.8150  -19.2027  -49.4438 C.ar      23 UNK        -0.0193 
     14 C14         3.2375  -17.8952  -49.1860 C.ar      23 UNK        -0.1150 
     15 C15         3.1689  -20.3307  -48.4871 C.3       23 UNK        -0.0205 
     16 S16         2.4133  -20.0870  -46.8513 S.3       23 UNK        -0.2404 
     17 C17         2.2907  -21.8061  -46.2537 C.3       23 UNK        -0.0398 
     18 CA          0.8660  -22.4154  -46.2880 C.3       11 UNK         0.1400 
     19 N          -0.0537  -21.8062  -45.3209 N.am      11 UNK        -0.5000 
     20 C          -1.1431  -22.4353  -44.8534 C.2       10 UNK         0.5000 
     21 O          -1.4538  -23.5815  -45.1776 O.2       10 UNK        -0.5000 
     22 CA         -2.0548  -21.6639  -43.8818 C.3       10 UNK         0.1400 
     23 CB         -1.4596  -21.6445  -42.4663 C.3       10 UNK        -0.1800 
     24 N          -2.3359  -20.2984  -44.3187 N.am      10 UNK        -0.5000 
     25 C          -3.0042  -19.9776  -45.4359 C.2       9 UNK         0.5000 
     26 O          -3.4617  -20.8005  -46.2283 O.2       9 UNK        -0.5000 
     27 CA         -3.1519  -18.4772  -45.7362 C.3       9 UNK         0.1400 
     28 CB         -4.3400  -17.8752  -44.9709 C.3       9 UNK        -0.1800 
     29 N          -1.9353  -17.7333  -45.4165 N.am      9 UNK        -0.5000 
     30 C          -0.7731  -17.8821  -46.0670 C.2       8 UNK         0.5000 
     31 O          -0.6162  -18.6419  -47.0191 O.2       8 UNK        -0.5000 
     32 CA          0.4170  -17.0732  -45.5307 C.3       8 UNK         0.1400 
     33 CB          0.2717  -15.6021  -45.9429 C.3       8 UNK        -0.1800 
     34 N           0.5417  -17.1717  -44.0754 N.am      8 UNK        -0.5000 
     35 C           0.7768  -18.3128  -43.4049 C.2       7 UNK         0.5000 
     36 O           0.9543  -19.4036  -43.9448 O.2       7 UNK        -0.5000 
     37 CA          0.7640  -18.2440  -41.8652 C.3       7 UNK         0.1400 
     38 CB          2.1763  -17.9590  -41.3327 C.3       7 UNK        -0.1800 
     39 N          -0.1562  -17.2401  -41.3346 N.am      7 UNK        -0.5000 
     40 C          -1.4734  -17.1743  -41.5775 C.2       6 UNK         0.5000 
     41 O          -2.0959  -18.0321  -42.2053 O.2       6 UNK        -0.5000 
     42 CA         -2.2006  -15.9044  -41.0867 C.3       6 UNK         0.1400 
     43 CB         -2.9746  -16.1959  -39.7928 C.3       6 UNK        -0.1800 
     44 N          -1.3067  -14.7580  -40.8658 N.am      6 UNK        -0.5000 
     45 C          -0.5690  -14.1633  -41.8146 C.2       5 UNK         0.5000 
     46 O          -0.5682  -14.5140  -42.9962 O.2       5 UNK        -0.5000 
     47 CA          0.3949  -13.0649  -41.3389 C.3       5 UNK         0.1400 
     48 CB          1.7118  -13.6910  -40.8523 C.3       5 UNK        -0.1800 
     49 N           0.7042  -12.1184  -42.4055 N.am      5 UNK        -0.5000 
     50 C          -0.0943  -11.1206  -42.8056 C.2       4 UNK         0.5000 
     51 O          -1.2044  -10.8968  -42.3182 O.2       4 UNK        -0.5000 
     52 CA          0.4745  -10.2079  -43.9148 C.3       4 UNK         0.1400 
     53 CB         -0.2818   -8.8713  -44.0603 C.3       4 UNK        -0.1800 
     54 N           1.9160   -9.9883  -43.7535 N.am      4 UNK        -0.5000 
     55 C           2.5504   -9.4165  -42.7176 C.2       3 UNK         0.5000 
     56 O           1.9806   -8.8281  -41.7980 O.2       3 UNK        -0.5000 
     57 CA          4.0840   -9.5635  -42.6760 C.3       3 UNK         0.1400 
     58 CB          4.4867  -10.5888  -41.6032 C.3       3 UNK        -0.1800 
     59 N           4.6370  -10.0008  -43.9585 N.am      3 UNK        -0.5000 
     60 C           5.0650   -9.1805  -44.9267 C.2       2 UNK         0.5000 
     61 O           5.0945   -7.9537  -44.8241 O.2       2 UNK        -0.5000 
     62 CA          5.5258   -9.8449  -46.2390 C.3       2 UNK         0.1400 
     63 CB          7.0337  -10.1351  -46.1951 C.3       2 UNK        -0.1800 
     64 N           4.8075  -11.0869  -46.5377 N.am      2 UNK        -0.5000 
     65 C           3.5108  -11.1548  -46.8731 C.2       1 UNK         0.5000 
     66 O           2.7835  -10.1681  -46.9850 O.2       1 UNK        -0.5000 
     67 C           0.2552  -22.4749  -47.7055 C.2       11 UNK         0.5000 
     68 O           0.4361  -23.4765  -48.3974 O.2       11 UNK        -0.5000 
     69 N          -0.4987  -21.4381  -48.1019 N.am      12 UNK        -0.5000 
     70 CA         -1.2013  -21.3671  -49.3855 C.3       12 UNK         0.1400 
     71 CB         -1.7429  -19.9484  -49.5887 C.3       12 UNK        -0.1800 
     72 C          -2.3310  -22.4034  -49.5323 C.2       12 UNK         0.5000 
     73 O          -2.6540  -22.7846  -50.6571 O.2       12 UNK        -0.5000 
     74 N          -2.8947  -22.8569  -48.4030 N.am      13 UNK        -0.5000 
     75 CA         -3.9004  -23.9168  -48.3301 C.3       13 UNK         0.1400 
     76 CB         -4.5663  -23.8985  -46.9453 C.3       13 UNK        -0.1800 
     77 C          -3.3658  -25.3238  -48.6586 C.2       13 UNK         0.5000 
     78 O          -4.1731  -26.2214  -48.8992 O.2       13 UNK        -0.5000 
     79 N          -2.0364  -25.5032  -48.6720 N.am      14 UNK        -0.5000 
     80 CA         -1.3783  -26.7612  -49.0351 C.3       14 UNK         0.1400 
     81 CB          0.0518  -26.7629  -48.4727 C.3       14 UNK        -0.1800 
     82 C          -1.3654  -27.0266  -50.5554 C.2       14 UNK         0.5000 
     83 O          -1.0350  -28.1404  -50.9661 O.2       14 UNK        -0.5000 
     84 N          -1.7077  -26.0132  -51.3643 N.am      15 UNK        -0.5000 
     85 CA         -1.8479  -26.1084  -52.8161 C.3       15 UNK         0.1400 
     86 CB         -2.0107  -24.6906  -53.3821 C.3       15 UNK        -0.1800 
     87 C          -3.0452  -26.9846  -53.2322 C.2       15 UNK         0.5000 
     88 O          -3.9976  -27.1396  -52.4649 O.2       15 UNK        -0.5000 
     89 N          -3.0057  -27.4959  -54.4702 N.am      16 UNK        -0.5000 
     90 CA         -4.0455  -28.3470  -55.0646 C.3       16 UNK         0.1400 
     91 CB         -3.5549  -28.8553  -56.4289 C.3       16 UNK        -0.1800 
     92 C          -5.4214  -27.6619  -55.2080 C.2       16 UNK         0.5000 
     93 O          -6.4436  -28.3481  -55.2227 O.2       16 UNK        -0.5000 
     94 N          -5.4222  -26.3243  -55.2835 N.am      17 UNK        -0.5000 
     95 CA         -6.6167  -25.4775  -55.2938 C.3       17 UNK         0.1400 
     96 CB         -6.2625  -24.1484  -55.9775 C.3       17 UNK        -0.1800 
     97 C          -7.2326  -25.2543  -53.8919 C.2       17 UNK         0.5000 
     98 O          -8.2985  -24.6441  -53.8009 O.2       17 UNK        -0.5000 
     99 N          -6.5769  -25.7652  -52.8390 N.am      18 UNK        -0.5000 
    100 CA        -6.9900  -25.7593  -51.4349 C.3       18 UNK         0.1400 
    101 CB        -8.3157  -26.5336  -51.2443 C.3       18 UNK        -0.1800 
    102 C         -6.9688  -24.3550  -50.7925 C.2       18 UNK         0.5000 
    103 O         -6.1107  -23.5429  -51.1431 O.2       18 UNK        -0.5000 
    104 N         -7.8660  -24.1463  -49.8156 N.am      19 UNK        -0.5000 
    105 CA        -7.9764  -23.0572  -48.8367 C.3       19 UNK         0.1400 
    106 CB        -9.4296  -23.0023  -48.3350 C.3       19 UNK        -0.1800 
    107 C         -7.4923  -21.6670  -49.2967 C.2       19 UNK         0.5000 
    108 O         -8.2527  -20.9197  -49.9145 O.2       19 UNK        -0.5000 
    109 N         -6.2272  -21.3659  -48.9681 N.am      20 UNK        -0.5000 
    110 CA        -5.5019  -20.1134  -49.2006 C.3       20 UNK         0.1400 
    111 CB        -6.0804  -18.9955  -48.3102 C.3       20 UNK        -0.1800 
    112 C         -5.3886  -19.6885  -50.6826 C.2       20 UNK         0.5000 
    113 O         -5.1911  -18.5042  -50.9588 O.2       20 UNK        -0.5000 
    114 N         -5.5342  -20.6403  -51.6135 N.am      21 UNK        -0.5000 
    115 CA        -5.6967  -20.3530  -53.0373 C.3       21 UNK         0.1400 
    116 CB        -6.5205  -21.4810  -53.6705 C.3       21 UNK        -0.1800 
    117 C         -4.3761  -20.1610  -53.8031 C.2       21 UNK         0.5000 
    118 O         -4.3995  -19.5263  -54.8577 O.2       21 UNK        -0.5000 
    119 N         -3.2709  -20.7365  -53.3052 N.am      22 UNK        -0.5000 
    120 CA        -1.9408  -20.7780  -53.9557 C.3       22 UNK         0.1400 
    121 C         -1.8601  -21.6415  -55.2554 C.2       22 UNK         0.5000 
    122 N         -2.9289  -22.2805  -55.7130 N.am      22 UNK        -0.7600 
    123 O         -0.7901  -21.7686  -55.8443 O.2       22 UNK        -0.5000 
    124 C124       -1.3051  -19.3704  -54.1771 C.3       23 UNK        -0.0398 
    125 S125       -0.7541  -18.5888  -52.6261 S.3       23 UNK        -0.2404 
    126 C126        1.0477  -18.7723  -52.7996 C.3       23 UNK        -0.0205 
    127 H127        4.8184  -14.5167  -43.4595 H         1 UNK         0.0600 
    128 H128        4.5986  -15.4907  -44.9173 H         1 UNK         0.0600 
    129 H129        3.3090  -15.4005  -43.7141 H         1 UNK         0.0600 
    130 H130        3.9420  -14.3693  -46.7362 H         1 UNK         0.3000 
    131 H131        1.8641  -12.4999  -46.7971 H         1 UNK         0.0600 
    132 H132        2.4840  -12.1400  -49.1916 H         1 UNK         0.0800 
    133 H133        3.9919  -12.9813  -48.9461 H         1 UNK         0.0800 
    134 H134        4.2865  -15.4635  -49.1520 H         1 UNK         0.0800 
    135 H135        3.6892  -14.9499  -50.7136 H         1 UNK         0.0800 
    136 H136        1.9769  -16.3503  -51.9341 H         1 UNK         0.1150 
    137 H137        1.7611  -20.4816  -50.8146 H         1 UNK         0.1150 
    138 H138        3.8007  -17.6846  -48.2877 H         1 UNK         0.1150 
    139 H139        2.8457  -21.2864  -48.9023 H         1 UNK         0.0800 
    140 H140        4.2525  -20.3907  -48.3781 H         1 UNK         0.0800 
    141 H141        2.6622  -21.8229  -45.2283 H         1 UNK         0.0800 
    142 H142        2.9791  -22.4375  -46.8175 H         1 UNK         0.0800 
    143 H143        0.9939  -23.4561  -45.9806 H         1 UNK         0.0600 
    144 H144        0.1750  -20.8705  -44.9947 H         1 UNK         0.3000 
    145 H145       -3.0096  -22.1920  -43.8361 H         1 UNK         0.0600 
    146 H146       -2.1031  -21.1034  -41.7722 H         1 UNK         0.0600 
    147 H147       -1.3430  -22.6582  -42.0812 H         1 UNK         0.0600 
    148 H148       -0.4766  -21.1756  -42.4489 H         1 UNK         0.0600 
    149 H149       -2.0202  -19.5483  -43.7146 H         1 UNK         0.3000 
    150 H150       -3.3452  -18.3687  -46.8052 H         1 UNK         0.0600 
    151 H151       -5.2622  -18.4117  -45.1951 H         1 UNK         0.0600 
    152 H152       -4.4966  -16.8317  -45.2446 H         1 UNK         0.0600 
    153 H153       -4.1926  -17.9206  -43.8917 H         1 UNK         0.0600 
    154 H154       -1.9670  -17.1268  -44.6100 H         1 UNK         0.3000 
    155 H155        1.3314  -17.4660  -45.9785 H         1 UNK         0.0600 
    156 H156       -0.6334  -15.1513  -45.5358 H         1 UNK         0.0600 
    157 H157        0.2131  -15.5115  -47.0270 H         1 UNK         0.0600 
    158 H158        1.1190  -15.0093  -45.6070 H         1 UNK         0.0600 
    159 H159        0.3512  -16.3235  -43.5539 H         1 UNK         0.3000 
    160 H160        0.4438  -19.2165  -41.4884 H         1 UNK         0.0600 
    161 H161        2.5372  -16.9801  -41.6510 H         1 UNK         0.0600 
    162 H162        2.8868  -18.7040  -41.6937 H         1 UNK         0.0600 
    163 H163        2.2017  -17.9890  -40.2433 H         1 UNK         0.0600 
    164 H164        0.2576  -16.4923  -40.7994 H         1 UNK         0.3000 
    165 H165       -2.9179  -15.6241  -41.8607 H         1 UNK         0.0600 
    166 H166       -3.5628  -15.3326  -39.4812 H         1 UNK         0.0600 
    167 H167       -3.6683  -17.0265  -39.9312 H         1 UNK         0.0600 
    168 H168       -2.3046  -16.4609  -38.9739 H         1 UNK         0.0600 
    169 H169       -1.2411  -14.4225  -39.9153 H         1 UNK         0.3000 
    170 H170       -0.0662  -12.5246  -40.5094 H         1 UNK         0.0600 
    171 H171        1.5390  -14.3942  -40.0368 H         1 UNK         0.0600 
    172 H172        2.2201  -14.2313  -41.6521 H         1 UNK         0.0600 
    173 H173        2.3948  -12.9276  -40.4795 H         1 UNK         0.0600 
    174 H174        1.5677  -12.2762  -42.9159 H         1 UNK         0.3000 
    175 H175        0.3552  -10.7574  -44.8497 H         1 UNK         0.0600 
    176 H176       -0.2673   -8.2917  -43.1371 H         1 UNK         0.0600 
    177 H177        0.1529   -8.2578  -44.8494 H         1 UNK         0.0600 
    178 H178       -1.3269   -9.0421  -44.3210 H         1 UNK         0.0600 
    179 H179        2.4950  -10.4697  -44.4275 H         1 UNK         0.3000 
    180 H180        4.5041   -8.5946  -42.3982 H         1 UNK         0.0600 
    181 H181        4.0960  -11.5819  -41.8293 H         1 UNK         0.0600 
    182 H182        4.1058  -10.3017  -40.6223 H         1 UNK         0.0600 
    183 H183        5.5708  -10.6663  -41.5200 H         1 UNK         0.0600 
    184 H184        4.6220  -10.9960  -44.1361 H         1 UNK         0.3000 
    185 H185        5.3374   -9.1390  -47.0508 H         1 UNK         0.0600 
    186 H186        7.6009   -9.2245  -45.9978 H         1 UNK         0.0600 
    187 H187        7.2836  -10.8533  -45.4131 H         1 UNK         0.0600 
    188 H188        7.3863  -10.5362  -47.1455 H         1 UNK         0.0600 
    189 H189        5.3303  -11.9473  -46.4596 H         1 UNK         0.3000 
    190 H190       -0.5612  -20.6151  -47.5090 H         1 UNK         0.3000 
    191 H191       -0.4778  -21.5679  -50.1781 H         1 UNK         0.0600 
    192 H192       -2.3625  -19.6297  -48.7523 H         1 UNK         0.0600 
    193 H193       -2.3441  -19.8774  -50.4951 H         1 UNK         0.0600 
    194 H194       -0.9264  -19.2321  -49.6814 H         1 UNK         0.0600 
    195 H195       -2.6066  -22.4462  -47.5228 H         1 UNK         0.3000 
    196 H196       -4.6632  -23.6961  -49.0727 H         1 UNK         0.0600 
    197 H197       -5.3613  -24.6428  -46.8832 H         1 UNK         0.0600 
    198 H198       -5.0133  -22.9297  -46.7252 H         1 UNK         0.0600 
    199 H199       -3.8510  -24.1219  -46.1542 H         1 UNK         0.0600 
    200 H200       -1.4289  -24.7188  -48.4682 H         1 UNK         0.3000 
    201 H201       -1.9236  -27.5826  -48.5656 H         1 UNK         0.0600 
    202 H202        0.0605  -26.5411  -47.4053 H         1 UNK         0.0600 
    203 H203        0.6826  -26.0296  -48.9754 H         1 UNK         0.0600 
    204 H204        0.5204  -27.7387  -48.6060 H         1 UNK         0.0600 
    205 H205       -1.9949  -25.1400  -50.9441 H         1 UNK         0.3000 
    206 H206       -0.9339  -26.5488  -53.2196 H         1 UNK         0.0600 
    207 H207       -2.9338  -24.2213  -53.0374 H         1 UNK         0.0600 
    208 H208       -1.1803  -24.0484  -53.0879 H         1 UNK         0.0600 
    209 H209       -2.0361  -24.7066  -54.4719 H         1 UNK         0.0600 
    210 H210       -2.1978  -27.3126  -55.0482 H         1 UNK         0.3000 
    211 H211       -4.1816  -29.2089  -54.4080 H         1 UNK         0.0600 
    212 H212       -3.3729  -28.0334  -57.1225 H         1 UNK         0.0600 
    213 H213       -4.2917  -29.5155  -56.8886 H         1 UNK         0.0600 
    214 H214       -2.6300  -29.4237  -56.3297 H         1 UNK         0.0600 
    215 H215       -4.5321  -25.8493  -55.2706 H         1 UNK         0.3000 
    216 H216       -7.3848  -25.9655  -55.8975 H         1 UNK         0.0600 
    217 H217       -7.1162  -23.4698  -55.9912 H         1 UNK         0.0600 
    218 H218       -5.9627  -24.3089  -57.0133 H         1 UNK         0.0600 
    219 H219       -5.4421  -23.6450  -55.4691 H         1 UNK         0.0600 
    220 H220       -5.6856  -26.2215  -53.0020 H         1 UNK         0.3000 
    221 H221       -6.2162  -26.3226  -50.9114 H         1 UNK         0.0600 
    222 H222       -9.1720  -25.9810  -51.6325 H         1 UNK         0.0600 
    223 H223       -8.2824  -27.4946  -51.7581 H         1 UNK         0.0600 
    224 H224       -8.5053  -26.7481  -50.1921 H         1 UNK         0.0600 
    225 H225       -8.5238  -24.8971  -49.6657 H         1 UNK         0.3000 
    226 H226       -7.3614  -23.3501  -47.9845 H         1 UNK         0.0600 
    227 H227      -10.1287  -22.8154  -49.1512 H         1 UNK         0.0600 
    228 H228       -9.7191  -23.9365  -47.8534 H         1 UNK         0.0600 
    229 H229       -9.5620  -22.2066  -47.6005 H         1 UNK         0.0600 
    230 H230       -5.6895  -22.0706  -48.4873 H         1 UNK         0.3000 
    231 H231       -4.4871  -20.3044  -48.8601 H         1 UNK         0.0600 
    232 H232       -6.1404  -19.3154  -47.2703 H         1 UNK         0.0600 
    233 H233       -7.0814  -18.7040  -48.6297 H         1 UNK         0.0600 
    234 H234       -5.4534  -18.1036  -48.3382 H         1 UNK         0.0600 
    235 H235       -5.6911  -21.6021  -51.3229 H         1 UNK         0.3000 
    236 H236       -6.2702  -19.4298  -53.1470 H         1 UNK         0.0600 
    237 H237       -6.0134  -22.4400  -53.5728 H         1 UNK         0.0600 
    238 H238       -7.4966  -21.5736  -53.1934 H         1 UNK         0.0600 
    239 H239       -6.6924  -21.2980  -54.7318 H         1 UNK         0.0600 
    240 H240       -3.3538  -21.2651  -52.4465 H         1 UNK         0.3000 
    241 H241       -1.3045  -21.3149  -53.2508 H         1 UNK         0.0600 
    242 H242       -3.8214  -22.1573  -55.2678 H         1 UNK         0.3800 
    243 H243       -2.8503  -22.8297  -56.5538 H         1 UNK         0.3800 
    244 H244       -0.4441  -19.4252  -54.8450 H         1 UNK         0.0800 
    245 H245       -2.0001  -18.6955  -54.6755 H         1 UNK         0.0800 
    246 H246        1.2795  -19.7935  -53.1072 H         1 UNK         0.0800 
    247 H247        1.4000  -18.1231  -53.6028 H         1 UNK         0.0800 
@<TRIPOS>BOND
     1    1    2 1    
     2    1  127 1    
     3    1  128 1    
     4    1  129 1    
     5    2    3 2    
     6    2    4 am   BACKBONE|DICT|INTERRES
     7    4    5 1    
     8    4  130 1    
     9    5    6 1    
    10    5   65 1    
    11    5  131 1    
    12    6    7 1    
    13    6  132 1    
    14    6  133 1    
    15    7    8 1    
    16    8    9 1    
    17    8  134 1    
    18    8  135 1    
    19    9   10 ar   
    20    9   14 ar   
    21   10   11 ar   
    22   10  136 1    
    23   11   12 ar   
    24   11  126 1    
    25   12   13 ar   
    26   12  137 1    
    27   13   14 ar   
    28   13   15 1    
    29   14  138 1    
    30   15   16 1    
    31   15  139 1    
    32   15  140 1    
    33   16   17 1    
    34   17   18 1    
    35   17  141 1    
    36   17  142 1    
    37   18   19 1    
    38   18   67 1    
    39   18  143 1    
    40   19   20 am   BACKBONE|DICT|INTERRES
    41   19  144 1    
    42   20   21 2    
    43   20   22 1    
    44   22   23 1    
    45   22   24 1    
    46   22  145 1    
    47   23  146 1    
    48   23  147 1    
    49   23  148 1    
    50   24   25 am   BACKBONE|DICT|INTERRES
    51   24  149 1    
    52   25   26 2    
    53   25   27 1    
    54   27   28 1    
    55   27   29 1    
    56   27  150 1    
    57   28  151 1    
    58   28  152 1    
    59   28  153 1    
    60   29   30 am   BACKBONE|DICT|INTERRES
    61   29  154 1    
    62   30   31 2    
    63   30   32 1    
    64   32   33 1    
    65   32   34 1    
    66   32  155 1    
    67   33  156 1    
    68   33  157 1    
    69   33  158 1    
    70   34   35 am   BACKBONE|DICT|INTERRES
    71   34  159 1    
    72   35   36 2    
    73   35   37 1    
    74   37   38 1    
    75   37   39 1    
    76   37  160 1    
    77   38  161 1    
    78   38  162 1    
    79   38  163 1    
    80   39   40 am   BACKBONE|DICT|INTERRES
    81   39  164 1    
    82   40   41 2    
    83   40   42 1    
    84   42   43 1    
    85   42   44 1    
    86   42  165 1    
    87   43  166 1    
    88   43  167 1    
    89   43  168 1    
    90   44   45 am   BACKBONE|DICT|INTERRES
    91   44  169 1    
    92   45   46 2    
    93   45   47 1    
    94   47   48 1    
    95   47   49 1    
    96   47  170 1    
    97   48  171 1    
    98   48  172 1    
    99   48  173 1    
   100   49   50 am   BACKBONE|DICT|INTERRES
   101   49  174 1    
   102   50   51 2    
   103   50   52 1    
   104   52   53 1    
   105   52   54 1    
   106   52  175 1    
   107   53  176 1    
   108   53  177 1    
   109   53  178 1    
   110   54   55 am   BACKBONE|DICT|INTERRES
   111   54  179 1    
   112   55   56 2    
   113   55   57 1    
   114   57   58 1    
   115   57   59 1    
   116   57  180 1    
   117   58  181 1    
   118   58  182 1    
   119   58  183 1    
   120   59   60 am   BACKBONE|DICT|INTERRES
   121   59  184 1    
   122   60   61 2    
   123   60   62 1    
   124   62   63 1    
   125   62   64 1    
   126   62  185 1    
   127   63  186 1    
   128   63  187 1    
   129   63  188 1    
   130   64   65 am   BACKBONE|DICT|INTERRES
   131   64  189 1    
   132   65   66 2    
   133   67   68 2    
   134   67   69 am   BACKBONE|DICT|INTERRES
   135   69   70 1    
   136   69  190 1    
   137   70   71 1    
   138   70   72 1    
   139   70  191 1    
   140   71  192 1    
   141   71  193 1    
   142   71  194 1    
   143   72   73 2    
   144   72   74 am   BACKBONE|DICT|INTERRES
   145   74   75 1    
   146   74  195 1    
   147   75   76 1    
   148   75   77 1    
   149   75  196 1    
   150   76  197 1    
   151   76  198 1    
   152   76  199 1    
   153   77   78 2    
   154   77   79 am   BACKBONE|DICT|INTERRES
   155   79   80 1    
   156   79  200 1    
   157   80   81 1    
   158   80   82 1    
   159   80  201 1    
   160   81  202 1    
   161   81  203 1    
   162   81  204 1    
   163   82   83 2    
   164   82   84 am   BACKBONE|DICT|INTERRES
   165   84   85 1    
   166   84  205 1    
   167   85   86 1    
   168   85   87 1    
   169   85  206 1    
   170   86  207 1    
   171   86  208 1    
   172   86  209 1    
   173   87   88 2    
   174   87   89 am   BACKBONE|DICT|INTERRES
   175   89   90 1    
   176   89  210 1    
   177   90   91 1    
   178   90   92 1    
   179   90  211 1    
   180   91  212 1    
   181   91  213 1    
   182   91  214 1    
   183   92   93 2    
   184   92   94 am   BACKBONE|DICT|INTERRES
   185   94   95 1    
   186   94  215 1    
   187   95   96 1    
   188   95   97 1    
   189   95  216 1    
   190   96  217 1    
   191   96  218 1    
   192   96  219 1    
   193   97   98 2    
   194   97   99 am   BACKBONE|DICT|INTERRES
   195   99  100 1    
   196   99  220 1    
   197  100  101 1    
   198  100  102 1    
   199  100  221 1    
   200  101  222 1    
   201  101  223 1    
   202  101  224 1    
   203  102  103 2    
   204  102  104 am   BACKBONE|DICT|INTERRES
   205  104  105 1    
   206  104  225 1    
   207  105  106 1    
   208  105  107 1    
   209  105  226 1    
   210  106  227 1    
   211  106  228 1    
   212  106  229 1    
   213  107  108 2    
   214  107  109 am   BACKBONE|DICT|INTERRES
   215  109  110 1    
   216  109  230 1    
   217  110  111 1    
   218  110  112 1    
   219  110  231 1    
   220  111  232 1    
   221  111  233 1    
   222  111  234 1    
   223  112  113 2    
   224  112  114 am   BACKBONE|DICT|INTERRES
   225  114  115 1    
   226  114  235 1    
   227  115  116 1    
   228  115  117 1    
   229  115  236 1    
   230  116  237 1    
   231  116  238 1    
   232  116  239 1    
   233  117  118 2    
   234  117  119 am   BACKBONE|DICT|INTERRES
   235  119  120 1    
   236  119  240 1    
   237  120  121 1    
   238  120  124 1    
   239  120  241 1    
   240  121  122 am   BACKBONE|DICT|INTERRES
   241  121  123 2    
   242  122  242 1    
   243  122  243 1    
   244  124  125 1    
   245  124  244 1    
   246  124  245 1    
   247  125  126 1    
   248  126  246 1    
   249  126  247 1    
@<TRIPOS>SUBSTRUCTURE
     1 UNK         1 GROUP             0       ****    0 ROOT    
