@<TRIPOS>MOLECULE
3R540
247   249    1
SMALL
USER_CHARGES


@<TRIPOS>ATOM
      1 CA          3.4701  -14.0567  -45.0234 C.3       0 UNK        -0.1800 
      2 C           3.1468  -15.4530  -44.5118 C.2       0 UNK         0.5000 
      3 O           4.0307  -16.1325  -43.9909 O.2       0 UNK        -0.5000 
      4 N           1.8894  -15.8784  -44.6593 N.am      1 UNK        -0.5000 
      5 CA          1.3886  -17.1973  -44.2812 C.3       1 UNK         0.1400 
      6 C6          1.2426  -18.1026  -45.5216 C.3       23 UNK        -0.0398 
      7 S7          1.2428  -19.8913  -45.1590 S.3       23 UNK        -0.2404 
      8 C8         -0.3279  -20.4355  -45.9105 C.3       23 UNK        -0.0205 
      9 C9         -0.2133  -20.8460  -47.3787 C.ar      23 UNK        -0.0193 
     10 C10         0.3495  -19.9830  -48.3237 C.ar      23 UNK        -0.1150 
     11 C11         0.4357  -20.3472  -49.6685 C.ar      23 UNK        -0.0193 
     12 C12        -0.0672  -21.5811  -50.0787 C.ar      23 UNK        -0.1150 
     13 C13        -0.6531  -22.4495  -49.1583 C.ar      23 UNK        -0.0193 
     14 C14        -0.7258  -22.0766  -47.8099 C.ar      23 UNK        -0.1150 
     15 C15        -1.2219  -23.7745  -49.6451 C.3       23 UNK        -0.0205 
     16 S16         0.0843  -25.0114  -49.9391 S.3       23 UNK        -0.2404 
     17 C17         0.5922  -25.3634  -48.2240 C.3       23 UNK        -0.0398 
     18 CA          2.0712  -25.0341  -47.8810 C.3       11 UNK         0.1400 
     19 N           2.5710  -23.8026  -48.5114 N.am      11 UNK        -0.5000 
     20 C           3.8739  -23.5622  -48.7242 C.2       10 UNK         0.5000 
     21 O           4.7799  -24.2696  -48.2831 O.2       10 UNK        -0.5000 
     22 CA          4.2289  -22.3270  -49.5633 C.3       10 UNK         0.1400 
     23 CB          3.5640  -22.3465  -50.9533 C.3       10 UNK        -0.1800 
     24 N           3.8734  -21.1230  -48.8232 N.am      10 UNK        -0.5000 
     25 C           4.4491  -19.9255  -48.9767 C.2       9 UNK         0.5000 
     26 O           5.3070  -19.6637  -49.8231 O.2       9 UNK        -0.5000 
     27 CA          4.0052  -18.8547  -47.9752 C.3       9 UNK         0.1400 
     28 CB          4.8320  -18.9522  -46.6824 C.3       9 UNK        -0.1800 
     29 N           4.1448  -17.5069  -48.5275 N.am      9 UNK        -0.5000 
     30 C           3.1324  -16.6511  -48.7093 C.2       8 UNK         0.5000 
     31 O           1.9528  -16.9197  -48.4749 O.2       8 UNK        -0.5000 
     32 CA          3.4848  -15.2546  -49.2380 C.3       8 UNK         0.1400 
     33 CB          3.8128  -15.2920  -50.7392 C.3       8 UNK        -0.1800 
     34 N           2.3262  -14.3937  -49.0230 N.am      8 UNK        -0.5000 
     35 C           2.3411  -13.1496  -48.5395 C.2       7 UNK         0.5000 
     36 O           3.3748  -12.5258  -48.2962 O.2       7 UNK        -0.5000 
     37 CA          0.9760  -12.4764  -48.2865 C.3       7 UNK         0.1400 
     38 CB          0.7293  -11.3655  -49.3199 C.3       7 UNK        -0.1800 
     39 N          -0.1668  -13.3972  -48.3129 N.am      7 UNK        -0.5000 
     40 C          -0.5219  -14.2082  -47.3084 C.2       6 UNK         0.5000 
     41 O           0.1225  -14.3281  -46.2629 O.2       6 UNK        -0.5000 
     42 CA         -1.8144  -15.0191  -47.5153 C.3       6 UNK         0.1400 
     43 CB         -1.5395  -16.3194  -48.2854 C.3       6 UNK        -0.1800 
     44 N          -2.4253  -15.3403  -46.2262 N.am      6 UNK        -0.5000 
     45 C          -3.2862  -14.5440  -45.5768 C.2       5 UNK         0.5000 
     46 O          -3.7260  -13.4918  -46.0446 O.2       5 UNK        -0.5000 
     47 CA         -3.7109  -14.9995  -44.1644 C.3       5 UNK         0.1400 
     48 CB         -4.9952  -14.3156  -43.6507 C.3       5 UNK        -0.1800 
     49 N          -3.7868  -16.4585  -44.0493 N.am      5 UNK        -0.5000 
     50 C          -4.6580  -17.2916  -44.6371 C.2       4 UNK         0.5000 
     51 O          -5.6400  -16.9230  -45.2816 O.2       4 UNK        -0.5000 
     52 CA         -4.3614  -18.7989  -44.5214 C.3       4 UNK         0.1400 
     53 CB         -3.8668  -19.3238  -45.8772 C.3       4 UNK        -0.1800 
     54 N          -3.3494  -19.0864  -43.4982 N.am      4 UNK        -0.5000 
     55 C          -3.6179  -19.6101  -42.2928 C.2       3 UNK         0.5000 
     56 O          -4.7394  -19.9623  -41.9283 O.2       3 UNK        -0.5000 
     57 CA         -2.4425  -19.7191  -41.2998 C.3       3 UNK         0.1400 
     58 CB         -1.6247  -20.9953  -41.5493 C.3       3 UNK        -0.1800 
     59 N          -1.5483  -18.5628  -41.3444 N.am      3 UNK        -0.5000 
     60 C          -1.8988  -17.3021  -41.0528 C.2       2 UNK         0.5000 
     61 O          -3.0052  -16.9837  -40.6181 O.2       2 UNK        -0.5000 
     62 CA         -0.8526  -16.2003  -41.3178 C.3       2 UNK         0.1400 
     63 CB         -0.2227  -15.7325  -39.9970 C.3       2 UNK        -0.1800 
     64 N           0.2219  -16.5686  -42.2465 N.am      2 UNK        -0.5000 
     65 C           0.0792  -16.9794  -43.5142 C.2       1 UNK         0.5000 
     66 O          -1.0110  -17.1480  -44.0671 O.2       1 UNK        -0.5000 
     67 C           2.2171  -25.0228  -46.3462 C.2       11 UNK         0.5000 
     68 O           2.3926  -26.0868  -45.7520 O.2       11 UNK        -0.5000 
     69 N           2.0564  -23.8333  -45.7407 N.am      12 UNK        -0.5000 
     70 CA          1.8488  -23.6013  -44.3018 C.3       12 UNK         0.1400 
     71 CB          3.0911  -24.0037  -43.4801 C.3       12 UNK        -0.1800 
     72 C           0.5361  -24.2370  -43.7816 C.2       12 UNK         0.5000 
     73 O           0.4653  -24.6676  -42.6293 O.2       12 UNK        -0.5000 
     74 N          -0.4746  -24.2935  -44.6587 N.am      13 UNK        -0.5000 
     75 CA         -1.7950  -24.8698  -44.4137 C.3       13 UNK         0.1400 
     76 CB         -2.2425  -25.6097  -45.6859 C.3       13 UNK        -0.1800 
     77 C          -2.8158  -23.7805  -44.0453 C.2       13 UNK         0.5000 
     78 O          -2.5591  -22.5928  -44.2418 O.2       13 UNK        -0.5000 
     79 N          -3.9809  -24.2138  -43.5501 N.am      14 UNK        -0.5000 
     80 CA         -5.0872  -23.3579  -43.1082 C.3       14 UNK         0.1400 
     81 CB         -6.0581  -24.2134  -42.2776 C.3       14 UNK        -0.1800 
     82 C          -5.8418  -22.6229  -44.2398 C.2       14 UNK         0.5000 
     83 O          -6.7177  -21.8086  -43.9450 O.2       14 UNK        -0.5000 
     84 N          -5.5219  -22.9216  -45.5034 N.am      15 UNK        -0.5000 
     85 CA         -6.0852  -22.2852  -46.6868 C.3       15 UNK         0.1400 
     86 CB         -7.3371  -23.0528  -47.1436 C.3       15 UNK        -0.1800 
     87 C          -5.0212  -22.2563  -47.7907 C.2       15 UNK         0.5000 
     88 O          -4.1639  -23.1413  -47.8344 O.2       15 UNK        -0.5000 
     89 N          -5.1172  -21.2467  -48.6625 N.am      16 UNK        -0.5000 
     90 CA         -4.2190  -21.0138  -49.7975 C.3       16 UNK         0.1400 
     91 CB         -3.2813  -19.8423  -49.4573 C.3       16 UNK        -0.1800 
     92 C          -5.0058  -20.7413  -51.0946 C.2       16 UNK         0.5000 
     93 O          -4.4421  -20.1876  -52.0406 O.2       16 UNK        -0.5000 
     94 N          -6.3042  -21.0872  -51.1063 N.am      17 UNK        -0.5000 
     95 CA         -7.2679  -20.8615  -52.1924 C.3       17 UNK         0.1400 
     96 CB         -6.9250  -21.7509  -53.4068 C.3       17 UNK        -0.1800 
     97 C          -7.4012  -19.3669  -52.5581 C.2       17 UNK         0.5000 
     98 O          -7.3420  -19.0093  -53.7332 O.2       17 UNK        -0.5000 
     99 N          -7.5118  -18.5103  -51.5298 N.am      18 UNK        -0.5000 
    100 CA        -7.5027  -17.0403  -51.6122 C.3       18 UNK         0.1400 
    101 CB        -8.7671  -16.5183  -52.3271 C.3       18 UNK        -0.1800 
    102 C         -6.1911  -16.4862  -52.2173 C.2       18 UNK         0.5000 
    103 O         -6.2099  -15.5019  -52.9574 O.2       18 UNK        -0.5000 
    104 N         -5.0809  -17.1639  -51.8921 N.am      19 UNK        -0.5000 
    105 CA        -3.7093  -16.9580  -52.3650 C.3       19 UNK         0.1400 
    106 CB        -3.1904  -15.5443  -52.0323 C.3       19 UNK        -0.1800 
    107 C         -3.4782  -17.3541  -53.8392 C.2       19 UNK         0.5000 
    108 O         -2.4074  -17.0651  -54.3774 O.2       19 UNK        -0.5000 
    109 N         -4.4283  -18.0685  -54.4639 N.am      20 UNK        -0.5000 
    110 CA        -4.2667  -18.6427  -55.8043 C.3       20 UNK         0.1400 
    111 CB        -5.6223  -19.1120  -56.3499 C.3       20 UNK        -0.1800 
    112 C         -3.2416  -19.7928  -55.8408 C.2       20 UNK         0.5000 
    113 O         -2.6558  -20.0404  -56.8953 O.2       20 UNK        -0.5000 
    114 N         -3.0103  -20.4484  -54.6924 N.am      21 UNK        -0.5000 
    115 CA        -1.9230  -21.4108  -54.5043 C.3       21 UNK         0.1400 
    116 CB        -2.1805  -22.2185  -53.2231 C.3       21 UNK        -0.1800 
    117 C         -0.5384  -20.7331  -54.4392 C.2       21 UNK         0.5000 
    118 O          0.4660  -21.3847  -54.7273 O.2       21 UNK        -0.5000 
    119 N         -0.5105  -19.4509  -54.0558 N.am      22 UNK        -0.5000 
    120 CA         0.6986  -18.6250  -53.9418 C.3       22 UNK         0.1400 
    121 C          1.0404  -17.9194  -55.2792 C.2       22 UNK         0.5000 
    122 N          0.0619  -17.3329  -55.9590 N.am      22 UNK        -0.7600 
    123 O          2.1928  -17.9047  -55.7022 O.2       22 UNK        -0.5000 
    124 C124        0.6077  -17.5823  -52.7916 C.3       23 UNK        -0.0398 
    125 S125       -0.1726  -18.2003  -51.2630 S.3       23 UNK        -0.2404 
    126 C126        1.0529  -19.4074  -50.6875 C.3       23 UNK        -0.0205 
    127 H127        4.1496  -14.1177  -45.8735 H         1 UNK         0.0600 
    128 H128        3.9514  -13.4704  -44.2408 H         1 UNK         0.0600 
    129 H129        2.5741  -13.5239  -45.3418 H         1 UNK         0.0600 
    130 H130        1.2069  -15.2721  -45.1145 H         1 UNK         0.3000 
    131 H131        2.0889  -17.6757  -43.5930 H         1 UNK         0.0600 
    132 H132        0.3788  -17.8196  -46.1198 H         1 UNK         0.0800 
    133 H133        2.1046  -17.9245  -46.1529 H         1 UNK         0.0800 
    134 H134       -0.6955  -21.2720  -45.3191 H         1 UNK         0.0800 
    135 H135       -1.0678  -19.6459  -45.8078 H         1 UNK         0.0800 
    136 H136        0.7053  -19.0130  -48.0230 H         1 UNK         0.1150 
    137 H137       -0.0121  -21.8628  -51.1208 H         1 UNK         0.1150 
    138 H138       -1.2124  -22.7315  -47.1022 H         1 UNK         0.1150 
    139 H139       -1.9507  -24.1688  -48.9360 H         1 UNK         0.0800 
    140 H140       -1.7680  -23.6135  -50.5751 H         1 UNK         0.0800 
    141 H141       -0.0882  -24.8359  -47.5573 H         1 UNK         0.0800 
    142 H142        0.4042  -26.4223  -48.0378 H         1 UNK         0.0800 
    143 H143        2.6767  -25.8621  -48.2573 H         1 UNK         0.0600 
    144 H144        1.8763  -23.2049  -48.9368 H         1 UNK         0.3000 
    145 H145        5.3117  -22.3395  -49.7074 H         1 UNK         0.0600 
    146 H146        3.8907  -21.5018  -51.5598 H         1 UNK         0.0600 
    147 H147        2.4783  -22.3080  -50.8901 H         1 UNK         0.0600 
    148 H148        3.8268  -23.2552  -51.4959 H         1 UNK         0.0600 
    149 H149        3.2027  -21.2513  -48.0793 H         1 UNK         0.3000 
    150 H150        2.9655  -19.0698  -47.7415 H         1 UNK         0.0600 
    151 H151        5.8948  -18.7972  -46.8718 H         1 UNK         0.0600 
    152 H152        4.5130  -18.2091  -45.9514 H         1 UNK         0.0600 
    153 H153        4.7191  -19.9317  -46.2160 H         1 UNK         0.0600 
    154 H154        5.0768  -17.2503  -48.8218 H         1 UNK         0.3000 
    155 H155        4.3469  -14.8857  -48.6785 H         1 UNK         0.0600 
    156 H156        4.6660  -15.9402  -50.9421 H         1 UNK         0.0600 
    157 H157        4.0644  -14.2982  -51.1098 H         1 UNK         0.0600 
    158 H158        2.9702  -15.6620  -51.3234 H         1 UNK         0.0600 
    159 H159        1.4391  -14.8743  -49.0971 H         1 UNK         0.3000 
    160 H160        1.0244  -12.0143  -47.2981 H         1 UNK         0.0600 
    161 H161        0.6649  -11.7655  -50.3326 H         1 UNK         0.0600 
    162 H162        1.5366  -10.6319  -49.3078 H         1 UNK         0.0600 
    163 H163       -0.1963  -10.8291  -49.1099 H         1 UNK         0.0600 
    164 H164       -0.7406  -13.3669  -49.1433 H         1 UNK         0.3000 
    165 H165       -2.5104  -14.4199  -48.1064 H         1 UNK         0.0600 
    166 H166       -2.4542  -16.8934  -48.4335 H         1 UNK         0.0600 
    167 H167       -1.1280  -16.1073  -49.2725 H         1 UNK         0.0600 
    168 H168       -0.8255  -16.9580  -47.7697 H         1 UNK         0.0600 
    169 H169       -2.0425  -16.1347  -45.7292 H         1 UNK         0.3000 
    170 H170       -2.8995  -14.6924  -43.5043 H         1 UNK         0.0600 
    171 H171       -4.8576  -13.2364  -43.5766 H         1 UNK         0.0600 
    172 H172       -5.8437  -14.4886  -44.3128 H         1 UNK         0.0600 
    173 H173       -5.2632  -14.6767  -42.6577 H         1 UNK         0.0600 
    174 H174       -2.9792  -16.8846  -43.6133 H         1 UNK         0.3000 
    175 H175       -5.2990  -19.3057  -44.2842 H         1 UNK         0.0600 
    176 H176       -3.0385  -18.7288  -46.2621 H         1 UNK         0.0600 
    177 H177       -3.5444  -20.3634  -45.8123 H         1 UNK         0.0600 
    178 H178       -4.6628  -19.2716  -46.6195 H         1 UNK         0.0600 
    179 H179       -2.4006  -18.8014  -43.7052 H         1 UNK         0.3000 
    180 H180       -2.8632  -19.7760  -40.2936 H         1 UNK         0.0600 
    181 H181       -2.2610  -21.8802  -41.5088 H         1 UNK         0.0600 
    182 H182       -0.8475  -21.1214  -40.7957 H         1 UNK         0.0600 
    183 H183       -1.1436  -20.9812  -42.5283 H         1 UNK         0.0600 
    184 H184       -0.6124  -18.7276  -41.6830 H         1 UNK         0.3000 
    185 H185       -1.3840  -15.3544  -41.7565 H         1 UNK         0.0600 
    186 H186       -0.9882  -15.4157  -39.2872 H         1 UNK         0.0600 
    187 H187        0.3546  -16.5277  -39.5237 H         1 UNK         0.0600 
    188 H188        0.4413  -14.8823  -40.1546 H         1 UNK         0.0600 
    189 H189        1.1610  -16.4418  -41.8966 H         1 UNK         0.3000 
    190 H190        1.9448  -23.0219  -46.3305 H         1 UNK         0.3000 
    191 H191        1.7227  -22.5270  -44.1785 H         1 UNK         0.0600 
    192 H192        2.9951  -23.6757  -42.4445 H         1 UNK         0.0600 
    193 H193        3.9943  -23.5448  -43.8821 H         1 UNK         0.0600 
    194 H194        3.2400  -25.0834  -43.4654 H         1 UNK         0.0600 
    195 H195       -0.3489  -23.8437  -45.5499 H         1 UNK         0.3000 
    196 H196       -1.7412  -25.5867  -43.5916 H         1 UNK         0.0600 
    197 H197       -2.3712  -24.9279  -46.5272 H         1 UNK         0.0600 
    198 H198       -1.5160  -26.3690  -45.9760 H         1 UNK         0.0600 
    199 H199       -3.1941  -26.1199  -45.5332 H         1 UNK         0.0600 
    200 H200       -4.1244  -25.2078  -43.4444 H         1 UNK         0.3000 
    201 H201       -4.6713  -22.5908  -42.4534 H         1 UNK         0.0600 
    202 H202       -6.8714  -23.6074  -41.8761 H         1 UNK         0.0600 
    203 H203       -5.5525  -24.6741  -41.4288 H         1 UNK         0.0600 
    204 H204       -6.5055  -25.0078  -42.8762 H         1 UNK         0.0600 
    205 H205       -4.7546  -23.5539  -45.6882 H         1 UNK         0.3000 
    206 H206       -6.3593  -21.2547  -46.4500 H         1 UNK         0.0600 
    207 H207       -8.1016  -23.0581  -46.3664 H         1 UNK         0.0600 
    208 H208       -7.7790  -22.5948  -48.0290 H         1 UNK         0.0600 
    209 H209       -7.1037  -24.0895  -47.3897 H         1 UNK         0.0600 
    210 H210       -5.8472  -20.5609  -48.5325 H         1 UNK         0.3000 
    211 H211       -3.6107  -21.8996  -49.9875 H         1 UNK         0.0600 
    212 H212       -2.7304  -20.0341  -48.5379 H         1 UNK         0.0600 
    213 H213       -3.8277  -18.9077  -49.3295 H         1 UNK         0.0600 
    214 H214       -2.5431  -19.6909  -50.2446 H         1 UNK         0.0600 
    215 H215       -6.6685  -21.5633  -50.2941 H         1 UNK         0.3000 
    216 H216       -8.2444  -21.1735  -51.8192 H         1 UNK         0.0600 
    217 H217       -6.8844  -22.8027  -53.1240 H         1 UNK         0.0600 
    218 H218       -5.9626  -21.4876  -53.8464 H         1 UNK         0.0600 
    219 H219       -7.6791  -21.6549  -54.1888 H         1 UNK         0.0600 
    220 H220       -7.5558  -18.8956  -50.5973 H         1 UNK         0.3000 
    221 H221       -7.5358  -16.6759  -50.5845 H         1 UNK         0.0600 
    222 H222       -8.8321  -15.4317  -52.2610 H         1 UNK         0.0600 
    223 H223       -8.7744  -16.7807  -53.3853 H         1 UNK         0.0600 
    224 H224       -9.6717  -16.9242  -51.8745 H         1 UNK         0.0600 
    225 H225       -5.2031  -17.9930  -51.3295 H         1 UNK         0.3000 
    226 H226       -3.1058  -17.6584  -51.7871 H         1 UNK         0.0600 
    227 H227       -3.3491  -15.3035  -50.9811 H         1 UNK         0.0600 
    228 H228       -2.1189  -15.4690  -52.2208 H         1 UNK         0.0600 
    229 H229       -3.6802  -14.7784  -52.6335 H         1 UNK         0.0600 
    230 H230       -5.2848  -18.2960  -53.9728 H         1 UNK         0.3000 
    231 H231       -3.8981  -17.8532  -56.4627 H         1 UNK         0.0600 
    232 H232       -5.5341  -19.4228  -57.3915 H         1 UNK         0.0600 
    233 H233       -6.3645  -18.3146  -56.3098 H         1 UNK         0.0600 
    234 H234       -6.0088  -19.9634  -55.7901 H         1 UNK         0.0600 
    235 H235       -3.5519  -20.2097  -53.8667 H         1 UNK         0.3000 
    236 H236       -1.9199  -22.1017  -55.3498 H         1 UNK         0.0600 
    237 H237       -2.1495  -21.5828  -52.3377 H         1 UNK         0.0600 
    238 H238       -3.1539  -22.7085  -53.2513 H         1 UNK         0.0600 
    239 H239       -1.4265  -22.9960  -53.0944 H         1 UNK         0.0600 
    240 H240       -1.3824  -18.9743  -53.8779 H         1 UNK         0.3000 
    241 H241        1.5391  -19.2823  -53.7131 H         1 UNK         0.0600 
    242 H242       -0.8739  -17.2867  -55.5672 H         1 UNK         0.3800 
    243 H243        0.2646  -16.8738  -56.8324 H         1 UNK         0.3800 
    244 H244        0.0247  -16.7141  -53.1039 H         1 UNK         0.0800 
    245 H245        1.6016  -17.2046  -52.5499 H         1 UNK         0.0800 
    246 H246        1.9066  -18.8852  -50.2597 H         1 UNK         0.0800 
    247 H247        1.4367  -19.9852  -51.5279 H         1 UNK         0.0800 
@<TRIPOS>BOND
     1    1    2 1    
     2    1  127 1    
     3    1  128 1    
     4    1  129 1    
     5    2    3 2    
     6    2    4 am   BACKBONE|DICT|INTERRES
     7    4    5 1    
     8    4  130 1    
     9    5    6 1    
    10    5   65 1    
    11    5  131 1    
    12    6    7 1    
    13    6  132 1    
    14    6  133 1    
    15    7    8 1    
    16    8    9 1    
    17    8  134 1    
    18    8  135 1    
    19    9   10 ar   
    20    9   14 ar   
    21   10   11 ar   
    22   10  136 1    
    23   11   12 ar   
    24   11  126 1    
    25   12   13 ar   
    26   12  137 1    
    27   13   14 ar   
    28   13   15 1    
    29   14  138 1    
    30   15   16 1    
    31   15  139 1    
    32   15  140 1    
    33   16   17 1    
    34   17   18 1    
    35   17  141 1    
    36   17  142 1    
    37   18   19 1    
    38   18   67 1    
    39   18  143 1    
    40   19   20 am   BACKBONE|DICT|INTERRES
    41   19  144 1    
    42   20   21 2    
    43   20   22 1    
    44   22   23 1    
    45   22   24 1    
    46   22  145 1    
    47   23  146 1    
    48   23  147 1    
    49   23  148 1    
    50   24   25 am   BACKBONE|DICT|INTERRES
    51   24  149 1    
    52   25   26 2    
    53   25   27 1    
    54   27   28 1    
    55   27   29 1    
    56   27  150 1    
    57   28  151 1    
    58   28  152 1    
    59   28  153 1    
    60   29   30 am   BACKBONE|DICT|INTERRES
    61   29  154 1    
    62   30   31 2    
    63   30   32 1    
    64   32   33 1    
    65   32   34 1    
    66   32  155 1    
    67   33  156 1    
    68   33  157 1    
    69   33  158 1    
    70   34   35 am   BACKBONE|DICT|INTERRES
    71   34  159 1    
    72   35   36 2    
    73   35   37 1    
    74   37   38 1    
    75   37   39 1    
    76   37  160 1    
    77   38  161 1    
    78   38  162 1    
    79   38  163 1    
    80   39   40 am   BACKBONE|DICT|INTERRES
    81   39  164 1    
    82   40   41 2    
    83   40   42 1    
    84   42   43 1    
    85   42   44 1    
    86   42  165 1    
    87   43  166 1    
    88   43  167 1    
    89   43  168 1    
    90   44   45 am   BACKBONE|DICT|INTERRES
    91   44  169 1    
    92   45   46 2    
    93   45   47 1    
    94   47   48 1    
    95   47   49 1    
    96   47  170 1    
    97   48  171 1    
    98   48  172 1    
    99   48  173 1    
   100   49   50 am   BACKBONE|DICT|INTERRES
   101   49  174 1    
   102   50   51 2    
   103   50   52 1    
   104   52   53 1    
   105   52   54 1    
   106   52  175 1    
   107   53  176 1    
   108   53  177 1    
   109   53  178 1    
   110   54   55 am   BACKBONE|DICT|INTERRES
   111   54  179 1    
   112   55   56 2    
   113   55   57 1    
   114   57   58 1    
   115   57   59 1    
   116   57  180 1    
   117   58  181 1    
   118   58  182 1    
   119   58  183 1    
   120   59   60 am   BACKBONE|DICT|INTERRES
   121   59  184 1    
   122   60   61 2    
   123   60   62 1    
   124   62   63 1    
   125   62   64 1    
   126   62  185 1    
   127   63  186 1    
   128   63  187 1    
   129   63  188 1    
   130   64   65 am   BACKBONE|DICT|INTERRES
   131   64  189 1    
   132   65   66 2    
   133   67   68 2    
   134   67   69 am   BACKBONE|DICT|INTERRES
   135   69   70 1    
   136   69  190 1    
   137   70   71 1    
   138   70   72 1    
   139   70  191 1    
   140   71  192 1    
   141   71  193 1    
   142   71  194 1    
   143   72   73 2    
   144   72   74 am   BACKBONE|DICT|INTERRES
   145   74   75 1    
   146   74  195 1    
   147   75   76 1    
   148   75   77 1    
   149   75  196 1    
   150   76  197 1    
   151   76  198 1    
   152   76  199 1    
   153   77   78 2    
   154   77   79 am   BACKBONE|DICT|INTERRES
   155   79   80 1    
   156   79  200 1    
   157   80   81 1    
   158   80   82 1    
   159   80  201 1    
   160   81  202 1    
   161   81  203 1    
   162   81  204 1    
   163   82   83 2    
   164   82   84 am   BACKBONE|DICT|INTERRES
   165   84   85 1    
   166   84  205 1    
   167   85   86 1    
   168   85   87 1    
   169   85  206 1    
   170   86  207 1    
   171   86  208 1    
   172   86  209 1    
   173   87   88 2    
   174   87   89 am   BACKBONE|DICT|INTERRES
   175   89   90 1    
   176   89  210 1    
   177   90   91 1    
   178   90   92 1    
   179   90  211 1    
   180   91  212 1    
   181   91  213 1    
   182   91  214 1    
   183   92   93 2    
   184   92   94 am   BACKBONE|DICT|INTERRES
   185   94   95 1    
   186   94  215 1    
   187   95   96 1    
   188   95   97 1    
   189   95  216 1    
   190   96  217 1    
   191   96  218 1    
   192   96  219 1    
   193   97   98 2    
   194   97   99 am   BACKBONE|DICT|INTERRES
   195   99  100 1    
   196   99  220 1    
   197  100  101 1    
   198  100  102 1    
   199  100  221 1    
   200  101  222 1    
   201  101  223 1    
   202  101  224 1    
   203  102  103 2    
   204  102  104 am   BACKBONE|DICT|INTERRES
   205  104  105 1    
   206  104  225 1    
   207  105  106 1    
   208  105  107 1    
   209  105  226 1    
   210  106  227 1    
   211  106  228 1    
   212  106  229 1    
   213  107  108 2    
   214  107  109 am   BACKBONE|DICT|INTERRES
   215  109  110 1    
   216  109  230 1    
   217  110  111 1    
   218  110  112 1    
   219  110  231 1    
   220  111  232 1    
   221  111  233 1    
   222  111  234 1    
   223  112  113 2    
   224  112  114 am   BACKBONE|DICT|INTERRES
   225  114  115 1    
   226  114  235 1    
   227  115  116 1    
   228  115  117 1    
   229  115  236 1    
   230  116  237 1    
   231  116  238 1    
   232  116  239 1    
   233  117  118 2    
   234  117  119 am   BACKBONE|DICT|INTERRES
   235  119  120 1    
   236  119  240 1    
   237  120  121 1    
   238  120  124 1    
   239  120  241 1    
   240  121  122 am   BACKBONE|DICT|INTERRES
   241  121  123 2    
   242  122  242 1    
   243  122  243 1    
   244  124  125 1    
   245  124  244 1    
   246  124  245 1    
   247  125  126 1    
   248  126  246 1    
   249  126  247 1    
@<TRIPOS>SUBSTRUCTURE
     1 UNK         1 GROUP             0       ****    0 ROOT    
