@<TRIPOS>MOLECULE
3R540
247   249    1
SMALL
USER_CHARGES


@<TRIPOS>ATOM
      1 CA          2.7570   -9.7753  -51.0156 C.3       0 UNK        -0.1800 
      2 C           3.3159  -10.1925  -49.6627 C.2       0 UNK         0.5000 
      3 O           4.2765   -9.5889  -49.1849 O.2       0 UNK        -0.5000 
      4 N           2.7193  -11.2231  -49.0495 N.am      1 UNK        -0.5000 
      5 CA          3.0965  -11.7509  -47.7316 C.3       1 UNK         0.1400 
      6 C6          2.5074  -13.1626  -47.4780 C.3       23 UNK        -0.0398 
      7 S7          3.3583  -14.4324  -48.4762 S.3       23 UNK        -0.2404 
      8 C8          2.3403  -14.5166  -49.9827 C.3       23 UNK        -0.0205 
      9 C9          1.2116  -15.5287  -49.8686 C.ar      23 UNK        -0.0193 
     10 C10        -0.0643  -15.1323  -49.4585 C.ar      23 UNK        -0.1150 
     11 C11        -1.1231  -16.0457  -49.4179 C.ar      23 UNK        -0.0193 
     12 C12        -0.8797  -17.3772  -49.7854 C.ar      23 UNK        -0.1150 
     13 C13         0.3879  -17.7838  -50.2112 C.ar      23 UNK        -0.0193 
     14 C14         1.4319  -16.8572  -50.2374 C.ar      23 UNK        -0.1150 
     15 C15         0.6228  -19.2055  -50.7007 C.3       23 UNK        -0.0205 
     16 S16         0.9654  -20.3576  -49.3381 S.3       23 UNK        -0.2404 
     17 C17        -0.7210  -20.7250  -48.7546 C.3       23 UNK        -0.0398 
     18 CA         -0.7671  -22.0295  -47.9305 C.3       11 UNK         0.1400 
     19 N          -0.0938  -21.9015  -46.6355 N.am      11 UNK        -0.5000 
     20 C           0.1626  -22.9247  -45.8092 C.2       10 UNK         0.5000 
     21 O          -0.0808  -24.0999  -46.0817 O.2       10 UNK        -0.5000 
     22 CA          0.7374  -22.5750  -44.4248 C.3       10 UNK         0.1400 
     23 CB          2.2545  -22.3483  -44.4987 C.3       10 UNK        -0.1800 
     24 N           0.0839  -21.4103  -43.8243 N.am      10 UNK        -0.5000 
     25 C          -1.2112  -21.3696  -43.4775 C.2       9 UNK         0.5000 
     26 O          -1.9735  -22.3299  -43.5795 O.2       9 UNK        -0.5000 
     27 CA         -1.7639  -20.0257  -42.9708 C.3       9 UNK         0.1400 
     28 CB         -1.4254  -19.8226  -41.4870 C.3       9 UNK        -0.1800 
     29 N          -1.2839  -18.8839  -43.7482 N.am      9 UNK        -0.5000 
     30 C          -1.5339  -18.6823  -45.0499 C.2       8 UNK         0.5000 
     31 O          -2.2381  -19.4237  -45.7336 O.2       8 UNK        -0.5000 
     32 CA         -0.8310  -17.4824  -45.7111 C.3       8 UNK         0.1400 
     33 CB         -1.5675  -16.1708  -45.4021 C.3       8 UNK        -0.1800 
     34 N           0.5691  -17.3663  -45.3030 N.am      8 UNK        -0.5000 
     35 C           1.5065  -18.2931  -45.5472 C.2       7 UNK         0.5000 
     36 O           1.2970  -19.3345  -46.1666 O.2       7 UNK        -0.5000 
     37 CA          2.8910  -18.0445  -44.9285 C.3       7 UNK         0.1400 
     38 CB          3.6919  -17.0296  -45.7577 C.3       7 UNK        -0.1800 
     39 N           2.7806  -17.5851  -43.5432 N.am      7 UNK        -0.5000 
     40 C           2.3847  -18.3689  -42.5278 C.2       6 UNK         0.5000 
     41 O           2.1180  -19.5634  -42.6551 O.2       6 UNK        -0.5000 
     42 CA          2.2183  -17.7069  -41.1460 C.3       6 UNK         0.1400 
     43 CB          3.5445  -17.7360  -40.3722 C.3       6 UNK        -0.1800 
     44 N           1.7360  -16.3283  -41.2221 N.am      6 UNK        -0.5000 
     45 C           0.5567  -15.9540  -41.7379 C.2       5 UNK         0.5000 
     46 O          -0.2913  -16.7483  -42.1400 O.2       5 UNK        -0.5000 
     47 CA          0.2979  -14.4416  -41.8741 C.3       5 UNK         0.1400 
     48 CB         -0.5644  -13.9346  -40.7094 C.3       5 UNK        -0.1800 
     49 N           1.5189  -13.6359  -41.9509 N.am      5 UNK        -0.5000 
     50 C           2.4558  -13.7206  -42.9037 C.2       4 UNK         0.5000 
     51 O           2.4006  -14.5233  -43.8372 O.2       4 UNK        -0.5000 
     52 CA          3.6456  -12.7485  -42.7692 C.3       4 UNK         0.1400 
     53 CB          4.7504  -13.0177  -43.8067 C.3       4 UNK        -0.1800 
     54 N           3.2083  -11.3533  -42.8639 N.am      4 UNK        -0.5000 
     55 C           2.6092  -10.6659  -41.8790 C.2       3 UNK         0.5000 
     56 O           2.4046  -11.1378  -40.7589 O.2       3 UNK        -0.5000 
     57 CA          2.1413   -9.2272  -42.1765 C.3       3 UNK         0.1400 
     58 CB          3.1339   -8.2101  -41.5927 C.3       3 UNK        -0.1800 
     59 N           1.9563   -8.9414  -43.5989 N.am      3 UNK        -0.5000 
     60 C           0.9991   -9.4584  -44.3811 C.2       2 UNK         0.5000 
     61 O           0.1316  -10.2355  -43.9804 O.2       2 UNK        -0.5000 
     62 CA          1.0236   -9.0548  -45.8714 C.3       2 UNK         0.1400 
     63 CB          1.7771   -7.7338  -46.1451 C.3       2 UNK        -0.1800 
     64 N           1.5521  -10.1151  -46.7364 N.am      2 UNK        -0.5000 
     65 C           2.7198  -10.7663  -46.6056 C.2       1 UNK         0.5000 
     66 O           3.5070  -10.5885  -45.6754 O.2       1 UNK        -0.5000 
     67 C          -2.2145  -22.5348  -47.7727 C.2       11 UNK         0.5000 
     68 O          -2.6042  -23.4607  -48.4845 O.2       11 UNK        -0.5000 
     69 N          -2.9671  -21.9667  -46.8193 N.am      12 UNK        -0.5000 
     70 CA         -4.3289  -22.3820  -46.4781 C.3       12 UNK         0.1400 
     71 CB         -4.9208  -21.4300  -45.4289 C.3       12 UNK        -0.1800 
     72 C          -4.4024  -23.8453  -46.0048 C.2       12 UNK         0.5000 
     73 O          -5.2589  -24.5902  -46.4831 O.2       12 UNK        -0.5000 
     74 N          -3.4674  -24.2420  -45.1282 N.am      13 UNK        -0.5000 
     75 CA         -3.2965  -25.6114  -44.6348 C.3       13 UNK         0.1400 
     76 CB         -2.2362  -25.6272  -43.5238 C.3       13 UNK        -0.1800 
     77 C          -2.9378  -26.6224  -45.7415 C.2       13 UNK         0.5000 
     78 O          -3.3533  -27.7784  -45.6621 O.2       13 UNK        -0.5000 
     79 N          -2.2339  -26.1615  -46.7837 N.am      14 UNK        -0.5000 
     80 CA         -1.9212  -26.9026  -48.0081 C.3       14 UNK         0.1400 
     81 CB         -0.6097  -26.3544  -48.5995 C.3       14 UNK        -0.1800 
     82 C          -3.0796  -26.8766  -49.0330 C.2       14 UNK         0.5000 
     83 O          -2.8289  -26.8822  -50.2396 O.2       14 UNK        -0.5000 
     84 N          -4.3274  -26.8365  -48.5421 N.am      15 UNK        -0.5000 
     85 CA         -5.5872  -26.8068  -49.2906 C.3       15 UNK         0.1400 
     86 CB         -5.8193  -28.1525  -50.0095 C.3       15 UNK        -0.1800 
     87 C          -5.6827  -25.5954  -50.2380 C.2       15 UNK         0.5000 
     88 O          -6.0458  -25.7521  -51.4034 O.2       15 UNK        -0.5000 
     89 N          -5.3146  -24.4135  -49.7239 N.am      16 UNK        -0.5000 
     90 CA         -5.2108  -23.1390  -50.4461 C.3       16 UNK         0.1400 
     91 CB         -6.6036  -22.6430  -50.8773 C.3       16 UNK        -0.1800 
     92 C          -4.1949  -23.2146  -51.6068 C.2       16 UNK         0.5000 
     93 O          -4.4969  -22.8304  -52.7398 O.2       16 UNK        -0.5000 
     94 N          -3.0131  -23.7618  -51.2850 N.am      17 UNK        -0.5000 
     95 CA         -1.9014  -24.1059  -52.1758 C.3       17 UNK         0.1400 
     96 CB         -1.1684  -22.8299  -52.6349 C.3       17 UNK        -0.1800 
     97 C          -2.3487  -25.0115  -53.3433 C.2       17 UNK         0.5000 
     98 O          -2.0720  -24.7094  -54.5042 O.2       17 UNK        -0.5000 
     99 N          -3.0693  -26.0889  -52.9988 N.am      18 UNK        -0.5000 
    100 CA        -3.7447  -27.0307  -53.8984 C.3       18 UNK         0.1400 
    101 CB        -2.7169  -27.8677  -54.6881 C.3       18 UNK        -0.1800 
    102 C         -4.7940  -26.3395  -54.7986 C.2       18 UNK         0.5000 
    103 O         -4.8266  -26.5683  -56.0095 O.2       18 UNK        -0.5000 
    104 N         -5.6303  -25.5019  -54.1691 N.am      19 UNK        -0.5000 
    105 CA        -6.7212  -24.7065  -54.7389 C.3       19 UNK         0.1400 
    106 CB        -7.8808  -25.6263  -55.1732 C.3       19 UNK        -0.1800 
    107 C         -6.2707  -23.7337  -55.8500 C.2       19 UNK         0.5000 
    108 O         -6.9856  -23.5546  -56.8385 O.2       19 UNK        -0.5000 
    109 N         -5.0897  -23.1259  -55.6773 N.am      20 UNK        -0.5000 
    110 CA        -4.5064  -22.1888  -56.6375 C.3       20 UNK         0.1400 
    111 CB        -2.9905  -22.0919  -56.4110 C.3       20 UNK        -0.1800 
    112 C         -5.1557  -20.7972  -56.5612 C.2       20 UNK         0.5000 
    113 O         -5.5052  -20.2313  -57.5977 O.2       20 UNK        -0.5000 
    114 N         -5.3016  -20.2826  -55.3351 N.am      21 UNK        -0.5000 
    115 CA        -5.8416  -18.9685  -54.9924 C.3       21 UNK         0.1400 
    116 CB        -4.9989  -17.8272  -55.6148 C.3       21 UNK        -0.1800 
    117 C         -5.9021  -18.9227  -53.4586 C.2       21 UNK         0.5000 
    118 O         -6.7007  -19.6528  -52.8732 O.2       21 UNK        -0.5000 
    119 N         -5.0328  -18.1187  -52.8338 N.am      22 UNK        -0.5000 
    120 CA        -4.7201  -18.1858  -51.3975 C.3       22 UNK         0.1400 
    121 C         -3.8476  -19.4278  -51.0409 C.2       22 UNK         0.5000 
    122 N         -3.0164  -19.9253  -51.9503 N.am      22 UNK        -0.7600 
    123 O         -3.9406  -19.9636  -49.9419 O.2       22 UNK        -0.5000 
    124 C124       -4.0767  -16.8554  -50.9266 C.3       23 UNK        -0.0398 
    125 S125       -3.8987  -16.6982  -49.1141 S.3       23 UNK        -0.2404 
    126 C126       -2.5015  -15.5254  -48.9958 C.3       23 UNK        -0.0205 
    127 H127        2.4079   -8.7435  -50.9748 H         1 UNK         0.0600 
    128 H128        1.9215  -10.4051  -51.3220 H         1 UNK         0.0600 
    129 H129        3.5319   -9.8444  -51.7790 H         1 UNK         0.0600 
    130 H130        1.9369  -11.6730  -49.4997 H         1 UNK         0.3000 
    131 H131        4.1856  -11.8356  -47.7082 H         1 UNK         0.0600 
    132 H132        1.4335  -13.1877  -47.6655 H         1 UNK         0.0800 
    133 H133        2.6343  -13.4517  -46.4332 H         1 UNK         0.0800 
    134 H134        1.9419  -13.5351  -50.2359 H         1 UNK         0.0800 
    135 H135        2.9884  -14.7926  -50.8159 H         1 UNK         0.0800 
    136 H136       -0.2414  -14.1006  -49.1900 H         1 UNK         0.1150 
    137 H137       -1.6736  -18.1064  -49.7644 H         1 UNK         0.1150 
    138 H138        2.4134  -17.1640  -50.5711 H         1 UNK         0.1150 
    139 H139       -0.2325  -19.5497  -51.2827 H         1 UNK         0.0800 
    140 H140        1.4719  -19.2240  -51.3856 H         1 UNK         0.0800 
    141 H141       -1.3680  -20.8085  -49.6282 H         1 UNK         0.0800 
    142 H142       -1.0927  -19.8815  -48.1714 H         1 UNK         0.0800 
    143 H143       -0.2342  -22.7981  -48.4949 H         1 UNK         0.0600 
    144 H144        0.1974  -20.9660  -46.3657 H         1 UNK         0.3000 
    145 H145        0.5581  -23.4293  -43.7687 H         1 UNK         0.0600 
    146 H146        2.7576  -23.2152  -44.9287 H         1 UNK         0.0600 
    147 H147        2.5059  -21.4846  -45.1140 H         1 UNK         0.0600 
    148 H148        2.6768  -22.1864  -43.5069 H         1 UNK         0.0600 
    149 H149        0.6641  -20.5930  -43.6684 H         1 UNK         0.3000 
    150 H150       -2.8508  -20.0558  -43.0678 H         1 UNK         0.0600 
    151 H151       -1.8081  -20.6464  -40.8833 H         1 UNK         0.0600 
    152 H152       -1.8692  -18.9039  -41.1031 H         1 UNK         0.0600 
    153 H153       -0.3492  -19.7682  -41.3237 H         1 UNK         0.0600 
    154 H154       -0.7425  -18.1867  -43.2428 H         1 UNK         0.3000 
    155 H155       -0.8502  -17.6385  -46.7916 H         1 UNK         0.0600 
    156 H156       -1.0948  -15.3261  -45.9035 H         1 UNK         0.0600 
    157 H157       -1.5880  -15.9569  -44.3338 H         1 UNK         0.0600 
    158 H158       -2.6022  -16.2194  -45.7435 H         1 UNK         0.0600 
    159 H159        0.8256  -16.5523  -44.7631 H         1 UNK         0.3000 
    160 H160        3.4375  -18.9901  -44.9345 H         1 UNK         0.0600 
    161 H161        3.1884  -16.0647  -45.8151 H         1 UNK         0.0600 
    162 H162        3.8268  -17.3847  -46.7803 H         1 UNK         0.0600 
    163 H163        4.6831  -16.8659  -45.3351 H         1 UNK         0.0600 
    164 H164        2.9172  -16.5948  -43.3822 H         1 UNK         0.3000 
    165 H165        1.4827  -18.2873  -40.5858 H         1 UNK         0.0600 
    166 H166        3.4212  -17.3442  -39.3625 H         1 UNK         0.0600 
    167 H167        3.9196  -18.7563  -40.2800 H         1 UNK         0.0600 
    168 H168        4.3152  -17.1466  -40.8706 H         1 UNK         0.0600 
    169 H169        2.3678  -15.6067  -40.9087 H         1 UNK         0.3000 
    170 H170       -0.2557  -14.2896  -42.8027 H         1 UNK         0.0600 
    171 H171       -1.4974  -14.4956  -40.6402 H         1 UNK         0.0600 
    172 H172       -0.0481  -14.0348  -39.7538 H         1 UNK         0.0600 
    173 H173       -0.8265  -12.8846  -40.8413 H         1 UNK         0.0600 
    174 H174        1.6397  -12.9179  -41.2435 H         1 UNK         0.3000 
    175 H175        4.0847  -12.9101  -41.7825 H         1 UNK         0.0600 
    176 H176        5.5819  -12.3230  -43.6876 H         1 UNK         0.0600 
    177 H177        5.1505  -14.0262  -43.6949 H         1 UNK         0.0600 
    178 H178        4.3831  -12.9275  -44.8281 H         1 UNK         0.0600 
    179 H179        3.3096  -10.9157  -43.7759 H         1 UNK         0.3000 
    180 H180        1.1794   -9.0898  -41.6781 H         1 UNK         0.0600 
    181 H181        4.1131   -8.2864  -42.0672 H         1 UNK         0.0600 
    182 H182        3.2742   -8.3698  -40.5227 H         1 UNK         0.0600 
    183 H183        2.7753   -7.1888  -41.7225 H         1 UNK         0.0600 
    184 H184        2.6467   -8.3434  -44.0293 H         1 UNK         0.3000 
    185 H185       -0.0172   -8.9038  -46.1621 H         1 UNK         0.0600 
    186 H186        1.3967   -6.9251  -45.5195 H         1 UNK         0.0600 
    187 H187        2.8489   -7.8223  -45.9642 H         1 UNK         0.0600 
    188 H188        1.6477   -7.4234  -47.1820 H         1 UNK         0.0600 
    189 H189        0.9773  -10.3435  -47.5345 H         1 UNK         0.3000 
    190 H190       -2.5943  -21.1707  -46.3066 H         1 UNK         0.3000 
    191 H191       -4.9342  -22.2950  -47.3814 H         1 UNK         0.0600 
    192 H192       -4.9325  -20.4024  -45.7929 H         1 UNK         0.0600 
    193 H193       -5.9496  -21.7029  -45.1911 H         1 UNK         0.0600 
    194 H194       -4.3534  -21.4484  -44.4990 H         1 UNK         0.0600 
    195 H195       -2.8262  -23.5465  -44.7537 H         1 UNK         0.3000 
    196 H196       -4.2479  -25.9254  -44.2009 H         1 UNK         0.0600 
    197 H197       -2.1064  -26.6321  -43.1203 H         1 UNK         0.0600 
    198 H198       -2.5233  -24.9790  -42.6957 H         1 UNK         0.0600 
    199 H199       -1.2657  -25.2918  -43.8901 H         1 UNK         0.0600 
    200 H200       -1.9180  -25.1993  -46.7576 H         1 UNK         0.3000 
    201 H201       -1.7535  -27.9501  -47.7506 H         1 UNK         0.0600 
    202 H202        0.1972  -26.3898  -47.8674 H         1 UNK         0.0600 
    203 H203       -0.7165  -25.3205  -48.9272 H         1 UNK         0.0600 
    204 H204       -0.2893  -26.9412  -49.4611 H         1 UNK         0.0600 
    205 H205       -4.4241  -26.8041  -47.5362 H         1 UNK         0.3000 
    206 H206       -6.3819  -26.6821  -48.5537 H         1 UNK         0.0600 
    207 H207       -5.7725  -28.9862  -49.3090 H         1 UNK         0.0600 
    208 H208       -6.8029  -28.1798  -50.4798 H         1 UNK         0.0600 
    209 H209       -5.0791  -28.3293  -50.7904 H         1 UNK         0.0600 
    210 H210       -4.9916  -24.4046  -48.7642 H         1 UNK         0.3000 
    211 H211       -4.8123  -22.4150  -49.7373 H         1 UNK         0.0600 
    212 H212       -7.0482  -23.2777  -51.6431 H         1 UNK         0.0600 
    213 H213       -6.5386  -21.6353  -51.2827 H         1 UNK         0.0600 
    214 H214       -7.2888  -22.6062  -50.0307 H         1 UNK         0.0600 
    215 H215       -2.8774  -24.0019  -50.3065 H         1 UNK         0.3000 
    216 H216       -1.2009  -24.6945  -51.5815 H         1 UNK         0.0600 
    217 H217       -0.2917  -23.0790  -53.2338 H         1 UNK         0.0600 
    218 H218       -0.8203  -22.2468  -51.7825 H         1 UNK         0.0600 
    219 H219       -1.8092  -22.1948  -53.2454 H         1 UNK         0.0600 
    220 H220       -3.1943  -26.2693  -52.0050 H         1 UNK         0.3000 
    221 H221       -4.3004  -27.7154  -53.2560 H         1 UNK         0.0600 
    222 H222       -2.1469  -27.2570  -55.3887 H         1 UNK         0.0600 
    223 H223       -2.0106  -28.3575  -54.0179 H         1 UNK         0.0600 
    224 H224       -3.2123  -28.6495  -55.2648 H         1 UNK         0.0600 
    225 H225       -5.5466  -25.4321  -53.1570 H         1 UNK         0.3000 
    226 H226       -7.0886  -24.0787  -53.9267 H         1 UNK         0.0600 
    227 H227       -8.1956  -26.2742  -54.3550 H         1 UNK         0.0600 
    228 H228       -8.7516  -25.0441  -55.4768 H         1 UNK         0.0600 
    229 H229       -7.5998  -26.2603  -56.0147 H         1 UNK         0.0600 
    230 H230       -4.5838  -23.2868  -54.8126 H         1 UNK         0.3000 
    231 H231       -4.6658  -22.5768  -57.6460 H         1 UNK         0.0600 
    232 H232       -2.7533  -21.7773  -55.3948 H         1 UNK         0.0600 
    233 H233       -2.5368  -21.3724  -57.0937 H         1 UNK         0.0600 
    234 H234       -2.5069  -23.0526  -56.5865 H         1 UNK         0.0600 
    235 H235       -5.0485  -20.8585  -54.5411 H         1 UNK         0.3000 
    236 H236       -6.8651  -18.9001  -55.3654 H         1 UNK         0.0600 
    237 H237       -5.0901  -17.8110  -56.7003 H         1 UNK         0.0600 
    238 H238       -5.3369  -16.8506  -55.2653 H         1 UNK         0.0600 
    239 H239       -3.9388  -17.9245  -55.3778 H         1 UNK         0.0600 
    240 H240       -4.4260  -17.5422  -53.3976 H         1 UNK         0.3000 
    241 H241       -5.6627  -18.3013  -50.8586 H         1 UNK         0.0600 
    242 H242       -2.4982  -20.7582  -51.7335 H         1 UNK         0.3800 
    243 H243       -2.9301  -19.5035  -52.8597 H         1 UNK         0.3800 
    244 H244       -3.1067  -16.7187  -51.4066 H         1 UNK         0.0800 
    245 H245       -4.6912  -16.0172  -51.2578 H         1 UNK         0.0800 
    246 H246       -2.4384  -15.1787  -47.9651 H         1 UNK         0.0800 
    247 H247       -2.7455  -14.6463  -49.5942 H         1 UNK         0.0800 
@<TRIPOS>BOND
     1    1    2 1    
     2    1  127 1    
     3    1  128 1    
     4    1  129 1    
     5    2    3 2    
     6    2    4 am   BACKBONE|DICT|INTERRES
     7    4    5 1    
     8    4  130 1    
     9    5    6 1    
    10    5   65 1    
    11    5  131 1    
    12    6    7 1    
    13    6  132 1    
    14    6  133 1    
    15    7    8 1    
    16    8    9 1    
    17    8  134 1    
    18    8  135 1    
    19    9   10 ar   
    20    9   14 ar   
    21   10   11 ar   
    22   10  136 1    
    23   11   12 ar   
    24   11  126 1    
    25   12   13 ar   
    26   12  137 1    
    27   13   14 ar   
    28   13   15 1    
    29   14  138 1    
    30   15   16 1    
    31   15  139 1    
    32   15  140 1    
    33   16   17 1    
    34   17   18 1    
    35   17  141 1    
    36   17  142 1    
    37   18   19 1    
    38   18   67 1    
    39   18  143 1    
    40   19   20 am   BACKBONE|DICT|INTERRES
    41   19  144 1    
    42   20   21 2    
    43   20   22 1    
    44   22   23 1    
    45   22   24 1    
    46   22  145 1    
    47   23  146 1    
    48   23  147 1    
    49   23  148 1    
    50   24   25 am   BACKBONE|DICT|INTERRES
    51   24  149 1    
    52   25   26 2    
    53   25   27 1    
    54   27   28 1    
    55   27   29 1    
    56   27  150 1    
    57   28  151 1    
    58   28  152 1    
    59   28  153 1    
    60   29   30 am   BACKBONE|DICT|INTERRES
    61   29  154 1    
    62   30   31 2    
    63   30   32 1    
    64   32   33 1    
    65   32   34 1    
    66   32  155 1    
    67   33  156 1    
    68   33  157 1    
    69   33  158 1    
    70   34   35 am   BACKBONE|DICT|INTERRES
    71   34  159 1    
    72   35   36 2    
    73   35   37 1    
    74   37   38 1    
    75   37   39 1    
    76   37  160 1    
    77   38  161 1    
    78   38  162 1    
    79   38  163 1    
    80   39   40 am   BACKBONE|DICT|INTERRES
    81   39  164 1    
    82   40   41 2    
    83   40   42 1    
    84   42   43 1    
    85   42   44 1    
    86   42  165 1    
    87   43  166 1    
    88   43  167 1    
    89   43  168 1    
    90   44   45 am   BACKBONE|DICT|INTERRES
    91   44  169 1    
    92   45   46 2    
    93   45   47 1    
    94   47   48 1    
    95   47   49 1    
    96   47  170 1    
    97   48  171 1    
    98   48  172 1    
    99   48  173 1    
   100   49   50 am   BACKBONE|DICT|INTERRES
   101   49  174 1    
   102   50   51 2    
   103   50   52 1    
   104   52   53 1    
   105   52   54 1    
   106   52  175 1    
   107   53  176 1    
   108   53  177 1    
   109   53  178 1    
   110   54   55 am   BACKBONE|DICT|INTERRES
   111   54  179 1    
   112   55   56 2    
   113   55   57 1    
   114   57   58 1    
   115   57   59 1    
   116   57  180 1    
   117   58  181 1    
   118   58  182 1    
   119   58  183 1    
   120   59   60 am   BACKBONE|DICT|INTERRES
   121   59  184 1    
   122   60   61 2    
   123   60   62 1    
   124   62   63 1    
   125   62   64 1    
   126   62  185 1    
   127   63  186 1    
   128   63  187 1    
   129   63  188 1    
   130   64   65 am   BACKBONE|DICT|INTERRES
   131   64  189 1    
   132   65   66 2    
   133   67   68 2    
   134   67   69 am   BACKBONE|DICT|INTERRES
   135   69   70 1    
   136   69  190 1    
   137   70   71 1    
   138   70   72 1    
   139   70  191 1    
   140   71  192 1    
   141   71  193 1    
   142   71  194 1    
   143   72   73 2    
   144   72   74 am   BACKBONE|DICT|INTERRES
   145   74   75 1    
   146   74  195 1    
   147   75   76 1    
   148   75   77 1    
   149   75  196 1    
   150   76  197 1    
   151   76  198 1    
   152   76  199 1    
   153   77   78 2    
   154   77   79 am   BACKBONE|DICT|INTERRES
   155   79   80 1    
   156   79  200 1    
   157   80   81 1    
   158   80   82 1    
   159   80  201 1    
   160   81  202 1    
   161   81  203 1    
   162   81  204 1    
   163   82   83 2    
   164   82   84 am   BACKBONE|DICT|INTERRES
   165   84   85 1    
   166   84  205 1    
   167   85   86 1    
   168   85   87 1    
   169   85  206 1    
   170   86  207 1    
   171   86  208 1    
   172   86  209 1    
   173   87   88 2    
   174   87   89 am   BACKBONE|DICT|INTERRES
   175   89   90 1    
   176   89  210 1    
   177   90   91 1    
   178   90   92 1    
   179   90  211 1    
   180   91  212 1    
   181   91  213 1    
   182   91  214 1    
   183   92   93 2    
   184   92   94 am   BACKBONE|DICT|INTERRES
   185   94   95 1    
   186   94  215 1    
   187   95   96 1    
   188   95   97 1    
   189   95  216 1    
   190   96  217 1    
   191   96  218 1    
   192   96  219 1    
   193   97   98 2    
   194   97   99 am   BACKBONE|DICT|INTERRES
   195   99  100 1    
   196   99  220 1    
   197  100  101 1    
   198  100  102 1    
   199  100  221 1    
   200  101  222 1    
   201  101  223 1    
   202  101  224 1    
   203  102  103 2    
   204  102  104 am   BACKBONE|DICT|INTERRES
   205  104  105 1    
   206  104  225 1    
   207  105  106 1    
   208  105  107 1    
   209  105  226 1    
   210  106  227 1    
   211  106  228 1    
   212  106  229 1    
   213  107  108 2    
   214  107  109 am   BACKBONE|DICT|INTERRES
   215  109  110 1    
   216  109  230 1    
   217  110  111 1    
   218  110  112 1    
   219  110  231 1    
   220  111  232 1    
   221  111  233 1    
   222  111  234 1    
   223  112  113 2    
   224  112  114 am   BACKBONE|DICT|INTERRES
   225  114  115 1    
   226  114  235 1    
   227  115  116 1    
   228  115  117 1    
   229  115  236 1    
   230  116  237 1    
   231  116  238 1    
   232  116  239 1    
   233  117  118 2    
   234  117  119 am   BACKBONE|DICT|INTERRES
   235  119  120 1    
   236  119  240 1    
   237  120  121 1    
   238  120  124 1    
   239  120  241 1    
   240  121  122 am   BACKBONE|DICT|INTERRES
   241  121  123 2    
   242  122  242 1    
   243  122  243 1    
   244  124  125 1    
   245  124  244 1    
   246  124  245 1    
   247  125  126 1    
   248  126  246 1    
   249  126  247 1    
@<TRIPOS>SUBSTRUCTURE
     1 UNK         1 GROUP             0       ****    0 ROOT    
