@<TRIPOS>MOLECULE
3R540
247   249    1
SMALL
USER_CHARGES


@<TRIPOS>ATOM
      1 CA          3.3624   -9.7385  -47.5403 C.3       0 UNK        -0.1800 
      2 C           2.0739  -10.3406  -46.9997 C.2       0 UNK         0.5000 
      3 O           1.7965  -10.2278  -45.8056 O.2       0 UNK        -0.5000 
      4 N           1.2882  -10.9916  -47.8651 N.am      1 UNK        -0.5000 
      5 CA          0.0025  -11.6035  -47.5176 C.3       1 UNK         0.1400 
      6 C6         -0.5545  -12.4715  -48.6700 C.3       23 UNK        -0.0398 
      7 S7          0.5019  -13.9023  -49.0559 S.3       23 UNK        -0.2404 
      8 C8         -0.3908  -14.5598  -50.5001 C.3       23 UNK        -0.0205 
      9 C9         -0.1039  -16.0378  -50.6961 C.ar      23 UNK        -0.0193 
     10 C10         0.7392  -16.4788  -51.7208 C.ar      23 UNK        -0.1150 
     11 C11         0.9944  -17.8441  -51.8882 C.ar      23 UNK        -0.0193 
     12 C12         0.4081  -18.7663  -51.0143 C.ar      23 UNK        -0.1150 
     13 C13        -0.4343  -18.3326  -49.9866 C.ar      23 UNK        -0.0193 
     14 C14        -0.6930  -16.9696  -49.8394 C.ar      23 UNK        -0.1150 
     15 C15        -1.0418  -19.3226  -49.0096 C.3       23 UNK        -0.0205 
     16 S16        -2.6680  -19.8983  -49.5709 S.3       23 UNK        -0.2404 
     17 C17        -3.3701  -20.6441  -48.0611 C.3       23 UNK        -0.0398 
     18 CA         -2.6214  -21.9183  -47.5996 C.3       11 UNK         0.1400 
     19 N          -1.3853  -21.6134  -46.8721 N.am      11 UNK        -0.5000 
     20 C          -0.3797  -22.4841  -46.7030 C.2       10 UNK         0.5000 
     21 O          -0.4019  -23.6330  -47.1383 O.2       10 UNK        -0.5000 
     22 CA          0.8375  -22.0182  -45.8799 C.3       10 UNK         0.1400 
     23 CB          1.8805  -21.3647  -46.7984 C.3       10 UNK        -0.1800 
     24 N           0.4996  -21.0912  -44.8003 N.am      10 UNK        -0.5000 
     25 C          -0.3739  -21.3361  -43.8138 C.2       9 UNK         0.5000 
     26 O          -0.9396  -22.4189  -43.6598 O.2       9 UNK        -0.5000 
     27 CA         -0.7253  -20.1608  -42.8812 C.3       9 UNK         0.1400 
     28 CB          0.1115  -20.2292  -41.5976 C.3       9 UNK        -0.1800 
     29 N          -0.5724  -18.8397  -43.5032 N.am      9 UNK        -0.5000 
     30 C          -1.2524  -18.4183  -44.5816 C.2       8 UNK         0.5000 
     31 O          -2.0505  -19.1216  -45.2025 O.2       8 UNK        -0.5000 
     32 CA         -0.9674  -16.9885  -45.0671 C.3       8 UNK         0.1400 
     33 CB         -1.7275  -15.9595  -44.2179 C.3       8 UNK        -0.1800 
     34 N           0.4623  -16.6906  -45.0323 N.am      8 UNK        -0.5000 
     35 C           1.3261  -17.0558  -45.9898 C.2       7 UNK         0.5000 
     36 O           0.9998  -17.6465  -47.0159 O.2       7 UNK        -0.5000 
     37 CA          2.8123  -16.7388  -45.7446 C.3       7 UNK         0.1400 
     38 CB          3.1159  -15.2855  -46.1386 C.3       7 UNK        -0.1800 
     39 N           3.2202  -16.9630  -44.3574 N.am      7 UNK        -0.5000 
     40 C           3.1674  -18.1457  -43.7257 C.2       6 UNK         0.5000 
     41 O           2.8172  -19.1961  -44.2633 O.2       6 UNK        -0.5000 
     42 CA          3.5189  -18.1526  -42.2259 C.3       6 UNK         0.1400 
     43 CB          5.0121  -18.4522  -42.0292 C.3       6 UNK        -0.1800 
     44 N           3.1866  -16.9106  -41.5273 N.am      6 UNK        -0.5000 
     45 C           1.9922  -16.3016  -41.4954 C.2       5 UNK         0.5000 
     46 O           0.9804  -16.7409  -42.0459 O.2       5 UNK        -0.5000 
     47 CA          1.9320  -14.9590  -40.7397 C.3       5 UNK         0.1400 
     48 CB          2.8589  -14.9297  -39.5067 C.3       5 UNK        -0.1800 
     49 N           2.1912  -13.7733  -41.5667 N.am      5 UNK        -0.5000 
     50 C           3.1380  -13.5587  -42.4931 C.2       4 UNK         0.5000 
     51 O           3.8863  -14.4365  -42.9264 O.2       4 UNK        -0.5000 
     52 CA          3.3023  -12.1048  -43.0019 C.3       4 UNK         0.1400 
     53 CB          4.1013  -12.0209  -44.3153 C.3       4 UNK        -0.1800 
     54 N           2.0513  -11.3537  -43.1598 N.am      4 UNK        -0.5000 
     55 C           1.3054  -10.8465  -42.1696 C.2       3 UNK         0.5000 
     56 O           1.5554  -11.0181  -40.9761 O.2       3 UNK        -0.5000 
     57 CA          0.0640  -10.0266  -42.5653 C.3       3 UNK         0.1400 
     58 CB          0.4345   -8.5455  -42.7357 C.3       3 UNK        -0.1800 
     59 N          -0.6127  -10.4897  -43.7782 N.am      3 UNK        -0.5000 
     60 C          -1.2065  -11.6810  -43.9394 C.2       2 UNK         0.5000 
     61 O          -1.1730  -12.5757  -43.0951 O.2       2 UNK        -0.5000 
     62 CA         -2.0057  -11.9024  -45.2434 C.3       2 UNK         0.1400 
     63 CB         -3.4874  -12.1552  -44.9213 C.3       2 UNK        -0.1800 
     64 N          -1.9273  -10.7528  -46.1540 N.am      2 UNK        -0.5000 
     65 C          -1.0425  -10.5249  -47.1358 C.2       1 UNK         0.5000 
     66 O          -1.0710   -9.4738  -47.7775 O.2       1 UNK        -0.5000 
     67 C          -3.5381  -22.8420  -46.7772 C.2       11 UNK         0.5000 
     68 O          -4.1903  -23.7101  -47.3589 O.2       11 UNK        -0.5000 
     69 N          -3.5431  -22.6765  -45.4468 N.am      12 UNK        -0.5000 
     70 CA         -4.2461  -23.5621  -44.5193 C.3       12 UNK         0.1400 
     71 CB         -4.3407  -22.9043  -43.1340 C.3       12 UNK        -0.1800 
     72 C          -3.5695  -24.9416  -44.4412 C.2       12 UNK         0.5000 
     73 O          -4.2603  -25.9587  -44.4998 O.2       12 UNK        -0.5000 
     74 N          -2.2296  -24.9513  -44.3752 N.am      13 UNK        -0.5000 
     75 CA         -1.3972  -26.1576  -44.3916 C.3       13 UNK         0.1400 
     76 CB          0.0669  -25.7694  -44.1377 C.3       13 UNK        -0.1800 
     77 C          -1.5298  -26.9655  -45.6981 C.2       13 UNK         0.5000 
     78 O          -1.5663  -28.1953  -45.6529 O.2       13 UNK        -0.5000 
     79 N          -1.6439  -26.2589  -46.8308 N.am      14 UNK        -0.5000 
     80 CA         -1.8887  -26.8225  -48.1598 C.3       14 UNK         0.1400 
     81 CB         -1.4292  -25.8075  -49.2197 C.3       14 UNK        -0.1800 
     82 C          -3.3582  -27.2225  -48.4074 C.2       14 UNK         0.5000 
     83 O          -3.6599  -27.7113  -49.4959 O.2       14 UNK        -0.5000 
     84 N          -4.2531  -26.9830  -47.4358 N.am      15 UNK        -0.5000 
     85 CA         -5.6951  -27.2540  -47.4788 C.3       15 UNK         0.1400 
     86 CB         -5.9605  -28.7734  -47.4499 C.3       15 UNK        -0.1800 
     87 C          -6.4015  -26.5364  -48.6496 C.2       15 UNK         0.5000 
     88 O          -7.2302  -27.1323  -49.3396 O.2       15 UNK        -0.5000 
     89 N          -6.0254  -25.2668  -48.8579 N.am      16 UNK        -0.5000 
     90 CA         -6.4892  -24.3418  -49.8951 C.3       16 UNK         0.1400 
     91 CB         -8.0129  -24.1153  -49.8159 C.3       16 UNK        -0.1800 
     92 C          -6.0174  -24.6752  -51.3265 C.2       16 UNK         0.5000 
     93 O          -6.4361  -23.9908  -52.2606 O.2       16 UNK        -0.5000 
     94 N          -5.1146  -25.6538  -51.5009 N.am      17 UNK        -0.5000 
     95 CA         -4.5040  -25.9607  -52.8005 C.3       17 UNK         0.1400 
     96 CB         -3.7340  -27.2865  -52.7229 C.3       17 UNK        -0.1800 
     97 C          -3.5867  -24.8236  -53.2894 C.2       17 UNK         0.5000 
     98 O          -3.6216  -24.4667  -54.4674 O.2       17 UNK        -0.5000 
     99 N          -2.8263  -24.2323  -52.3564 N.am      18 UNK        -0.5000 
    100 CA        -1.9770  -23.0671  -52.6073 C.3       18 UNK         0.1400 
    101 CB        -0.9590  -22.9134  -51.4689 C.3       18 UNK        -0.1800 
    102 C         -2.7837  -21.7690  -52.7947 C.2       18 UNK         0.5000 
    103 O         -2.2909  -20.8486  -53.4448 O.2       18 UNK        -0.5000 
    104 N         -4.0143  -21.7148  -52.2620 N.am      19 UNK        -0.5000 
    105 CA        -4.9200  -20.5682  -52.3923 C.3       19 UNK         0.1400 
    106 CB        -6.0832  -20.6982  -51.3972 C.3       19 UNK        -0.1800 
    107 C         -5.4405  -20.3894  -53.8299 C.2       19 UNK         0.5000 
    108 O         -5.6897  -19.2598  -54.2506 O.2       19 UNK        -0.5000 
    109 N         -5.5646  -21.5026  -54.5654 N.am      20 UNK        -0.5000 
    110 CA        -5.8791  -21.5131  -55.9925 C.3       20 UNK         0.1400 
    111 CB        -6.3944  -22.9072  -56.3814 C.3       20 UNK        -0.1800 
    112 C         -4.6667  -21.1206  -56.8597 C.2       20 UNK         0.5000 
    113 O         -4.8514  -20.5248  -57.9216 O.2       20 UNK        -0.5000 
    114 N         -3.4559  -21.4691  -56.4022 N.am      21 UNK        -0.5000 
    115 CA        -2.1981  -21.2075  -57.1007 C.3       21 UNK         0.1400 
    116 CB        -1.1224  -22.1817  -56.5943 C.3       21 UNK        -0.1800 
    117 C         -1.7238  -19.7513  -56.9492 C.2       21 UNK         0.5000 
    118 O         -1.3126  -19.1433  -57.9388 O.2       21 UNK        -0.5000 
    119 N         -1.7755  -19.2246  -55.7215 N.am      22 UNK        -0.5000 
    120 CA        -1.2475  -17.9007  -55.3546 C.3       22 UNK         0.1400 
    121 C         -1.8891  -17.2841  -54.0832 C.2       22 UNK         0.5000 
    122 N         -2.4119  -18.0673  -53.1511 N.am      22 UNK        -0.7600 
    123 O         -1.9317  -16.0636  -53.9528 O.2       22 UNK        -0.5000 
    124 C124        0.3068  -17.8653  -55.2925 C.3       23 UNK        -0.0398 
    125 S125        1.0569  -19.2188  -54.3114 S.3       23 UNK        -0.2404 
    126 C126        1.9312  -18.3254  -52.9866 C.3       23 UNK        -0.0205 
    127 H127        3.4571   -9.8841  -48.6166 H         1 UNK         0.0600 
    128 H128        4.2232  -10.2001  -47.0569 H         1 UNK         0.0600 
    129 H129        3.3890   -8.6680  -47.3376 H         1 UNK         0.0600 
    130 H130        1.5552  -11.0511  -48.8369 H         1 UNK         0.3000 
    131 H131        0.2084  -12.2472  -46.6628 H         1 UNK         0.0600 
    132 H132       -0.6836  -11.8735  -49.5745 H         1 UNK         0.0800 
    133 H133       -1.5429  -12.8575  -48.4121 H         1 UNK         0.0800 
    134 H134       -0.1158  -13.9885  -51.3881 H         1 UNK         0.0800 
    135 H135       -1.4657  -14.4267  -50.3682 H         1 UNK         0.0800 
    136 H136        1.1950  -15.7598  -52.3865 H         1 UNK         0.1150 
    137 H137        0.6108  -19.8208  -51.1341 H         1 UNK         0.1150 
    138 H138       -1.3368  -16.6305  -49.0401 H         1 UNK         0.1150 
    139 H139       -0.3725  -20.1753  -48.8967 H         1 UNK         0.0800 
    140 H140       -1.1375  -18.8626  -48.0253 H         1 UNK         0.0800 
    141 H141       -4.4098  -20.8745  -48.3001 H         1 UNK         0.0800 
    142 H142       -3.4116  -19.8959  -47.2695 H         1 UNK         0.0800 
    143 H143       -2.3557  -22.4883  -48.4898 H         1 UNK         0.0600 
    144 H144       -1.3314  -20.7025  -46.4308 H         1 UNK         0.3000 
    145 H145        1.2872  -22.9027  -45.4258 H         1 UNK         0.0600 
    146 H146        2.8000  -21.1450  -46.2557 H         1 UNK         0.0600 
    147 H147        2.1430  -22.0236  -47.6271 H         1 UNK         0.0600 
    148 H148        1.5131  -20.4299  -47.2235 H         1 UNK         0.0600 
    149 H149        0.9751  -20.1963  -44.8091 H         1 UNK         0.3000 
    150 H150       -1.7767  -20.2663  -42.6060 H         1 UNK         0.0600 
    151 H151       -0.1305  -21.1267  -41.0271 H         1 UNK         0.0600 
    152 H152       -0.0723  -19.3710  -40.9507 H         1 UNK         0.0600 
    153 H153        1.1760  -20.2676  -41.8208 H         1 UNK         0.0600 
    154 H154        0.0515  -18.1854  -43.0406 H         1 UNK         0.3000 
    155 H155       -1.3258  -16.9040  -46.0956 H         1 UNK         0.0600 
    156 H156       -1.4143  -15.9804  -43.1735 H         1 UNK         0.0600 
    157 H157       -2.8014  -16.1484  -44.2434 H         1 UNK         0.0600 
    158 H158       -1.5664  -14.9498  -44.5922 H         1 UNK         0.0600 
    159 H159        0.8208  -16.2868  -44.1763 H         1 UNK         0.3000 
    160 H160        3.4067  -17.4004  -46.3779 H         1 UNK         0.0600 
    161 H161        2.5215  -14.5822  -45.5547 H         1 UNK         0.0600 
    162 H162        2.8874  -15.1112  -47.1908 H         1 UNK         0.0600 
    163 H163        4.1682  -15.0437  -45.9877 H         1 UNK         0.0600 
    164 H164        3.5108  -16.1449  -43.8284 H         1 UNK         0.3000 
    165 H165        2.9512  -18.9519  -41.7522 H         1 UNK         0.0600 
    166 H166        5.2593  -18.5537  -40.9722 H         1 UNK         0.0600 
    167 H167        5.2910  -19.3868  -42.5179 H         1 UNK         0.0600 
    168 H168        5.6382  -17.6628  -42.4473 H         1 UNK         0.0600 
    169 H169        3.9598  -16.4338  -41.0872 H         1 UNK         0.3000 
    170 H170        0.9066  -14.8620  -40.3799 H         1 UNK         0.0600 
    171 H171        2.7123  -15.8107  -38.8802 H         1 UNK         0.0600 
    172 H172        3.9127  -14.8881  -39.7843 H         1 UNK         0.0600 
    173 H173        2.6504  -14.0575  -38.8869 H         1 UNK         0.0600 
    174 H174        1.6546  -12.9533  -41.3039 H         1 UNK         0.3000 
    175 H175        3.8953  -11.5950  -42.2400 H         1 UNK         0.0600 
    176 H176        3.5608  -12.4771  -45.1441 H         1 UNK         0.0600 
    177 H177        4.3051  -10.9838  -44.5815 H         1 UNK         0.0600 
    178 H178        5.0660  -12.5227  -44.2315 H         1 UNK         0.0600 
    179 H179        1.7931  -11.1131  -44.1136 H         1 UNK         0.3000 
    180 H180       -0.6504  -10.1044  -41.7431 H         1 UNK         0.0600 
    181 H181       -0.4507   -7.9341  -42.9119 H         1 UNK         0.0600 
    182 H182        1.1179   -8.3973  -43.5731 H         1 UNK         0.0600 
    183 H183        0.9227   -8.1580  -41.8404 H         1 UNK         0.0600 
    184 H184       -0.6575   -9.8303  -44.5414 H         1 UNK         0.3000 
    185 H185       -1.6319  -12.8066  -45.7231 H         1 UNK         0.0600 
    186 H186       -4.0621  -12.3403  -45.8290 H         1 UNK         0.0600 
    187 H187       -3.6072  -13.0305  -44.2812 H         1 UNK         0.0600 
    188 H188       -3.9390  -11.3070  -44.4051 H         1 UNK         0.0600 
    189 H189       -2.6073  -10.0291  -45.9705 H         1 UNK         0.3000 
    190 H190       -2.9459  -21.9706  -45.0402 H         1 UNK         0.3000 
    191 H191       -5.2628  -23.7085  -44.8910 H         1 UNK         0.0600 
    192 H192       -4.9102  -23.5308  -42.4465 H         1 UNK         0.0600 
    193 H193       -4.8466  -21.9403  -43.1896 H         1 UNK         0.0600 
    194 H194       -3.3594  -22.7421  -42.6888 H         1 UNK         0.0600 
    195 H195       -1.7438  -24.0630  -44.2856 H         1 UNK         0.3000 
    196 H196       -1.7272  -26.7975  -43.5706 H         1 UNK         0.0600 
    197 H197        0.4587  -25.1378  -44.9347 H         1 UNK         0.0600 
    198 H198        0.1754  -25.2283  -43.1975 H         1 UNK         0.0600 
    199 H199        0.7006  -26.6551  -44.0800 H         1 UNK         0.0600 
    200 H200       -1.5150  -25.2529  -46.7903 H         1 UNK         0.3000 
    201 H201       -1.2856  -27.7256  -48.2719 H         1 UNK         0.0600 
    202 H202       -2.0109  -24.8870  -49.1678 H         1 UNK         0.0600 
    203 H203       -1.5330  -26.2110  -50.2271 H         1 UNK         0.0600 
    204 H204       -0.3786  -25.5484  -49.0879 H         1 UNK         0.0600 
    205 H205       -3.9215  -26.5591  -46.5783 H         1 UNK         0.3000 
    206 H206       -6.1135  -26.8290  -46.5653 H         1 UNK         0.0600 
    207 H207       -5.4659  -29.2424  -46.5992 H         1 UNK         0.0600 
    208 H208       -7.0271  -28.9824  -47.3598 H         1 UNK         0.0600 
    209 H209       -5.6061  -29.2647  -48.3566 H         1 UNK         0.0600 
    210 H210       -5.3217  -24.8734  -48.2343 H         1 UNK         0.3000 
    211 H211       -6.0152  -23.3898  -49.6526 H         1 UNK         0.0600 
    212 H212       -8.3202  -23.2932  -50.4632 H         1 UNK         0.0600 
    213 H213       -8.3217  -23.8594  -48.8024 H         1 UNK         0.0600 
    214 H214       -8.5731  -24.9971  -50.1270 H         1 UNK         0.0600 
    215 H215       -4.8219  -26.2133  -50.7089 H         1 UNK         0.3000 
    216 H216       -5.3062  -26.0805  -53.5320 H         1 UNK         0.0600 
    217 H217       -2.8862  -27.2245  -52.0406 H         1 UNK         0.0600 
    218 H218       -3.3445  -27.5671  -53.7023 H         1 UNK         0.0600 
    219 H219       -4.3781  -28.0981  -52.3838 H         1 UNK         0.0600 
    220 H220       -2.8577  -24.5847  -51.4123 H         1 UNK         0.3000 
    221 H221       -1.4207  -23.2432  -53.5299 H         1 UNK         0.0600 
    222 H222       -0.3404  -23.8050  -51.3666 H         1 UNK         0.0600 
    223 H223       -1.4471  -22.7303  -50.5141 H         1 UNK         0.0600 
    224 H224       -0.2891  -22.0738  -51.6581 H         1 UNK         0.0600 
    225 H225       -4.3693  -22.5230  -51.7765 H         1 UNK         0.3000 
    226 H226       -4.3633  -19.6689  -52.1270 H         1 UNK         0.0600 
    227 H227       -6.7552  -21.5145  -51.6574 H         1 UNK         0.0600 
    228 H228       -5.7231  -20.8638  -50.3825 H         1 UNK         0.0600 
    229 H229       -6.6789  -19.7848  -51.3835 H         1 UNK         0.0600 
    230 H230       -5.3707  -22.3951  -54.1321 H         1 UNK         0.3000 
    231 H231       -6.6763  -20.7912  -56.1827 H         1 UNK         0.0600 
    232 H232       -5.6397  -23.6770  -56.2160 H         1 UNK         0.0600 
    233 H233       -6.6717  -22.9404  -57.4357 H         1 UNK         0.0600 
    234 H234       -7.2788  -23.1760  -55.8034 H         1 UNK         0.0600 
    235 H235       -3.3948  -21.9533  -55.5188 H         1 UNK         0.3000 
    236 H236       -2.3481  -21.4025  -58.1648 H         1 UNK         0.0600 
    237 H237       -1.4429  -23.2181  -56.7022 H         1 UNK         0.0600 
    238 H238       -0.1974  -22.0652  -57.1602 H         1 UNK         0.0600 
    239 H239       -0.8831  -22.0108  -55.5447 H         1 UNK         0.0600 
    240 H240       -2.0954  -19.8028  -54.9502 H         1 UNK         0.3000 
    241 H241       -1.5454  -17.2204  -56.1550 H         1 UNK         0.0600 
    242 H242       -2.7971  -17.6420  -52.3249 H         1 UNK         0.3800 
    243 H243       -2.3191  -19.0780  -53.2010 H         1 UNK         0.3800 
    244 H244        0.6585  -16.8987  -54.9279 H         1 UNK         0.0800 
    245 H245        0.7040  -17.9489  -56.3046 H         1 UNK         0.0800 
    246 H246        2.4967  -17.4959  -53.4137 H         1 UNK         0.0800 
    247 H247        2.6691  -18.9970  -52.5458 H         1 UNK         0.0800 
@<TRIPOS>BOND
     1    1    2 1    
     2    1  127 1    
     3    1  128 1    
     4    1  129 1    
     5    2    3 2    
     6    2    4 am   BACKBONE|DICT|INTERRES
     7    4    5 1    
     8    4  130 1    
     9    5    6 1    
    10    5   65 1    
    11    5  131 1    
    12    6    7 1    
    13    6  132 1    
    14    6  133 1    
    15    7    8 1    
    16    8    9 1    
    17    8  134 1    
    18    8  135 1    
    19    9   10 ar   
    20    9   14 ar   
    21   10   11 ar   
    22   10  136 1    
    23   11   12 ar   
    24   11  126 1    
    25   12   13 ar   
    26   12  137 1    
    27   13   14 ar   
    28   13   15 1    
    29   14  138 1    
    30   15   16 1    
    31   15  139 1    
    32   15  140 1    
    33   16   17 1    
    34   17   18 1    
    35   17  141 1    
    36   17  142 1    
    37   18   19 1    
    38   18   67 1    
    39   18  143 1    
    40   19   20 am   BACKBONE|DICT|INTERRES
    41   19  144 1    
    42   20   21 2    
    43   20   22 1    
    44   22   23 1    
    45   22   24 1    
    46   22  145 1    
    47   23  146 1    
    48   23  147 1    
    49   23  148 1    
    50   24   25 am   BACKBONE|DICT|INTERRES
    51   24  149 1    
    52   25   26 2    
    53   25   27 1    
    54   27   28 1    
    55   27   29 1    
    56   27  150 1    
    57   28  151 1    
    58   28  152 1    
    59   28  153 1    
    60   29   30 am   BACKBONE|DICT|INTERRES
    61   29  154 1    
    62   30   31 2    
    63   30   32 1    
    64   32   33 1    
    65   32   34 1    
    66   32  155 1    
    67   33  156 1    
    68   33  157 1    
    69   33  158 1    
    70   34   35 am   BACKBONE|DICT|INTERRES
    71   34  159 1    
    72   35   36 2    
    73   35   37 1    
    74   37   38 1    
    75   37   39 1    
    76   37  160 1    
    77   38  161 1    
    78   38  162 1    
    79   38  163 1    
    80   39   40 am   BACKBONE|DICT|INTERRES
    81   39  164 1    
    82   40   41 2    
    83   40   42 1    
    84   42   43 1    
    85   42   44 1    
    86   42  165 1    
    87   43  166 1    
    88   43  167 1    
    89   43  168 1    
    90   44   45 am   BACKBONE|DICT|INTERRES
    91   44  169 1    
    92   45   46 2    
    93   45   47 1    
    94   47   48 1    
    95   47   49 1    
    96   47  170 1    
    97   48  171 1    
    98   48  172 1    
    99   48  173 1    
   100   49   50 am   BACKBONE|DICT|INTERRES
   101   49  174 1    
   102   50   51 2    
   103   50   52 1    
   104   52   53 1    
   105   52   54 1    
   106   52  175 1    
   107   53  176 1    
   108   53  177 1    
   109   53  178 1    
   110   54   55 am   BACKBONE|DICT|INTERRES
   111   54  179 1    
   112   55   56 2    
   113   55   57 1    
   114   57   58 1    
   115   57   59 1    
   116   57  180 1    
   117   58  181 1    
   118   58  182 1    
   119   58  183 1    
   120   59   60 am   BACKBONE|DICT|INTERRES
   121   59  184 1    
   122   60   61 2    
   123   60   62 1    
   124   62   63 1    
   125   62   64 1    
   126   62  185 1    
   127   63  186 1    
   128   63  187 1    
   129   63  188 1    
   130   64   65 am   BACKBONE|DICT|INTERRES
   131   64  189 1    
   132   65   66 2    
   133   67   68 2    
   134   67   69 am   BACKBONE|DICT|INTERRES
   135   69   70 1    
   136   69  190 1    
   137   70   71 1    
   138   70   72 1    
   139   70  191 1    
   140   71  192 1    
   141   71  193 1    
   142   71  194 1    
   143   72   73 2    
   144   72   74 am   BACKBONE|DICT|INTERRES
   145   74   75 1    
   146   74  195 1    
   147   75   76 1    
   148   75   77 1    
   149   75  196 1    
   150   76  197 1    
   151   76  198 1    
   152   76  199 1    
   153   77   78 2    
   154   77   79 am   BACKBONE|DICT|INTERRES
   155   79   80 1    
   156   79  200 1    
   157   80   81 1    
   158   80   82 1    
   159   80  201 1    
   160   81  202 1    
   161   81  203 1    
   162   81  204 1    
   163   82   83 2    
   164   82   84 am   BACKBONE|DICT|INTERRES
   165   84   85 1    
   166   84  205 1    
   167   85   86 1    
   168   85   87 1    
   169   85  206 1    
   170   86  207 1    
   171   86  208 1    
   172   86  209 1    
   173   87   88 2    
   174   87   89 am   BACKBONE|DICT|INTERRES
   175   89   90 1    
   176   89  210 1    
   177   90   91 1    
   178   90   92 1    
   179   90  211 1    
   180   91  212 1    
   181   91  213 1    
   182   91  214 1    
   183   92   93 2    
   184   92   94 am   BACKBONE|DICT|INTERRES
   185   94   95 1    
   186   94  215 1    
   187   95   96 1    
   188   95   97 1    
   189   95  216 1    
   190   96  217 1    
   191   96  218 1    
   192   96  219 1    
   193   97   98 2    
   194   97   99 am   BACKBONE|DICT|INTERRES
   195   99  100 1    
   196   99  220 1    
   197  100  101 1    
   198  100  102 1    
   199  100  221 1    
   200  101  222 1    
   201  101  223 1    
   202  101  224 1    
   203  102  103 2    
   204  102  104 am   BACKBONE|DICT|INTERRES
   205  104  105 1    
   206  104  225 1    
   207  105  106 1    
   208  105  107 1    
   209  105  226 1    
   210  106  227 1    
   211  106  228 1    
   212  106  229 1    
   213  107  108 2    
   214  107  109 am   BACKBONE|DICT|INTERRES
   215  109  110 1    
   216  109  230 1    
   217  110  111 1    
   218  110  112 1    
   219  110  231 1    
   220  111  232 1    
   221  111  233 1    
   222  111  234 1    
   223  112  113 2    
   224  112  114 am   BACKBONE|DICT|INTERRES
   225  114  115 1    
   226  114  235 1    
   227  115  116 1    
   228  115  117 1    
   229  115  236 1    
   230  116  237 1    
   231  116  238 1    
   232  116  239 1    
   233  117  118 2    
   234  117  119 am   BACKBONE|DICT|INTERRES
   235  119  120 1    
   236  119  240 1    
   237  120  121 1    
   238  120  124 1    
   239  120  241 1    
   240  121  122 am   BACKBONE|DICT|INTERRES
   241  121  123 2    
   242  122  242 1    
   243  122  243 1    
   244  124  125 1    
   245  124  244 1    
   246  124  245 1    
   247  125  126 1    
   248  126  246 1    
   249  126  247 1    
@<TRIPOS>SUBSTRUCTURE
     1 UNK         1 GROUP             0       ****    0 ROOT    
