@<TRIPOS>MOLECULE
3R540
247   249    1
SMALL
USER_CHARGES


@<TRIPOS>ATOM
      1 CA          1.6344  -19.5599  -48.3255 C.3       0 UNK        -0.1800 
      2 C           0.2619  -18.9419  -48.5182 C.2       0 UNK         0.5000 
      3 O          -0.3406  -18.4835  -47.5502 O.2       0 UNK        -0.5000 
      4 N          -0.2330  -18.9057  -49.7618 N.am      1 UNK        -0.5000 
      5 CA         -1.5581  -18.3805  -50.1165 C.3       1 UNK         0.1400 
      6 C6         -1.9613  -18.7026  -51.5741 C.3       23 UNK        -0.0398 
      7 S7         -1.9787  -20.4853  -51.9660 S.3       23 UNK        -0.2404 
      8 C8         -0.7309  -20.5977  -53.2889 C.3       23 UNK        -0.0205 
      9 C9          0.6757  -20.6699  -52.7247 C.ar      23 UNK        -0.0193 
     10 C10         1.3902  -19.5025  -52.4516 C.ar      23 UNK        -0.1150 
     11 C11         2.6804  -19.5577  -51.9085 C.ar      23 UNK        -0.0193 
     12 C12         3.2504  -20.8113  -51.6568 C.ar      23 UNK        -0.1150 
     13 C13         2.5400  -21.9871  -51.9178 C.ar      23 UNK        -0.0193 
     14 C14         1.2573  -21.9090  -52.4627 C.ar      23 UNK        -0.1150 
     15 C15         3.1286  -23.3465  -51.5710 C.3       23 UNK        -0.0205 
     16 S16         3.0398  -23.7004  -49.7841 S.3       23 UNK        -0.2404 
     17 C17         1.3201  -23.2270  -49.3783 C.3       23 UNK        -0.0398 
     18 CA          0.7819  -23.8281  -48.0594 C.3       11 UNK         0.1400 
     19 N           1.7651  -23.7985  -46.9714 N.am      11 UNK        -0.5000 
     20 C           1.6223  -24.3571  -45.7617 C.2       10 UNK         0.5000 
     21 O           0.6331  -25.0136  -45.4303 O.2       10 UNK        -0.5000 
     22 CA          2.7392  -24.0866  -44.7322 C.3       10 UNK         0.1400 
     23 CB          3.6883  -25.2911  -44.6536 C.3       10 UNK        -0.1800 
     24 N           3.5266  -22.8690  -44.9804 N.am      10 UNK        -0.5000 
     25 C           3.0293  -21.6280  -45.0756 C.2       9 UNK         0.5000 
     26 O           1.8225  -21.3716  -45.0111 O.2       9 UNK        -0.5000 
     27 CA          4.0348  -20.4928  -45.3285 C.3       9 UNK         0.1400 
     28 CB          4.7181  -20.6444  -46.7037 C.3       9 UNK        -0.1800 
     29 N           3.2991  -19.2360  -45.2399 N.am      9 UNK        -0.5000 
     30 C           3.7978  -17.9983  -45.1467 C.2       8 UNK         0.5000 
     31 O           4.9992  -17.7350  -45.2046 O.2       8 UNK        -0.5000 
     32 CA          2.7794  -16.8631  -44.9123 C.3       8 UNK         0.1400 
     33 CB          2.3587  -16.2010  -46.2344 C.3       8 UNK        -0.1800 
     34 N           1.5851  -17.3293  -44.2010 N.am      8 UNK        -0.5000 
     35 C           1.5434  -17.5382  -42.8784 C.2       7 UNK         0.5000 
     36 O           2.4789  -17.2906  -42.1139 O.2       7 UNK        -0.5000 
     37 CA          0.2544  -18.1621  -42.3139 C.3       7 UNK         0.1400 
     38 CB          0.4883  -19.6365  -41.9499 C.3       7 UNK        -0.1800 
     39 N          -0.2170  -17.4500  -41.1279 N.am      7 UNK        -0.5000 
     40 C          -0.7007  -16.2025  -41.1254 C.2       6 UNK         0.5000 
     41 O          -0.8553  -15.5205  -42.1447 O.2       6 UNK        -0.5000 
     42 CA         -1.0691  -15.6287  -39.7475 C.3       6 UNK         0.1400 
     43 CB          0.1831  -15.1471  -38.9969 C.3       6 UNK        -0.1800 
     44 N          -1.9734  -14.5033  -39.9365 N.am      6 UNK        -0.5000 
     45 C          -3.0793  -14.2315  -39.2403 C.2       5 UNK         0.5000 
     46 O          -3.4295  -14.8664  -38.2446 O.2       5 UNK        -0.5000 
     47 CA         -3.9725  -13.0807  -39.7569 C.3       5 UNK         0.1400 
     48 CB         -3.5569  -11.7313  -39.1394 C.3       5 UNK        -0.1800 
     49 N          -4.0774  -13.0004  -41.2252 N.am      5 UNK        -0.5000 
     50 C          -3.1269  -12.6867  -42.1162 C.2       4 UNK         0.5000 
     51 O          -1.9787  -12.3541  -41.8146 O.2       4 UNK        -0.5000 
     52 CA         -3.4870  -12.8448  -43.5957 C.3       4 UNK         0.1400 
     53 CB         -3.4156  -11.4997  -44.3418 C.3       4 UNK        -0.1800 
     54 N          -2.5364  -13.7991  -44.1519 N.am      4 UNK        -0.5000 
     55 C          -2.6734  -14.4706  -45.2968 C.2       3 UNK         0.5000 
     56 O          -3.6448  -14.3631  -46.0492 O.2       3 UNK        -0.5000 
     57 CA         -1.5459  -15.4708  -45.6220 C.3       3 UNK         0.1400 
     58 CB         -1.9792  -16.8803  -45.1910 C.3       3 UNK        -0.1800 
     59 N          -1.1714  -15.5111  -47.0379 N.am      3 UNK        -0.5000 
     60 C          -0.8555  -14.4617  -47.8136 C.2       2 UNK         0.5000 
     61 O          -0.7568  -13.3102  -47.3869 O.2       2 UNK        -0.5000 
     62 CA         -0.5792  -14.7228  -49.3143 C.3       2 UNK         0.1400 
     63 CB          0.7821  -14.1454  -49.7365 C.3       2 UNK        -0.1800 
     64 N          -0.6225  -16.1342  -49.7044 N.am      2 UNK        -0.5000 
     65 C          -1.7332  -16.8732  -49.8310 C.2       1 UNK         0.5000 
     66 O          -2.8679  -16.4206  -49.6977 O.2       1 UNK        -0.5000 
     67 C          -0.5580  -23.1565  -47.6794 C.2       11 UNK         0.5000 
     68 O          -1.5835  -23.4854  -48.2750 O.2       11 UNK        -0.5000 
     69 N          -0.5513  -22.2764  -46.6647 N.am      12 UNK        -0.5000 
     70 CA         -1.7539  -21.6895  -46.0703 C.3       12 UNK         0.1400 
     71 CB         -1.3444  -20.6748  -44.9939 C.3       12 UNK        -0.1800 
     72 C          -2.7021  -22.7455  -45.4657 C.2       12 UNK         0.5000 
     73 O          -3.9152  -22.5409  -45.4653 O.2       12 UNK        -0.5000 
     74 N          -2.1313  -23.8609  -44.9910 N.am      13 UNK        -0.5000 
     75 CA         -2.8603  -25.0383  -44.5372 C.3       13 UNK         0.1400 
     76 CB         -2.1861  -25.6017  -43.2758 C.3       13 UNK        -0.1800 
     77 C          -2.9114  -26.0933  -45.6529 C.2       13 UNK         0.5000 
     78 O          -3.9991  -26.5528  -45.9997 O.2       13 UNK        -0.5000 
     79 N          -1.7424  -26.4510  -46.2066 N.am      14 UNK        -0.5000 
     80 CA         -1.5722  -27.5781  -47.1305 C.3       14 UNK         0.1400 
     81 CB         -0.0754  -27.8793  -47.3014 C.3       14 UNK        -0.1800 
     82 C          -2.2622  -27.4089  -48.4988 C.2       14 UNK         0.5000 
     83 O          -2.6764  -28.4101  -49.0842 O.2       14 UNK        -0.5000 
     84 N          -2.3965  -26.1634  -48.9716 N.am      15 UNK        -0.5000 
     85 CA         -3.1385  -25.7957  -50.1814 C.3       15 UNK         0.1400 
     86 CB         -2.1927  -25.0665  -51.1546 C.3       15 UNK        -0.1800 
     87 C          -4.3697  -24.9335  -49.8360 C.2       15 UNK         0.5000 
     88 O          -4.9595  -24.3330  -50.7354 O.2       15 UNK        -0.5000 
     89 N          -4.7214  -24.8570  -48.5406 N.am      16 UNK        -0.5000 
     90 CA         -5.8535  -24.1295  -47.9482 C.3       16 UNK         0.1400 
     91 CB         -7.1767  -24.8205  -48.3364 C.3       16 UNK        -0.1800 
     92 C          -5.8834  -22.6130  -48.2503 C.2       16 UNK         0.5000 
     93 O          -6.9398  -21.9906  -48.1281 O.2       16 UNK        -0.5000 
     94 N          -4.7359  -22.0554  -48.6671 N.am      17 UNK        -0.5000 
     95 CA         -4.5351  -20.6917  -49.1652 C.3       17 UNK         0.1400 
     96 CB         -4.7274  -19.6574  -48.0341 C.3       17 UNK        -0.1800 
     97 C          -5.3798  -20.3500  -50.4169 C.2       17 UNK         0.5000 
     98 O          -5.6758  -19.1763  -50.6473 O.2       17 UNK        -0.5000 
     99 N          -5.7602  -21.3737  -51.1980 N.am      18 UNK        -0.5000 
    100 CA        -6.8032  -21.3249  -52.2287 C.3       18 UNK         0.1400 
    101 CB        -6.9745  -22.7283  -52.8291 C.3       18 UNK        -0.1800 
    102 C         -6.6139  -20.2838  -53.3493 C.2       18 UNK         0.5000 
    103 O         -7.6104  -19.7963  -53.8850 O.2       18 UNK        -0.5000 
    104 N         -5.3600  -19.9565  -53.6885 N.am      19 UNK        -0.5000 
    105 CA        -5.0304  -18.9747  -54.7264 C.3       19 UNK         0.1400 
    106 CB        -3.6052  -19.2382  -55.2286 C.3       19 UNK        -0.1800 
    107 C         -5.1628  -17.5112  -54.2570 C.2       19 UNK         0.5000 
    108 O         -5.1863  -16.6166  -55.1019 O.2       19 UNK        -0.5000 
    109 N         -5.2098  -17.2885  -52.9337 N.am      20 UNK        -0.5000 
    110 CA        -5.3002  -16.0005  -52.2289 C.3       20 UNK         0.1400 
    111 CB        -6.6213  -15.2829  -52.5727 C.3       20 UNK        -0.1800 
    112 C         -4.0798  -15.0600  -52.3815 C.2       20 UNK         0.5000 
    113 O         -4.0930  -13.9682  -51.8105 O.2       20 UNK        -0.5000 
    114 N         -3.0398  -15.4872  -53.1070 N.am      21 UNK        -0.5000 
    115 CA        -1.7782  -14.7845  -53.3147 C.3       21 UNK         0.1400 
    116 CB        -1.9756  -13.5923  -54.2702 C.3       21 UNK        -0.1800 
    117 C         -0.7589  -15.7759  -53.8923 C.2       21 UNK         0.5000 
    118 O         -1.1573  -16.7898  -54.4711 O.2       21 UNK        -0.5000 
    119 N          0.5315  -15.4629  -53.7354 N.am      22 UNK        -0.5000 
    120 CA         1.6536  -16.2478  -54.2846 C.3       22 UNK         0.1400 
    121 C          2.0273  -15.8818  -55.7524 C.2       22 UNK         0.5000 
    122 N          1.4029  -14.8903  -56.3767 N.am      22 UNK        -0.7600 
    123 O          2.8957  -16.5177  -56.3434 O.2       22 UNK        -0.5000 
    124 C124        2.9034  -16.1993  -53.3646 C.3       23 UNK        -0.0398 
    125 S125        2.5846  -16.7144  -51.6375 S.3       23 UNK        -0.2404 
    126 C126        3.4791  -18.3079  -51.5290 C.3       23 UNK        -0.0205 
    127 H127        1.5806  -20.3486  -47.5769 H         1 UNK         0.0600 
    128 H128        2.0195  -19.9886  -49.2470 H         1 UNK         0.0600 
    129 H129        2.3452  -18.8083  -47.9863 H         1 UNK         0.0600 
    130 H130        0.2982  -19.3082  -50.5224 H         1 UNK         0.3000 
    131 H131       -2.2651  -18.8756  -49.4548 H         1 UNK         0.0600 
    132 H132       -2.9657  -18.3294  -51.7723 H         1 UNK         0.0800 
    133 H133       -1.3069  -18.1799  -52.2680 H         1 UNK         0.0800 
    134 H134       -0.9364  -21.4879  -53.8851 H         1 UNK         0.0800 
    135 H135       -0.8114  -19.7534  -53.9741 H         1 UNK         0.0800 
    136 H136        0.9147  -18.5557  -52.6437 H         1 UNK         0.1150 
    137 H137        4.2380  -20.8744  -51.2212 H         1 UNK         0.1150 
    138 H138        0.6989  -22.8135  -52.6602 H         1 UNK         0.1150 
    139 H139        2.6105  -24.1378  -52.1151 H         1 UNK         0.0800 
    140 H140        4.1704  -23.3876  -51.8918 H         1 UNK         0.0800 
    141 H141        0.6711  -23.5339  -50.2002 H         1 UNK         0.0800 
    142 H142        1.2777  -22.1396  -49.3521 H         1 UNK         0.0800 
    143 H143        0.5601  -24.8773  -48.2518 H         1 UNK         0.0600 
    144 H144        2.6200  -23.2986  -47.1657 H         1 UNK         0.3000 
    145 H145        2.2539  -23.9690  -43.7613 H         1 UNK         0.0600 
    146 H146        4.4214  -25.1655  -43.8566 H         1 UNK         0.0600 
    147 H147        3.1386  -26.2100  -44.4446 H         1 UNK         0.0600 
    148 H148        4.2293  -25.4378  -45.5894 H         1 UNK         0.0600 
    149 H149        4.5253  -22.9976  -45.0577 H         1 UNK         0.3000 
    150 H150        4.7862  -20.5137  -44.5370 H         1 UNK         0.0600 
    151 H151        5.3376  -21.5410  -46.7357 H         1 UNK         0.0600 
    152 H152        5.3724  -19.8015  -46.9245 H         1 UNK         0.0600 
    153 H153        3.9955  -20.7246  -47.5144 H         1 UNK         0.0600 
    154 H154        2.3008  -19.3766  -45.1453 H         1 UNK         0.3000 
    155 H155        3.2777  -16.1023  -44.3074 H         1 UNK         0.0600 
    156 H156        1.7835  -15.2937  -46.0499 H         1 UNK         0.0600 
    157 H157        1.7447  -16.8613  -46.8438 H         1 UNK         0.0600 
    158 H158        3.2284  -15.9167  -46.8280 H         1 UNK         0.0600 
    159 H159        0.7821  -17.5537  -44.7695 H         1 UNK         0.3000 
    160 H160       -0.5285  -18.1211  -43.0706 H         1 UNK         0.0600 
    161 H161        1.2103  -19.7421  -41.1392 H         1 UNK         0.0600 
    162 H162        0.8763  -20.1938  -42.8024 H         1 UNK         0.0600 
    163 H163       -0.4389  -20.1192  -41.6406 H         1 UNK         0.0600 
    164 H164       -0.0910  -17.9250  -40.2462 H         1 UNK         0.3000 
    165 H165       -1.5626  -16.4139  -39.1708 H         1 UNK         0.0600 
    166 H166        0.7094  -14.3702  -39.5532 H         1 UNK         0.0600 
    167 H167       -0.0767  -14.7406  -38.0193 H         1 UNK         0.0600 
    168 H168        0.8839  -15.9664  -38.8325 H         1 UNK         0.0600 
    169 H169       -1.7735  -13.9271  -40.7502 H         1 UNK         0.3000 
    170 H170       -4.9830  -13.2968  -39.4065 H         1 UNK         0.0600 
    171 H171       -3.6123  -11.7713  -38.0509 H         1 UNK         0.0600 
    172 H172       -2.5342  -11.4580  -39.3999 H         1 UNK         0.0600 
    173 H173       -4.2146  -10.9271  -39.4690 H         1 UNK         0.0600 
    174 H174       -4.9729  -13.2951  -41.5902 H         1 UNK         0.3000 
    175 H175       -4.4965  -13.2521  -43.6833 H         1 UNK         0.0600 
    176 H176       -3.6997  -11.6094  -45.3884 H         1 UNK         0.0600 
    177 H177       -4.0938  -10.7712  -43.8962 H         1 UNK         0.0600 
    178 H178       -2.4107  -11.0765  -44.3120 H         1 UNK         0.0600 
    179 H179       -1.7407  -13.9980  -43.5534 H         1 UNK         0.3000 
    180 H180       -0.6551  -15.1894  -45.0569 H         1 UNK         0.0600 
    181 H181       -2.8031  -17.2511  -45.8024 H         1 UNK         0.0600 
    182 H182       -2.3123  -16.8915  -44.1524 H         1 UNK         0.0600 
    183 H183       -1.1583  -17.5877  -45.2772 H         1 UNK         0.0600 
    184 H184       -1.1875  -16.4275  -47.4663 H         1 UNK         0.3000 
    185 H185       -1.3563  -14.1925  -49.8686 H         1 UNK         0.0600 
    186 H186        0.9392  -14.2511  -50.8095 H         1 UNK         0.0600 
    187 H187        0.8504  -13.0812  -49.5079 H         1 UNK         0.0600 
    188 H188        1.6053  -14.6452  -49.2243 H         1 UNK         0.0600 
    189 H189        0.2699  -16.5948  -49.8133 H         1 UNK         0.3000 
    190 H190        0.3254  -22.0576  -46.2021 H         1 UNK         0.3000 
    191 H191       -2.2836  -21.1638  -46.8649 H         1 UNK         0.0600 
    192 H192       -0.6303  -19.9498  -45.3811 H         1 UNK         0.0600 
    193 H193       -2.2101  -20.1213  -44.6283 H         1 UNK         0.0600 
    194 H194       -0.8833  -21.1698  -44.1391 H         1 UNK         0.0600 
    195 H195       -1.1252  -23.9580  -45.0597 H         1 UNK         0.3000 
    196 H196       -3.8871  -24.7732  -44.2760 H         1 UNK         0.0600 
    197 H197       -2.7052  -26.4931  -42.9212 H         1 UNK         0.0600 
    198 H198       -2.2023  -24.8727  -42.4656 H         1 UNK         0.0600 
    199 H199       -1.1459  -25.8763  -43.4545 H         1 UNK         0.0600 
    200 H200       -0.8888  -26.0073  -45.8766 H         1 UNK         0.3000 
    201 H201       -2.0276  -28.4498  -46.6556 H         1 UNK         0.0600 
    202 H202        0.4001  -28.0738  -46.3399 H         1 UNK         0.0600 
    203 H203        0.4559  -27.0561  -47.7751 H         1 UNK         0.0600 
    204 H204        0.0751  -28.7636  -47.9220 H         1 UNK         0.0600 
    205 H205       -2.0324  -25.3802  -48.4384 H         1 UNK         0.3000 
    206 H206       -3.5168  -26.6864  -50.6861 H         1 UNK         0.0600 
    207 H207       -1.2972  -25.6557  -51.3516 H         1 UNK         0.0600 
    208 H208       -2.6813  -24.8908  -52.1137 H         1 UNK         0.0600 
    209 H209       -1.8784  -24.0959  -50.7717 H         1 UNK         0.0600 
    210 H210       -4.1866  -25.4102  -47.8832 H         1 UNK         0.3000 
    211 H211       -5.7369  -24.2182  -46.8672 H         1 UNK         0.0600 
    212 H212       -7.3862  -24.7190  -49.4018 H         1 UNK         0.0600 
    213 H213       -8.0201  -24.3918  -47.7941 H         1 UNK         0.0600 
    214 H214       -7.1497  -25.8840  -48.0991 H         1 UNK         0.0600 
    215 H215       -3.9284  -22.6625  -48.7251 H         1 UNK         0.3000 
    216 H216       -3.4946  -20.6683  -49.4786 H         1 UNK         0.0600 
    217 H217       -4.1484  -19.9117  -47.1481 H         1 UNK         0.0600 
    218 H218       -5.7725  -19.5830  -47.7329 H         1 UNK         0.0600 
    219 H219       -4.4130  -18.6622  -48.3506 H         1 UNK         0.0600 
    220 H220       -5.4386  -22.3041  -50.9505 H         1 UNK         0.3000 
    221 H221       -7.7326  -21.0661  -51.7177 H         1 UNK         0.0600 
    222 H222       -6.0503  -23.0829  -53.2871 H         1 UNK         0.0600 
    223 H223       -7.2679  -23.4496  -52.0660 H         1 UNK         0.0600 
    224 H224       -7.7491  -22.7381  -53.5972 H         1 UNK         0.0600 
    225 H225       -4.5924  -20.4000  -53.2044 H         1 UNK         0.3000 
    226 H226       -5.7122  -19.1139  -55.5682 H         1 UNK         0.0600 
    227 H227       -3.4660  -20.2790  -55.5213 H         1 UNK         0.0600 
    228 H228       -3.3773  -18.6202  -56.0980 H         1 UNK         0.0600 
    229 H229       -2.8715  -18.9968  -54.4629 H         1 UNK         0.0600 
    230 H230       -5.2357  -18.0981  -52.3213 H         1 UNK         0.3000 
    231 H231       -5.3379  -16.2572  -51.1691 H         1 UNK         0.0600 
    232 H232       -7.4774  -15.9409  -52.4235 H         1 UNK         0.0600 
    233 H233       -6.6388  -14.9365  -53.6063 H         1 UNK         0.0600 
    234 H234       -6.7701  -14.4103  -51.9357 H         1 UNK         0.0600 
    235 H235       -3.0948  -16.3807  -53.5783 H         1 UNK         0.3000 
    236 H236       -1.4098  -14.4291  -52.3508 H         1 UNK         0.0600 
    237 H237       -1.0345  -13.0723  -54.4521 H         1 UNK         0.0600 
    238 H238       -2.3669  -13.9155  -55.2358 H         1 UNK         0.0600 
    239 H239       -2.6692  -12.8593  -53.8588 H         1 UNK         0.0600 
    240 H240        0.7844  -14.6117  -53.2556 H         1 UNK         0.3000 
    241 H241        1.3433  -17.2901  -54.3482 H         1 UNK         0.0600 
    242 H242        0.6819  -14.3622  -55.9138 H         1 UNK         0.3800 
    243 H243        1.6529  -14.6696  -57.3281 H         1 UNK         0.3800 
    244 H244        3.7000  -16.8194  -53.7782 H         1 UNK         0.0800 
    245 H245        3.3037  -15.1847  -53.3358 H         1 UNK         0.0800 
    246 H246        4.3905  -18.2656  -52.1262 H         1 UNK         0.0800 
    247 H247        3.8059  -18.4198  -50.4942 H         1 UNK         0.0800 
@<TRIPOS>BOND
     1    1    2 1    
     2    1  127 1    
     3    1  128 1    
     4    1  129 1    
     5    2    3 2    
     6    2    4 am   BACKBONE|DICT|INTERRES
     7    4    5 1    
     8    4  130 1    
     9    5    6 1    
    10    5   65 1    
    11    5  131 1    
    12    6    7 1    
    13    6  132 1    
    14    6  133 1    
    15    7    8 1    
    16    8    9 1    
    17    8  134 1    
    18    8  135 1    
    19    9   10 ar   
    20    9   14 ar   
    21   10   11 ar   
    22   10  136 1    
    23   11   12 ar   
    24   11  126 1    
    25   12   13 ar   
    26   12  137 1    
    27   13   14 ar   
    28   13   15 1    
    29   14  138 1    
    30   15   16 1    
    31   15  139 1    
    32   15  140 1    
    33   16   17 1    
    34   17   18 1    
    35   17  141 1    
    36   17  142 1    
    37   18   19 1    
    38   18   67 1    
    39   18  143 1    
    40   19   20 am   BACKBONE|DICT|INTERRES
    41   19  144 1    
    42   20   21 2    
    43   20   22 1    
    44   22   23 1    
    45   22   24 1    
    46   22  145 1    
    47   23  146 1    
    48   23  147 1    
    49   23  148 1    
    50   24   25 am   BACKBONE|DICT|INTERRES
    51   24  149 1    
    52   25   26 2    
    53   25   27 1    
    54   27   28 1    
    55   27   29 1    
    56   27  150 1    
    57   28  151 1    
    58   28  152 1    
    59   28  153 1    
    60   29   30 am   BACKBONE|DICT|INTERRES
    61   29  154 1    
    62   30   31 2    
    63   30   32 1    
    64   32   33 1    
    65   32   34 1    
    66   32  155 1    
    67   33  156 1    
    68   33  157 1    
    69   33  158 1    
    70   34   35 am   BACKBONE|DICT|INTERRES
    71   34  159 1    
    72   35   36 2    
    73   35   37 1    
    74   37   38 1    
    75   37   39 1    
    76   37  160 1    
    77   38  161 1    
    78   38  162 1    
    79   38  163 1    
    80   39   40 am   BACKBONE|DICT|INTERRES
    81   39  164 1    
    82   40   41 2    
    83   40   42 1    
    84   42   43 1    
    85   42   44 1    
    86   42  165 1    
    87   43  166 1    
    88   43  167 1    
    89   43  168 1    
    90   44   45 am   BACKBONE|DICT|INTERRES
    91   44  169 1    
    92   45   46 2    
    93   45   47 1    
    94   47   48 1    
    95   47   49 1    
    96   47  170 1    
    97   48  171 1    
    98   48  172 1    
    99   48  173 1    
   100   49   50 am   BACKBONE|DICT|INTERRES
   101   49  174 1    
   102   50   51 2    
   103   50   52 1    
   104   52   53 1    
   105   52   54 1    
   106   52  175 1    
   107   53  176 1    
   108   53  177 1    
   109   53  178 1    
   110   54   55 am   BACKBONE|DICT|INTERRES
   111   54  179 1    
   112   55   56 2    
   113   55   57 1    
   114   57   58 1    
   115   57   59 1    
   116   57  180 1    
   117   58  181 1    
   118   58  182 1    
   119   58  183 1    
   120   59   60 am   BACKBONE|DICT|INTERRES
   121   59  184 1    
   122   60   61 2    
   123   60   62 1    
   124   62   63 1    
   125   62   64 1    
   126   62  185 1    
   127   63  186 1    
   128   63  187 1    
   129   63  188 1    
   130   64   65 am   BACKBONE|DICT|INTERRES
   131   64  189 1    
   132   65   66 2    
   133   67   68 2    
   134   67   69 am   BACKBONE|DICT|INTERRES
   135   69   70 1    
   136   69  190 1    
   137   70   71 1    
   138   70   72 1    
   139   70  191 1    
   140   71  192 1    
   141   71  193 1    
   142   71  194 1    
   143   72   73 2    
   144   72   74 am   BACKBONE|DICT|INTERRES
   145   74   75 1    
   146   74  195 1    
   147   75   76 1    
   148   75   77 1    
   149   75  196 1    
   150   76  197 1    
   151   76  198 1    
   152   76  199 1    
   153   77   78 2    
   154   77   79 am   BACKBONE|DICT|INTERRES
   155   79   80 1    
   156   79  200 1    
   157   80   81 1    
   158   80   82 1    
   159   80  201 1    
   160   81  202 1    
   161   81  203 1    
   162   81  204 1    
   163   82   83 2    
   164   82   84 am   BACKBONE|DICT|INTERRES
   165   84   85 1    
   166   84  205 1    
   167   85   86 1    
   168   85   87 1    
   169   85  206 1    
   170   86  207 1    
   171   86  208 1    
   172   86  209 1    
   173   87   88 2    
   174   87   89 am   BACKBONE|DICT|INTERRES
   175   89   90 1    
   176   89  210 1    
   177   90   91 1    
   178   90   92 1    
   179   90  211 1    
   180   91  212 1    
   181   91  213 1    
   182   91  214 1    
   183   92   93 2    
   184   92   94 am   BACKBONE|DICT|INTERRES
   185   94   95 1    
   186   94  215 1    
   187   95   96 1    
   188   95   97 1    
   189   95  216 1    
   190   96  217 1    
   191   96  218 1    
   192   96  219 1    
   193   97   98 2    
   194   97   99 am   BACKBONE|DICT|INTERRES
   195   99  100 1    
   196   99  220 1    
   197  100  101 1    
   198  100  102 1    
   199  100  221 1    
   200  101  222 1    
   201  101  223 1    
   202  101  224 1    
   203  102  103 2    
   204  102  104 am   BACKBONE|DICT|INTERRES
   205  104  105 1    
   206  104  225 1    
   207  105  106 1    
   208  105  107 1    
   209  105  226 1    
   210  106  227 1    
   211  106  228 1    
   212  106  229 1    
   213  107  108 2    
   214  107  109 am   BACKBONE|DICT|INTERRES
   215  109  110 1    
   216  109  230 1    
   217  110  111 1    
   218  110  112 1    
   219  110  231 1    
   220  111  232 1    
   221  111  233 1    
   222  111  234 1    
   223  112  113 2    
   224  112  114 am   BACKBONE|DICT|INTERRES
   225  114  115 1    
   226  114  235 1    
   227  115  116 1    
   228  115  117 1    
   229  115  236 1    
   230  116  237 1    
   231  116  238 1    
   232  116  239 1    
   233  117  118 2    
   234  117  119 am   BACKBONE|DICT|INTERRES
   235  119  120 1    
   236  119  240 1    
   237  120  121 1    
   238  120  124 1    
   239  120  241 1    
   240  121  122 am   BACKBONE|DICT|INTERRES
   241  121  123 2    
   242  122  242 1    
   243  122  243 1    
   244  124  125 1    
   245  124  244 1    
   246  124  245 1    
   247  125  126 1    
   248  126  246 1    
   249  126  247 1    
@<TRIPOS>SUBSTRUCTURE
     1 UNK         1 GROUP             0       ****    0 ROOT    
