@<TRIPOS>MOLECULE
3R540
247   249    1
SMALL
USER_CHARGES


@<TRIPOS>ATOM
      1 CA          1.6856   -8.7732  -48.4649 C.3       0 UNK        -0.1800 
      2 C           2.2676  -10.1123  -48.0366 C.2       0 UNK         0.5000 
      3 O           2.9387  -10.1865  -47.0088 O.2       0 UNK        -0.5000 
      4 N           2.0081  -11.1723  -48.8132 N.am      1 UNK        -0.5000 
      5 CA          2.4646  -12.5429  -48.5519 C.3       1 UNK         0.1400 
      6 C6          2.1747  -13.4596  -49.7647 C.3       23 UNK        -0.0398 
      7 S7          2.9678  -15.1026  -49.6761 S.3       23 UNK        -0.2404 
      8 C8          1.5733  -16.1466  -49.1447 C.3       23 UNK        -0.0205 
      9 C9          1.6891  -17.5461  -49.7234 C.ar      23 UNK        -0.0193 
     10 C10         1.1644  -17.8170  -50.9894 C.ar      23 UNK        -0.1150 
     11 C11         1.2741  -19.0937  -51.5445 C.ar      23 UNK        -0.0193 
     12 C12         1.9066  -20.1076  -50.8213 C.ar      23 UNK        -0.1150 
     13 C13         2.4312  -19.8506  -49.5513 C.ar      23 UNK        -0.0193 
     14 C14         2.3197  -18.5666  -49.0061 C.ar      23 UNK        -0.1150 
     15 C15         3.1426  -20.9572  -48.7868 C.3       23 UNK        -0.0205 
     16 S16         1.9882  -22.2121  -48.1487 S.3       23 UNK        -0.2404 
     17 C17         1.1284  -21.2754  -46.8416 C.3       23 UNK        -0.0398 
     18 CA         -0.3937  -21.5388  -46.7999 C.3       11 UNK         0.1400 
     19 N          -0.9854  -21.0599  -45.5507 N.am      11 UNK        -0.5000 
     20 C          -2.2238  -21.3461  -45.1262 C.2       10 UNK         0.5000 
     21 O          -2.9886  -22.1121  -45.7101 O.2       10 UNK        -0.5000 
     22 CA         -2.7028  -20.6250  -43.8531 C.3       10 UNK         0.1400 
     23 CB         -2.2439  -21.3791  -42.5964 C.3       10 UNK        -0.1800 
     24 N          -2.2482  -19.2353  -43.7848 N.am      10 UNK        -0.5000 
     25 C          -2.5940  -18.2748  -44.6542 C.2       9 UNK         0.5000 
     26 O          -3.3767  -18.4482  -45.5870 O.2       9 UNK        -0.5000 
     27 CA         -1.9054  -16.9081  -44.4881 C.3       9 UNK         0.1400 
     28 CB         -2.5470  -16.1031  -43.3486 C.3       9 UNK        -0.1800 
     29 N          -0.4663  -17.0420  -44.2569 N.am      9 UNK        -0.5000 
     30 C           0.3945  -17.5475  -45.1523 C.2       8 UNK         0.5000 
     31 O           0.0758  -17.8882  -46.2908 O.2       8 UNK        -0.5000 
     32 CA          1.8415  -17.7609  -44.6818 C.3       8 UNK         0.1400 
     33 CB          2.6715  -16.4869  -44.8669 C.3       8 UNK        -0.1800 
     34 N           1.9049  -18.2016  -43.2884 N.am      8 UNK        -0.5000 
     35 C           1.5578  -19.4330  -42.8863 C.2       7 UNK         0.5000 
     36 O           1.1661  -20.3115  -43.6536 O.2       7 UNK        -0.5000 
     37 CA          1.6138  -19.7232  -41.3750 C.3       7 UNK         0.1400 
     38 CB          3.0433  -20.0852  -40.9458 C.3       7 UNK        -0.1800 
     39 N           1.1332  -18.6067  -40.5625 N.am      7 UNK        -0.5000 
     40 C          -0.1117  -18.1117  -40.6025 C.2       6 UNK         0.5000 
     41 O          -1.0113  -18.5866  -41.2937 O.2       6 UNK        -0.5000 
     42 CA         -0.3922  -16.8500  -39.7645 C.3       6 UNK         0.1400 
     43 CB         -1.0250  -17.2314  -38.4182 C.3       6 UNK        -0.1800 
     44 N           0.7902  -16.0170  -39.5221 N.am      6 UNK        -0.5000 
     45 C           1.5292  -15.4299  -40.4736 C.2       5 UNK         0.5000 
     46 O           1.3065  -15.5629  -41.6797 O.2       5 UNK        -0.5000 
     47 CA          2.7038  -14.5704  -39.9625 C.3       5 UNK         0.1400 
     48 CB          3.7661  -15.4278  -39.2420 C.3       5 UNK        -0.1800 
     49 N           3.3073  -13.7347  -41.0049 N.am      5 UNK        -0.5000 
     50 C           4.0328  -14.1061  -42.0685 C.2       4 UNK         0.5000 
     51 O           4.4069  -15.2609  -42.2804 O.2       4 UNK        -0.5000 
     52 CA          4.3922  -12.9758  -43.0600 C.3       4 UNK         0.1400 
     53 CB          5.2147  -13.4756  -44.2612 C.3       4 UNK        -0.1800 
     54 N           3.2028  -12.2759  -43.5569 N.am      4 UNK        -0.5000 
     55 C           2.5016  -11.3530  -42.8791 C.2       3 UNK         0.5000 
     56 O           2.8039  -10.9825  -41.7435 O.2       3 UNK        -0.5000 
     57 CA          1.2497  -10.7502  -43.5482 C.3       3 UNK         0.1400 
     58 CB          1.5085   -9.2990  -43.9814 C.3       3 UNK        -0.1800 
     59 N           0.7891  -11.5261  -44.6995 N.am      3 UNK        -0.5000 
     60 C           0.0910  -12.6673  -44.6092 C.2       2 UNK         0.5000 
     61 O          -0.3071  -13.1300  -43.5415 O.2       2 UNK        -0.5000 
     62 CA         -0.2147  -13.4266  -45.9180 C.3       2 UNK         0.1400 
     63 CB         -1.7147  -13.3721  -46.2465 C.3       2 UNK        -0.1800 
     64 N           0.5406  -12.9535  -47.0821 N.am      2 UNK        -0.5000 
     65 C           1.8631  -13.1007  -47.2444 C.2       1 UNK         0.5000 
     66 O           2.5980  -13.5970  -46.3928 O.2       1 UNK        -0.5000 
     67 C          -1.1380  -20.9754  -48.0298 C.2       11 UNK         0.5000 
     68 O          -1.5335  -21.7535  -48.8981 O.2       11 UNK        -0.5000 
     69 N          -1.3939  -19.6585  -48.0519 N.am      12 UNK        -0.5000 
     70 CA         -2.1694  -18.9800  -49.0974 C.3       12 UNK         0.1400 
     71 CB         -2.1442  -17.4657  -48.8477 C.3       12 UNK        -0.1800 
     72 C          -3.6250  -19.4794  -49.1996 C.2       12 UNK         0.5000 
     73 O          -4.1751  -19.5616  -50.2989 O.2       12 UNK        -0.5000 
     74 N          -4.2088  -19.8384  -48.0500 N.am      13 UNK        -0.5000 
     75 CA         -5.5393  -20.4291  -47.9173 C.3       13 UNK         0.1400 
     76 CB         -6.0399  -20.1994  -46.4821 C.3       13 UNK        -0.1800 
     77 C          -5.6035  -21.9270  -48.2877 C.2       13 UNK         0.5000 
     78 O          -6.6951  -22.4947  -48.2438 O.2       13 UNK        -0.5000 
     79 N          -4.4681  -22.5467  -48.6374 N.am      14 UNK        -0.5000 
     80 CA         -4.3759  -23.9513  -49.0337 C.3       14 UNK         0.1400 
     81 CB         -3.5075  -24.7117  -48.0199 C.3       14 UNK        -0.1800 
     82 C          -3.8000  -24.1073  -50.4470 C.2       14 UNK         0.5000 
     83 O          -4.2885  -24.9420  -51.2083 O.2       14 UNK        -0.5000 
     84 N          -2.7589  -23.3335  -50.7819 N.am      15 UNK        -0.5000 
     85 CA         -1.9774  -23.4062  -52.0248 C.3       15 UNK         0.1400 
     86 CB         -2.8468  -23.0313  -53.2431 C.3       15 UNK        -0.1800 
     87 C          -1.2482  -24.7565  -52.2149 C.2       15 UNK         0.5000 
     88 O          -0.9318  -25.1304  -53.3445 O.2       15 UNK        -0.5000 
     89 N          -1.0210  -25.4718  -51.1011 N.am      16 UNK        -0.5000 
     90 CA         -0.4150  -26.8046  -50.9818 C.3       16 UNK         0.1400 
     91 CB          1.0600  -26.7732  -51.4333 C.3       16 UNK        -0.1800 
     92 C          -1.2129  -27.9433  -51.6613 C.2       16 UNK         0.5000 
     93 O          -0.6741  -29.0401  -51.8214 O.2       16 UNK        -0.5000 
     94 N          -2.4734  -27.6844  -52.0371 N.am      17 UNK        -0.5000 
     95 CA         -3.3326  -28.6197  -52.7720 C.3       17 UNK         0.1400 
     96 CB         -3.1958  -28.3328  -54.2791 C.3       17 UNK        -0.1800 
     97 C          -4.8069  -28.5623  -52.3276 C.2       17 UNK         0.5000 
     98 O          -5.6388  -29.2416  -52.9301 O.2       17 UNK        -0.5000 
     99 N          -5.1142  -27.7356  -51.3157 N.am      18 UNK        -0.5000 
    100 CA        -6.4557  -27.3581  -50.8450 C.3       18 UNK         0.1400 
    101 CB        -7.2116  -28.5728  -50.2670 C.3       18 UNK        -0.1800 
    102 C         -7.2749  -26.5818  -51.9035 C.2       18 UNK         0.5000 
    103 O         -8.5062  -26.5873  -51.8581 O.2       18 UNK        -0.5000 
    104 N         -6.5720  -25.9257  -52.8361 N.am      19 UNK        -0.5000 
    105 CA        -7.1419  -25.1254  -53.9180 C.3       19 UNK         0.1400 
    106 CB        -6.2140  -25.2051  -55.1406 C.3       19 UNK        -0.1800 
    107 C         -7.3585  -23.6630  -53.4935 C.2       19 UNK         0.5000 
    108 O         -8.3554  -23.0650  -53.9008 O.2       19 UNK        -0.5000 
    109 N         -6.4358  -23.1404  -52.6683 N.am      20 UNK        -0.5000 
    110 CA        -6.3788  -21.7818  -52.1115 C.3       20 UNK         0.1400 
    111 CB        -7.6351  -21.5064  -51.2579 C.3       20 UNK        -0.1800 
    112 C         -6.1775  -20.6602  -53.1556 C.2       20 UNK         0.5000 
    113 O         -6.2433  -20.8924  -54.3644 O.2       20 UNK        -0.5000 
    114 N         -5.9507  -19.4429  -52.6404 N.am      21 UNK        -0.5000 
    115 CA        -5.9199  -18.1605  -53.3540 C.3       21 UNK         0.1400 
    116 CB        -7.3151  -17.8241  -53.9217 C.3       21 UNK        -0.1800 
    117 C         -4.7981  -18.0563  -54.4076 C.2       21 UNK         0.5000 
    118 O         -4.9938  -17.4602  -55.4686 O.2       21 UNK        -0.5000 
    119 N         -3.6334  -18.6292  -54.0862 N.am      22 UNK        -0.5000 
    120 CA        -2.4212  -18.5995  -54.9208 C.3       22 UNK         0.1400 
    121 C         -1.6507  -17.2446  -54.9259 C.2       22 UNK         0.5000 
    122 N         -1.9789  -16.2846  -54.0695 N.am      22 UNK        -0.7600 
    123 O         -0.7433  -17.0582  -55.7320 O.2       22 UNK        -0.5000 
    124 C124       -1.4900  -19.7953  -54.6021 C.3       23 UNK        -0.0398 
    125 S125       -1.0151  -19.8922  -52.8409 S.3       23 UNK        -0.2404 
    126 C126        0.7195  -19.3668  -52.9303 C.3       23 UNK        -0.0205 
    127 H127        2.4868   -8.0544  -48.6367 H         1 UNK         0.0600 
    128 H128        1.0359   -8.3803  -47.6827 H         1 UNK         0.0600 
    129 H129        1.1018   -8.8584  -49.3817 H         1 UNK         0.0600 
    130 H130        1.4554  -11.0415  -49.6488 H         1 UNK         0.3000 
    131 H131        3.5477  -12.4993  -48.4169 H         1 UNK         0.0600 
    132 H132        2.5606  -12.9850  -50.6681 H         1 UNK         0.0800 
    133 H133        1.1014  -13.5608  -49.9312 H         1 UNK         0.0800 
    134 H134        0.6283  -15.7079  -49.4651 H         1 UNK         0.0800 
    135 H135        1.5375  -16.1842  -48.0554 H         1 UNK         0.0800 
    136 H136        0.6760  -17.0306  -51.5480 H         1 UNK         0.1150 
    137 H137        1.9918  -21.0980  -51.2459 H         1 UNK         0.1150 
    138 H138        2.7281  -18.3565  -48.0278 H         1 UNK         0.1150 
    139 H139        3.8581  -21.4446  -49.4505 H         1 UNK         0.0800 
    140 H140        3.7258  -20.5476  -47.9604 H         1 UNK         0.0800 
    141 H141        1.3299  -20.2089  -46.9350 H         1 UNK         0.0800 
    142 H142        1.5802  -21.5826  -45.8982 H         1 UNK         0.0800 
    143 H143       -0.5366  -22.6217  -46.8110 H         1 UNK         0.0600 
    144 H144       -0.3981  -20.4737  -44.9680 H         1 UNK         0.3000 
    145 H145       -3.7943  -20.6177  -43.8652 H         1 UNK         0.0600 
    146 H146       -2.6443  -20.9189  -41.6930 H         1 UNK         0.0600 
    147 H147       -1.1571  -21.3938  -42.5099 H         1 UNK         0.0600 
    148 H148       -2.5871  -22.4142  -42.6143 H         1 UNK         0.0600 
    149 H149       -1.6415  -18.9957  -43.0042 H         1 UNK         0.3000 
    150 H150       -2.0427  -16.3509  -45.4170 H         1 UNK         0.0600 
    151 H151       -3.6043  -15.9253  -43.5484 H         1 UNK         0.0600 
    152 H152       -2.0704  -15.1305  -43.2323 H         1 UNK         0.0600 
    153 H153       -2.4790  -16.6238  -42.3939 H         1 UNK         0.0600 
    154 H154       -0.1176  -16.7806  -43.3443 H         1 UNK         0.3000 
    155 H155        2.2847  -18.5385  -45.3073 H         1 UNK         0.0600 
    156 H156        2.6990  -16.1945  -45.9162 H         1 UNK         0.0600 
    157 H157        3.7028  -16.6392  -44.5496 H         1 UNK         0.0600 
    158 H158        2.2646  -15.6484  -44.3000 H         1 UNK         0.0600 
    159 H159        2.1575  -17.5026  -42.6010 H         1 UNK         0.3000 
    160 H160        0.9690  -20.5822  -41.1781 H         1 UNK         0.0600 
    161 H161        3.7309  -19.2503  -41.0881 H         1 UNK         0.0600 
    162 H162        3.4234  -20.9268  -41.5265 H         1 UNK         0.0600 
    163 H163        3.0785  -20.3744  -39.8953 H         1 UNK         0.0600 
    164 H164        1.8086  -18.1511  -39.9674 H         1 UNK         0.3000 
    165 H165       -1.1111  -16.2454  -40.3207 H         1 UNK         0.0600 
    166 H166       -1.3175  -16.3458  -37.8538 H         1 UNK         0.0600 
    167 H167       -1.9239  -17.8319  -38.5653 H         1 UNK         0.0600 
    168 H168       -0.3389  -17.8132  -37.8013 H         1 UNK         0.0600 
    169 H169        1.0333  -15.8637  -38.5540 H         1 UNK         0.3000 
    170 H170        2.2885  -13.8711  -39.2353 H         1 UNK         0.0600 
    171 H171        4.6198  -14.8229  -38.9360 H         1 UNK         0.0600 
    172 H172        3.3584  -15.8851  -38.3402 H         1 UNK         0.0600 
    173 H173        4.1372  -16.2360  -39.8728 H         1 UNK         0.0600 
    174 H174        3.0474  -12.7534  -40.9721 H         1 UNK         0.3000 
    175 H175        5.0133  -12.2607  -42.5167 H         1 UNK         0.0600 
    176 H176        4.6737  -14.2281  -44.8350 H         1 UNK         0.0600 
    177 H177        5.4660  -12.6575  -44.9365 H         1 UNK         0.0600 
    178 H178        6.1520  -13.9259  -43.9326 H         1 UNK         0.0600 
    179 H179        2.8742  -12.5618  -44.4719 H         1 UNK         0.3000 
    180 H180        0.4551  -10.7360  -42.7991 H         1 UNK         0.0600 
    181 H181        0.6360   -8.8689  -44.4735 H         1 UNK         0.0600 
    182 H182        2.3534   -9.2248  -44.6652 H         1 UNK         0.0600 
    183 H183        1.7359   -8.6723  -43.1182 H         1 UNK         0.0600 
    184 H184        1.1074  -11.2201  -45.6082 H         1 UNK         0.3000 
    185 H185        0.0552  -14.4707  -45.7467 H         1 UNK         0.0600 
    186 H186       -2.0399  -12.3554  -46.4700 H         1 UNK         0.0600 
    187 H187       -1.9529  -14.0000  -47.1054 H         1 UNK         0.0600 
    188 H188       -2.3147  -13.7306  -45.4094 H         1 UNK         0.0600 
    189 H189        0.0101  -12.4900  -47.8053 H         1 UNK         0.3000 
    190 H190       -1.0112  -19.0677  -47.3181 H         1 UNK         0.3000 
    191 H191       -1.6783  -19.1792  -50.0508 H         1 UNK         0.0600 
    192 H192       -1.1228  -17.0975  -48.7793 H         1 UNK         0.0600 
    193 H193       -2.6528  -17.2004  -47.9206 H         1 UNK         0.0600 
    194 H194       -2.6336  -16.9273  -49.6601 H         1 UNK         0.0600 
    195 H195       -3.7071  -19.6660  -47.1846 H         1 UNK         0.3000 
    196 H196       -6.2149  -19.9033  -48.5944 H         1 UNK         0.0600 
    197 H197       -6.0447  -19.1386  -46.2307 H         1 UNK         0.0600 
    198 H198       -5.4137  -20.7138  -45.7533 H         1 UNK         0.0600 
    199 H199       -7.0594  -20.5655  -46.3558 H         1 UNK         0.0600 
    200 H200       -3.6030  -22.0205  -48.6221 H         1 UNK         0.3000 
    201 H201       -5.3635  -24.4164  -49.0444 H         1 UNK         0.0600 
    202 H202       -3.9520  -24.6780  -47.0250 H         1 UNK         0.0600 
    203 H203       -2.5049  -24.2885  -47.9462 H         1 UNK         0.0600 
    204 H204       -3.4064  -25.7622  -48.2958 H         1 UNK         0.0600 
    205 H205       -2.3753  -22.6978  -50.0818 H         1 UNK         0.3000 
    206 H206       -1.1907  -22.6581  -51.9281 H         1 UNK         0.0600 
    207 H207       -3.6109  -23.7799  -53.4463 H         1 UNK         0.0600 
    208 H208       -3.3428  -22.0726  -53.0941 H         1 UNK         0.0600 
    209 H209       -2.2375  -22.9465  -54.1428 H         1 UNK         0.0600 
    210 H210       -1.3154  -25.0557  -50.2295 H         1 UNK         0.3000 
    211 H211       -0.4229  -27.0381  -49.9163 H         1 UNK         0.0600 
    212 H212        1.1516  -26.6197  -52.5088 H         1 UNK         0.0600 
    213 H213        1.5645  -27.7101  -51.1945 H         1 UNK         0.0600 
    214 H214        1.6089  -25.9758  -50.9323 H         1 UNK         0.0600 
    215 H215       -2.8280  -26.7469  -51.9047 H         1 UNK         0.3000 
    216 H216       -3.0087  -29.6455  -52.5851 H         1 UNK         0.0600 
    217 H217       -3.7922  -29.0272  -54.8721 H         1 UNK         0.0600 
    218 H218       -2.1614  -28.4359  -54.6075 H         1 UNK         0.0600 
    219 H219       -3.5245  -27.3220  -54.5244 H         1 UNK         0.0600 
    220 H220       -4.3613  -27.2118  -50.8934 H         1 UNK         0.3000 
    221 H221       -6.2968  -26.6571  -50.0247 H         1 UNK         0.0600 
    222 H222       -7.4953  -29.2836  -51.0432 H         1 UNK         0.0600 
    223 H223       -6.6048  -29.1015  -49.5319 H         1 UNK         0.0600 
    224 H224       -8.1272  -28.2591  -49.7644 H         1 UNK         0.0600 
    225 H225       -5.5655  -25.9270  -52.7435 H         1 UNK         0.3000 
    226 H226       -8.1108  -25.5406  -54.2039 H         1 UNK         0.0600 
    227 H227       -6.0999  -26.2346  -55.4808 H         1 UNK         0.0600 
    228 H228       -6.6185  -24.6296  -55.9743 H         1 UNK         0.0600 
    229 H229       -5.2203  -24.8128  -54.9235 H         1 UNK         0.0600 
    230 H230       -5.6719  -23.7448  -52.3956 H         1 UNK         0.3000 
    231 H231       -5.5082  -21.7661  -51.4549 H         1 UNK         0.0600 
    232 H232       -7.4997  -20.6289  -50.6257 H         1 UNK         0.0600 
    233 H233       -7.8632  -22.3471  -50.6035 H         1 UNK         0.0600 
    234 H234       -8.5141  -21.3247  -51.8771 H         1 UNK         0.0600 
    235 H235       -5.7641  -19.3807  -51.6452 H         1 UNK         0.3000 
    236 H236       -5.6873  -17.4066  -52.6007 H         1 UNK         0.0600 
    237 H237       -7.6012  -18.5065  -54.7227 H         1 UNK         0.0600 
    238 H238       -8.0795  -17.8781  -53.1465 H         1 UNK         0.0600 
    239 H239       -7.3400  -16.8127  -54.3291 H         1 UNK         0.0600 
    240 H240       -3.5450  -19.0931  -53.1929 H         1 UNK         0.3000 
    241 H241       -2.7471  -18.7359  -55.9539 H         1 UNK         0.0600 
    242 H242       -1.4786  -15.4103  -54.0902 H         1 UNK         0.3800 
    243 H243       -2.7187  -16.4246  -53.4017 H         1 UNK         0.3800 
    244 H244       -0.5999  -19.7787  -55.2334 H         1 UNK         0.0800 
    245 H245       -2.0046  -20.7200  -54.8601 H         1 UNK         0.0800 
    246 H246        0.8022  -18.4676  -53.5428 H         1 UNK         0.0800 
    247 H247        1.3078  -20.1379  -53.4300 H         1 UNK         0.0800 
@<TRIPOS>BOND
     1    1    2 1    
     2    1  127 1    
     3    1  128 1    
     4    1  129 1    
     5    2    3 2    
     6    2    4 am   BACKBONE|DICT|INTERRES
     7    4    5 1    
     8    4  130 1    
     9    5    6 1    
    10    5   65 1    
    11    5  131 1    
    12    6    7 1    
    13    6  132 1    
    14    6  133 1    
    15    7    8 1    
    16    8    9 1    
    17    8  134 1    
    18    8  135 1    
    19    9   10 ar   
    20    9   14 ar   
    21   10   11 ar   
    22   10  136 1    
    23   11   12 ar   
    24   11  126 1    
    25   12   13 ar   
    26   12  137 1    
    27   13   14 ar   
    28   13   15 1    
    29   14  138 1    
    30   15   16 1    
    31   15  139 1    
    32   15  140 1    
    33   16   17 1    
    34   17   18 1    
    35   17  141 1    
    36   17  142 1    
    37   18   19 1    
    38   18   67 1    
    39   18  143 1    
    40   19   20 am   BACKBONE|DICT|INTERRES
    41   19  144 1    
    42   20   21 2    
    43   20   22 1    
    44   22   23 1    
    45   22   24 1    
    46   22  145 1    
    47   23  146 1    
    48   23  147 1    
    49   23  148 1    
    50   24   25 am   BACKBONE|DICT|INTERRES
    51   24  149 1    
    52   25   26 2    
    53   25   27 1    
    54   27   28 1    
    55   27   29 1    
    56   27  150 1    
    57   28  151 1    
    58   28  152 1    
    59   28  153 1    
    60   29   30 am   BACKBONE|DICT|INTERRES
    61   29  154 1    
    62   30   31 2    
    63   30   32 1    
    64   32   33 1    
    65   32   34 1    
    66   32  155 1    
    67   33  156 1    
    68   33  157 1    
    69   33  158 1    
    70   34   35 am   BACKBONE|DICT|INTERRES
    71   34  159 1    
    72   35   36 2    
    73   35   37 1    
    74   37   38 1    
    75   37   39 1    
    76   37  160 1    
    77   38  161 1    
    78   38  162 1    
    79   38  163 1    
    80   39   40 am   BACKBONE|DICT|INTERRES
    81   39  164 1    
    82   40   41 2    
    83   40   42 1    
    84   42   43 1    
    85   42   44 1    
    86   42  165 1    
    87   43  166 1    
    88   43  167 1    
    89   43  168 1    
    90   44   45 am   BACKBONE|DICT|INTERRES
    91   44  169 1    
    92   45   46 2    
    93   45   47 1    
    94   47   48 1    
    95   47   49 1    
    96   47  170 1    
    97   48  171 1    
    98   48  172 1    
    99   48  173 1    
   100   49   50 am   BACKBONE|DICT|INTERRES
   101   49  174 1    
   102   50   51 2    
   103   50   52 1    
   104   52   53 1    
   105   52   54 1    
   106   52  175 1    
   107   53  176 1    
   108   53  177 1    
   109   53  178 1    
   110   54   55 am   BACKBONE|DICT|INTERRES
   111   54  179 1    
   112   55   56 2    
   113   55   57 1    
   114   57   58 1    
   115   57   59 1    
   116   57  180 1    
   117   58  181 1    
   118   58  182 1    
   119   58  183 1    
   120   59   60 am   BACKBONE|DICT|INTERRES
   121   59  184 1    
   122   60   61 2    
   123   60   62 1    
   124   62   63 1    
   125   62   64 1    
   126   62  185 1    
   127   63  186 1    
   128   63  187 1    
   129   63  188 1    
   130   64   65 am   BACKBONE|DICT|INTERRES
   131   64  189 1    
   132   65   66 2    
   133   67   68 2    
   134   67   69 am   BACKBONE|DICT|INTERRES
   135   69   70 1    
   136   69  190 1    
   137   70   71 1    
   138   70   72 1    
   139   70  191 1    
   140   71  192 1    
   141   71  193 1    
   142   71  194 1    
   143   72   73 2    
   144   72   74 am   BACKBONE|DICT|INTERRES
   145   74   75 1    
   146   74  195 1    
   147   75   76 1    
   148   75   77 1    
   149   75  196 1    
   150   76  197 1    
   151   76  198 1    
   152   76  199 1    
   153   77   78 2    
   154   77   79 am   BACKBONE|DICT|INTERRES
   155   79   80 1    
   156   79  200 1    
   157   80   81 1    
   158   80   82 1    
   159   80  201 1    
   160   81  202 1    
   161   81  203 1    
   162   81  204 1    
   163   82   83 2    
   164   82   84 am   BACKBONE|DICT|INTERRES
   165   84   85 1    
   166   84  205 1    
   167   85   86 1    
   168   85   87 1    
   169   85  206 1    
   170   86  207 1    
   171   86  208 1    
   172   86  209 1    
   173   87   88 2    
   174   87   89 am   BACKBONE|DICT|INTERRES
   175   89   90 1    
   176   89  210 1    
   177   90   91 1    
   178   90   92 1    
   179   90  211 1    
   180   91  212 1    
   181   91  213 1    
   182   91  214 1    
   183   92   93 2    
   184   92   94 am   BACKBONE|DICT|INTERRES
   185   94   95 1    
   186   94  215 1    
   187   95   96 1    
   188   95   97 1    
   189   95  216 1    
   190   96  217 1    
   191   96  218 1    
   192   96  219 1    
   193   97   98 2    
   194   97   99 am   BACKBONE|DICT|INTERRES
   195   99  100 1    
   196   99  220 1    
   197  100  101 1    
   198  100  102 1    
   199  100  221 1    
   200  101  222 1    
   201  101  223 1    
   202  101  224 1    
   203  102  103 2    
   204  102  104 am   BACKBONE|DICT|INTERRES
   205  104  105 1    
   206  104  225 1    
   207  105  106 1    
   208  105  107 1    
   209  105  226 1    
   210  106  227 1    
   211  106  228 1    
   212  106  229 1    
   213  107  108 2    
   214  107  109 am   BACKBONE|DICT|INTERRES
   215  109  110 1    
   216  109  230 1    
   217  110  111 1    
   218  110  112 1    
   219  110  231 1    
   220  111  232 1    
   221  111  233 1    
   222  111  234 1    
   223  112  113 2    
   224  112  114 am   BACKBONE|DICT|INTERRES
   225  114  115 1    
   226  114  235 1    
   227  115  116 1    
   228  115  117 1    
   229  115  236 1    
   230  116  237 1    
   231  116  238 1    
   232  116  239 1    
   233  117  118 2    
   234  117  119 am   BACKBONE|DICT|INTERRES
   235  119  120 1    
   236  119  240 1    
   237  120  121 1    
   238  120  124 1    
   239  120  241 1    
   240  121  122 am   BACKBONE|DICT|INTERRES
   241  121  123 2    
   242  122  242 1    
   243  122  243 1    
   244  124  125 1    
   245  124  244 1    
   246  124  245 1    
   247  125  126 1    
   248  126  246 1    
   249  126  247 1    
@<TRIPOS>SUBSTRUCTURE
     1 UNK         1 GROUP             0       ****    0 ROOT    
