@<TRIPOS>MOLECULE
3R540
247   249    1
SMALL
USER_CHARGES


@<TRIPOS>ATOM
      1 CA          2.4017  -11.7807  -52.1583 C.3       0 UNK        -0.1800 
      2 C           1.1049  -11.6394  -51.3650 C.2       0 UNK         0.5000 
      3 O           0.1865  -10.9634  -51.8247 O.2       0 UNK        -0.5000 
      4 N           0.9794  -12.2410  -50.1771 N.am      1 UNK        -0.5000 
      5 CA          1.9672  -13.0749  -49.4905 C.3       1 UNK         0.1400 
      6 C6          1.9879  -14.5597  -49.9595 C.3       23 UNK        -0.0398 
      7 S7          0.3530  -15.3655  -50.1041 S.3       23 UNK        -0.2404 
      8 C8          0.4546  -16.6549  -48.8249 C.3       23 UNK        -0.0205 
      9 C9          1.3174  -17.8371  -49.2378 C.ar      23 UNK        -0.0193 
     10 C10         0.8158  -18.7851  -50.1339 C.ar      23 UNK        -0.1150 
     11 C11         1.5894  -19.8874  -50.5069 C.ar      23 UNK        -0.0193 
     12 C12         2.8660  -20.0476  -49.9629 C.ar      23 UNK        -0.1150 
     13 C13         3.3757  -19.1139  -49.0568 C.ar      23 UNK        -0.0193 
     14 C14         2.5973  -18.0081  -48.6989 C.ar      23 UNK        -0.1150 
     15 C15         4.7753  -19.2944  -48.4850 C.3       23 UNK        -0.0205 
     16 S16         4.7617  -19.9917  -46.8026 S.3       23 UNK        -0.2404 
     17 C17         4.0071  -21.6314  -47.0769 C.3       23 UNK        -0.0398 
     18 CA          4.1627  -22.5796  -45.8587 C.3       11 UNK         0.1400 
     19 N           3.5142  -22.0380  -44.6568 N.am      11 UNK        -0.5000 
     20 C           3.8003  -22.3639  -43.3895 C.2       10 UNK         0.5000 
     21 O           4.7174  -23.1205  -43.0702 O.2       10 UNK        -0.5000 
     22 CA          2.8636  -21.8007  -42.2999 C.3       10 UNK         0.1400 
     23 CB          3.3624  -20.4420  -41.7847 C.3       10 UNK        -0.1800 
     24 N           1.4740  -21.6805  -42.7552 N.am      10 UNK        -0.5000 
     25 C           0.6791  -22.7252  -43.0305 C.2       9 UNK         0.5000 
     26 O           1.0209  -23.8976  -42.8753 O.2       9 UNK        -0.5000 
     27 CA         -0.7034  -22.4238  -43.6398 C.3       9 UNK         0.1400 
     28 CB         -1.7351  -22.1079  -42.5483 C.3       9 UNK        -0.1800 
     29 N          -0.6796  -21.3448  -44.6253 N.am      9 UNK        -0.5000 
     30 C           0.0147  -21.3862  -45.7714 C.2       8 UNK         0.5000 
     31 O           0.6736  -22.3581  -46.1338 O.2       8 UNK        -0.5000 
     32 CA          0.0351  -20.1063  -46.6201 C.3       8 UNK         0.1400 
     33 CB         -1.2495  -19.9986  -47.4527 C.3       8 UNK        -0.1800 
     34 N           0.2127  -18.9026  -45.8061 N.am      8 UNK        -0.5000 
     35 C           1.2529  -18.6742  -44.9917 C.2       7 UNK         0.5000 
     36 O           2.1934  -19.4515  -44.8557 O.2       7 UNK        -0.5000 
     37 CA          1.1979  -17.4102  -44.1203 C.3       7 UNK         0.1400 
     38 CB          1.6376  -16.1631  -44.9008 C.3       7 UNK        -0.1800 
     39 N          -0.1367  -17.2131  -43.5568 N.am      7 UNK        -0.5000 
     40 C          -0.6406  -17.9483  -42.5553 C.2       6 UNK         0.5000 
     41 O          -0.0005  -18.8118  -41.9546 O.2       6 UNK        -0.5000 
     42 CA         -2.1165  -17.7049  -42.1868 C.3       6 UNK         0.1400 
     43 CB         -2.2438  -16.5887  -41.1414 C.3       6 UNK        -0.1800 
     44 N          -2.9403  -17.3748  -43.3508 N.am      6 UNK        -0.5000 
     45 C          -3.2792  -18.2596  -44.2986 C.2       5 UNK         0.5000 
     46 O          -2.9607  -19.4483  -44.2658 O.2       5 UNK        -0.5000 
     47 CA         -4.0562  -17.7180  -45.5152 C.3       5 UNK         0.1400 
     48 CB         -5.5703  -17.7739  -45.2698 C.3       5 UNK        -0.1800 
     49 N          -3.6766  -16.3585  -45.9136 N.am      5 UNK        -0.5000 
     50 C          -2.4389  -15.9918  -46.2726 C.2       4 UNK         0.5000 
     51 O          -1.4815  -16.7604  -46.2482 O.2       4 UNK        -0.5000 
     52 CA         -2.1999  -14.5401  -46.7197 C.3       4 UNK         0.1400 
     53 CB         -3.4910  -13.7361  -46.9881 C.3       4 UNK        -0.1800 
     54 N          -1.3250  -13.8349  -45.7806 N.am      4 UNK        -0.5000 
     55 C          -1.5645  -13.5756  -44.4857 C.2       3 UNK         0.5000 
     56 O          -2.5666  -13.9732  -43.8887 O.2       3 UNK        -0.5000 
     57 CA         -0.5194  -12.7405  -43.7123 C.3       3 UNK         0.1400 
     58 CB         -0.0785  -13.4493  -42.4209 C.3       3 UNK        -0.1800 
     59 N           0.6733  -12.4011  -44.4913 N.am      3 UNK        -0.5000 
     60 C           0.7587  -11.4262  -45.4062 C.2       2 UNK         0.5000 
     61 O          -0.1835  -10.6974  -45.7193 O.2       2 UNK        -0.5000 
     62 CA          2.1234  -11.2349  -46.1019 C.3       2 UNK         0.1400 
     63 CB          3.3026  -11.9054  -45.3593 C.3       2 UNK        -0.1800 
     64 N           2.1043  -11.6635  -47.5048 N.am      2 UNK        -0.5000 
     65 C           1.7845  -12.8787  -47.9747 C.2       1 UNK         0.5000 
     66 O           1.3482  -13.7887  -47.2707 O.2       1 UNK        -0.5000 
     67 C           3.6797  -24.0109  -46.2116 C.2       11 UNK         0.5000 
     68 O           4.1611  -24.5736  -47.1959 O.2       11 UNK        -0.5000 
     69 N           2.7528  -24.5762  -45.4201 N.am      12 UNK        -0.5000 
     70 CA          2.1318  -25.8994  -45.5564 C.3       12 UNK         0.1400 
     71 CB          3.1807  -27.0268  -45.4549 C.3       12 UNK        -0.1800 
     72 C           1.2145  -26.0299  -46.7919 C.2       12 UNK         0.5000 
     73 O           1.0372  -27.1302  -47.3170 O.2       12 UNK        -0.5000 
     74 N           0.6170  -24.9095  -47.2098 N.am      13 UNK        -0.5000 
     75 CA         -0.3524  -24.7895  -48.2938 C.3       13 UNK         0.1400 
     76 CB          0.2302  -23.8592  -49.3734 C.3       13 UNK        -0.1800 
     77 C          -1.6779  -24.2636  -47.7136 C.2       13 UNK         0.5000 
     78 O          -2.2336  -23.2853  -48.2120 O.2       13 UNK        -0.5000 
     79 N          -2.1631  -24.9178  -46.6492 N.am      14 UNK        -0.5000 
     80 CA         -3.3344  -24.5438  -45.8438 C.3       14 UNK         0.1400 
     81 CB         -3.2635  -25.3111  -44.5091 C.3       14 UNK        -0.1800 
     82 C          -4.7058  -24.7406  -46.5394 C.2       14 UNK         0.5000 
     83 O          -5.7001  -25.0122  -45.8632 O.2       14 UNK        -0.5000 
     84 N          -4.7470  -24.6168  -47.8690 N.am      15 UNK        -0.5000 
     85 CA         -5.9538  -24.6843  -48.6876 C.3       15 UNK         0.1400 
     86 CB         -5.5701  -25.1984  -50.0836 C.3       15 UNK        -0.1800 
     87 C          -6.6553  -23.3147  -48.7575 C.2       15 UNK         0.5000 
     88 O          -6.0377  -22.2821  -48.4782 O.2       15 UNK        -0.5000 
     89 N          -7.9398  -23.3400  -49.1370 N.am      16 UNK        -0.5000 
     90 CA         -8.8460  -22.1903  -49.1997 C.3       16 UNK         0.1400 
     91 CB        -10.2068  -22.6590  -49.7364 C.3       16 UNK        -0.1800 
     92 C          -8.3153  -21.0191  -50.0481 C.2       16 UNK         0.5000 
     93 O          -7.7187  -21.2433  -51.1047 O.2       16 UNK        -0.5000 
     94 N          -8.5507  -19.7936  -49.5570 N.am      17 UNK        -0.5000 
     95 CA         -8.1418  -18.5137  -50.1483 C.3       17 UNK         0.1400 
     96 CB         -8.9489  -18.2334  -51.4336 C.3       17 UNK        -0.1800 
     97 C          -6.6162  -18.4084  -50.3593 C.2       17 UNK         0.5000 
     98 O          -6.1722  -17.9051  -51.3917 O.2       17 UNK        -0.5000 
     99 N          -5.8445  -18.9227  -49.3876 N.am      18 UNK        -0.5000 
    100 CA        -4.3799  -19.0317  -49.4010 C.3       18 UNK         0.1400 
    101 CB        -3.7351  -17.6286  -49.3960 C.3       18 UNK        -0.1800 
    102 C         -3.8823  -19.9142  -50.5641 C.2       18 UNK         0.5000 
    103 O         -2.9678  -19.5239  -51.2903 O.2       18 UNK        -0.5000 
    104 N         -4.5473  -21.0636  -50.7500 N.am      19 UNK        -0.5000 
    105 CA        -4.4125  -21.9882  -51.8802 C.3       19 UNK         0.1400 
    106 CB        -3.0412  -22.6954  -51.8454 C.3       19 UNK        -0.1800 
    107 C         -4.7123  -21.3047  -53.2307 C.2       19 UNK         0.5000 
    108 O         -3.9455  -21.4513  -54.1839 O.2       19 UNK        -0.5000 
    109 N         -5.8132  -20.5384  -53.2637 N.am      20 UNK        -0.5000 
    110 CA        -6.2637  -19.6776  -54.3641 C.3       20 UNK         0.1400 
    111 CB        -6.7811  -20.5344  -55.5377 C.3       20 UNK        -0.1800 
    112 C         -5.1885  -18.6512  -54.7865 C.2       20 UNK         0.5000 
    113 O         -4.8607  -18.5464  -55.9698 O.2       20 UNK        -0.5000 
    114 N         -4.6434  -17.9396  -53.7883 N.am      21 UNK        -0.5000 
    115 CA        -3.5092  -17.0113  -53.8669 C.3       21 UNK         0.1400 
    116 CB        -3.8931  -15.7433  -54.6572 C.3       21 UNK        -0.1800 
    117 C         -2.2245  -17.6932  -54.3884 C.2       21 UNK         0.5000 
    118 O         -1.5306  -17.1483  -55.2492 O.2       21 UNK        -0.5000 
    119 N         -1.9461  -18.8837  -53.8456 N.am      22 UNK        -0.5000 
    120 CA        -0.8451  -19.7848  -54.2029 C.3       22 UNK         0.1400 
    121 C         -0.8772  -20.2558  -55.6874 C.2       22 UNK         0.5000 
    122 N         -1.9956  -20.8062  -56.1402 N.am      22 UNK        -0.7600 
    123 O          0.0922  -20.1315  -56.4320 O.2       22 UNK        -0.5000 
    124 C124        0.5310  -19.2543  -53.7134 C.3       23 UNK        -0.0398 
    125 S125        1.6310  -20.6122  -53.1874 S.3       23 UNK        -0.2404 
    126 C126        1.0490  -20.9153  -51.4871 C.3       23 UNK        -0.0205 
    127 H127        2.3316  -11.2387  -53.1017 H         1 UNK         0.0600 
    128 H128        2.6058  -12.8242  -52.3935 H         1 UNK         0.0600 
    129 H129        3.2450  -11.3695  -51.6040 H         1 UNK         0.0600 
    130 H130        0.1128  -12.1276  -49.6700 H         1 UNK         0.3000 
    131 H131        2.9623  -12.6761  -49.6948 H         1 UNK         0.0600 
    132 H132        2.6369  -15.1492  -49.3108 H         1 UNK         0.0800 
    133 H133        2.4515  -14.6206  -50.9434 H         1 UNK         0.0800 
    134 H134        0.8090  -16.2276  -47.8887 H         1 UNK         0.0800 
    135 H135       -0.5550  -17.0067  -48.6309 H         1 UNK         0.0800 
    136 H136       -0.1790  -18.6624  -50.5402 H         1 UNK         0.1150 
    137 H137        3.4644  -20.9008  -50.2499 H         1 UNK         0.1150 
    138 H138        2.9858  -17.2875  -47.9933 H         1 UNK         0.1150 
    139 H139        5.3764  -19.9324  -49.1348 H         1 UNK         0.0800 
    140 H140        5.2810  -18.3282  -48.4592 H         1 UNK         0.0800 
    141 H141        2.9534  -21.4945  -47.3217 H         1 UNK         0.0800 
    142 H142        4.4748  -22.0645  -47.9628 H         1 UNK         0.0800 
    143 H143        5.2304  -22.6677  -45.6479 H         1 UNK         0.0600 
    144 H144        2.7997  -21.3340  -44.8188 H         1 UNK         0.3000 
    145 H145        2.8786  -22.4999  -41.4613 H         1 UNK         0.0600 
    146 H146        2.7115  -20.0538  -41.0010 H         1 UNK         0.0600 
    147 H147        3.4108  -19.6970  -42.5781 H         1 UNK         0.0600 
    148 H148        4.3638  -20.5321  -41.3623 H         1 UNK         0.0600 
    149 H149        1.1285  -20.7441  -42.9214 H         1 UNK         0.3000 
    150 H150       -1.0251  -23.3242  -44.1629 H         1 UNK         0.0600 
    151 H151       -1.4912  -21.1865  -42.0188 H         1 UNK         0.0600 
    152 H152       -2.7334  -21.9964  -42.9720 H         1 UNK         0.0600 
    153 H153       -1.7828  -22.9103  -41.8110 H         1 UNK         0.0600 
    154 H154       -1.2422  -20.5250  -44.4218 H         1 UNK         0.3000 
    155 H155        0.8836  -20.1657  -47.3039 H         1 UNK         0.0600 
    156 H156       -1.3044  -20.8057  -48.1833 H         1 UNK         0.0600 
    157 H157       -1.2849  -19.0649  -48.0067 H         1 UNK         0.0600 
    158 H158       -2.1428  -20.0553  -46.8315 H         1 UNK         0.0600 
    159 H159       -0.5005  -18.1804  -45.8922 H         1 UNK         0.3000 
    160 H160        1.9054  -17.5500  -43.2999 H         1 UNK         0.0600 
    161 H161        0.8852  -15.8516  -45.6222 H         1 UNK         0.0600 
    162 H162        2.5628  -16.3454  -45.4490 H         1 UNK         0.0600 
    163 H163        1.8217  -15.3246  -44.2311 H         1 UNK         0.0600 
    164 H164       -0.7545  -16.5944  -44.0625 H         1 UNK         0.3000 
    165 H165       -2.5002  -18.6266  -41.7437 H         1 UNK         0.0600 
    166 H166       -3.2722  -16.4918  -40.7932 H         1 UNK         0.0600 
    167 H167       -1.6225  -16.7946  -40.2687 H         1 UNK         0.0600 
    168 H168       -1.9368  -15.6256  -41.5463 H         1 UNK         0.0600 
    169 H169       -3.2106  -16.4069  -43.4666 H         1 UNK         0.3000 
    170 H170       -3.8292  -18.3757  -46.3551 H         1 UNK         0.0600 
    171 H171       -5.8842  -18.7813  -44.9928 H         1 UNK         0.0600 
    172 H172       -5.8722  -17.1022  -44.4653 H         1 UNK         0.0600 
    173 H173       -6.1253  -17.4972  -46.1665 H         1 UNK         0.0600 
    174 H174       -4.4081  -15.6630  -45.9198 H         1 UNK         0.3000 
    175 H175       -1.6503  -14.6011  -47.6602 H         1 UNK         0.0600 
    176 H176       -4.0953  -13.6036  -46.0903 H         1 UNK         0.0600 
    177 H177       -3.2541  -12.7437  -47.3721 H         1 UNK         0.0600 
    178 H178       -4.1109  -14.2289  -47.7383 H         1 UNK         0.0600 
    179 H179       -0.4263  -13.5562  -46.1594 H         1 UNK         0.3000 
    180 H180       -1.0122  -11.8092  -43.4260 H         1 UNK         0.0600 
    181 H181       -0.9154  -13.5473  -41.7295 H         1 UNK         0.0600 
    182 H182        0.6954  -12.8836  -41.9019 H         1 UNK         0.0600 
    183 H183        0.3086  -14.4493  -42.6153 H         1 UNK         0.0600 
    184 H184        1.4908  -12.9712  -44.3316 H         1 UNK         0.3000 
    185 H185        2.3108  -10.1601  -46.1077 H         1 UNK         0.0600 
    186 H186        3.3560  -11.5728  -44.3218 H         1 UNK         0.0600 
    187 H187        4.2521  -11.6430  -45.8262 H         1 UNK         0.0600 
    188 H188        3.2297  -12.9937  -45.3589 H         1 UNK         0.0600 
    189 H189        2.3826  -10.9578  -48.1724 H         1 UNK         0.3000 
    190 H190        2.4014  -24.0218  -44.6499 H         1 UNK         0.3000 
    191 H191        1.4717  -26.0001  -44.6940 H         1 UNK         0.0600 
    192 H192        2.6990  -28.0020  -45.3754 H         1 UNK         0.0600 
    193 H193        3.8075  -26.9039  -44.5716 H         1 UNK         0.0600 
    194 H194        3.8322  -27.0575  -46.3284 H         1 UNK         0.0600 
    195 H195        0.7926  -24.0410  -46.7043 H         1 UNK         0.3000 
    196 H196       -0.5571  -25.7614  -48.7466 H         1 UNK         0.0600 
    197 H197       -0.4515  -23.7613  -50.2189 H         1 UNK         0.0600 
    198 H198        1.1733  -24.2470  -49.7587 H         1 UNK         0.0600 
    199 H199        0.4168  -22.8583  -48.9813 H         1 UNK         0.0600 
    200 H200       -1.6577  -25.7326  -46.3339 H         1 UNK         0.3000 
    201 H201       -3.2508  -23.4779  -45.6209 H         1 UNK         0.0600 
    202 H202       -4.0125  -24.9457  -43.8053 H         1 UNK         0.0600 
    203 H203       -2.2931  -25.2032  -44.0265 H         1 UNK         0.0600 
    204 H204       -3.4412  -26.3775  -44.6537 H         1 UNK         0.0600 
    205 H205       -3.9117  -24.2563  -48.3181 H         1 UNK         0.3000 
    206 H206       -6.6528  -25.3966  -48.2439 H         1 UNK         0.0600 
    207 H207       -4.7507  -24.6253  -50.5125 H         1 UNK         0.0600 
    208 H208       -5.2494  -26.2392  -50.0372 H         1 UNK         0.0600 
    209 H209       -6.4109  -25.1501  -50.7767 H         1 UNK         0.0600 
    210 H210       -8.3491  -24.2300  -49.3805 H         1 UNK         0.3000 
    211 H211       -8.9833  -21.8395  -48.1749 H         1 UNK         0.0600 
    212 H212      -10.1215  -23.0629  -50.7462 H         1 UNK         0.0600 
    213 H213      -10.9196  -21.8339  -49.7729 H         1 UNK         0.0600 
    214 H214      -10.6395  -23.4313  -49.1002 H         1 UNK         0.0600 
    215 H215       -9.0500  -19.7204  -48.6813 H         1 UNK         0.3000 
    216 H216       -8.3981  -17.7394  -49.4240 H         1 UNK         0.0600 
    217 H217      -10.0205  -18.2567  -51.2362 H         1 UNK         0.0600 
    218 H218       -8.7389  -18.9653  -52.2132 H         1 UNK         0.0600 
    219 H219       -8.7171  -17.2472  -51.8376 H         1 UNK         0.0600 
    220 H220       -6.3080  -19.3603  -48.6037 H         1 UNK         0.3000 
    221 H221       -4.0938  -19.5421  -48.4809 H         1 UNK         0.0600 
    222 H222       -2.6584  -17.6940  -49.2542 H         1 UNK         0.0600 
    223 H223       -3.9000  -17.0984  -50.3340 H         1 UNK         0.0600 
    224 H224       -4.1384  -17.0116  -48.5951 H         1 UNK         0.0600 
    225 H225       -5.2705  -21.3023  -50.0788 H         1 UNK         0.3000 
    226 H226       -5.1882  -22.7428  -51.7532 H         1 UNK         0.0600 
    227 H227       -2.8692  -23.1740  -50.8823 H         1 UNK         0.0600 
    228 H228       -2.9807  -23.4699  -52.6105 H         1 UNK         0.0600 
    229 H229       -2.2208  -22.0002  -52.0177 H         1 UNK         0.0600 
    230 H230       -6.3947  -20.5256  -52.4309 H         1 UNK         0.3000 
    231 H231       -7.1049  -19.0988  -53.9818 H         1 UNK         0.0600 
    232 H232       -7.2100  -19.9067  -56.3196 H         1 UNK         0.0600 
    233 H233       -7.5610  -21.2211  -55.2087 H         1 UNK         0.0600 
    234 H234       -5.9843  -21.1245  -55.9915 H         1 UNK         0.0600 
    235 H235       -5.0329  -18.0703  -52.8566 H         1 UNK         0.3000 
    236 H236       -3.2959  -16.7072  -52.8411 H         1 UNK         0.0600 
    237 H237       -4.7897  -15.2799  -54.2456 H         1 UNK         0.0600 
    238 H238       -3.0954  -15.0010  -54.6137 H         1 UNK         0.0600 
    239 H239       -4.0799  -15.9610  -55.7090 H         1 UNK         0.0600 
    240 H240       -2.5450  -19.2161  -53.0939 H         1 UNK         0.3000 
    241 H241       -1.0659  -20.6862  -53.6320 H         1 UNK         0.0600 
    242 H242       -2.7847  -20.9510  -55.5114 H         1 UNK         0.3800 
    243 H243       -2.0523  -21.1145  -57.0971 H         1 UNK         0.3800 
    244 H244        0.4035  -18.5745  -52.8716 H         1 UNK         0.0800 
    245 H245        1.0265  -18.6615  -54.4836 H         1 UNK         0.0800 
    246 H246       -0.0414  -20.9350  -51.4570 H         1 UNK         0.0800 
    247 H247        1.3780  -21.9098  -51.1843 H         1 UNK         0.0800 
@<TRIPOS>BOND
     1    1    2 1    
     2    1  127 1    
     3    1  128 1    
     4    1  129 1    
     5    2    3 2    
     6    2    4 am   BACKBONE|DICT|INTERRES
     7    4    5 1    
     8    4  130 1    
     9    5    6 1    
    10    5   65 1    
    11    5  131 1    
    12    6    7 1    
    13    6  132 1    
    14    6  133 1    
    15    7    8 1    
    16    8    9 1    
    17    8  134 1    
    18    8  135 1    
    19    9   10 ar   
    20    9   14 ar   
    21   10   11 ar   
    22   10  136 1    
    23   11   12 ar   
    24   11  126 1    
    25   12   13 ar   
    26   12  137 1    
    27   13   14 ar   
    28   13   15 1    
    29   14  138 1    
    30   15   16 1    
    31   15  139 1    
    32   15  140 1    
    33   16   17 1    
    34   17   18 1    
    35   17  141 1    
    36   17  142 1    
    37   18   19 1    
    38   18   67 1    
    39   18  143 1    
    40   19   20 am   BACKBONE|DICT|INTERRES
    41   19  144 1    
    42   20   21 2    
    43   20   22 1    
    44   22   23 1    
    45   22   24 1    
    46   22  145 1    
    47   23  146 1    
    48   23  147 1    
    49   23  148 1    
    50   24   25 am   BACKBONE|DICT|INTERRES
    51   24  149 1    
    52   25   26 2    
    53   25   27 1    
    54   27   28 1    
    55   27   29 1    
    56   27  150 1    
    57   28  151 1    
    58   28  152 1    
    59   28  153 1    
    60   29   30 am   BACKBONE|DICT|INTERRES
    61   29  154 1    
    62   30   31 2    
    63   30   32 1    
    64   32   33 1    
    65   32   34 1    
    66   32  155 1    
    67   33  156 1    
    68   33  157 1    
    69   33  158 1    
    70   34   35 am   BACKBONE|DICT|INTERRES
    71   34  159 1    
    72   35   36 2    
    73   35   37 1    
    74   37   38 1    
    75   37   39 1    
    76   37  160 1    
    77   38  161 1    
    78   38  162 1    
    79   38  163 1    
    80   39   40 am   BACKBONE|DICT|INTERRES
    81   39  164 1    
    82   40   41 2    
    83   40   42 1    
    84   42   43 1    
    85   42   44 1    
    86   42  165 1    
    87   43  166 1    
    88   43  167 1    
    89   43  168 1    
    90   44   45 am   BACKBONE|DICT|INTERRES
    91   44  169 1    
    92   45   46 2    
    93   45   47 1    
    94   47   48 1    
    95   47   49 1    
    96   47  170 1    
    97   48  171 1    
    98   48  172 1    
    99   48  173 1    
   100   49   50 am   BACKBONE|DICT|INTERRES
   101   49  174 1    
   102   50   51 2    
   103   50   52 1    
   104   52   53 1    
   105   52   54 1    
   106   52  175 1    
   107   53  176 1    
   108   53  177 1    
   109   53  178 1    
   110   54   55 am   BACKBONE|DICT|INTERRES
   111   54  179 1    
   112   55   56 2    
   113   55   57 1    
   114   57   58 1    
   115   57   59 1    
   116   57  180 1    
   117   58  181 1    
   118   58  182 1    
   119   58  183 1    
   120   59   60 am   BACKBONE|DICT|INTERRES
   121   59  184 1    
   122   60   61 2    
   123   60   62 1    
   124   62   63 1    
   125   62   64 1    
   126   62  185 1    
   127   63  186 1    
   128   63  187 1    
   129   63  188 1    
   130   64   65 am   BACKBONE|DICT|INTERRES
   131   64  189 1    
   132   65   66 2    
   133   67   68 2    
   134   67   69 am   BACKBONE|DICT|INTERRES
   135   69   70 1    
   136   69  190 1    
   137   70   71 1    
   138   70   72 1    
   139   70  191 1    
   140   71  192 1    
   141   71  193 1    
   142   71  194 1    
   143   72   73 2    
   144   72   74 am   BACKBONE|DICT|INTERRES
   145   74   75 1    
   146   74  195 1    
   147   75   76 1    
   148   75   77 1    
   149   75  196 1    
   150   76  197 1    
   151   76  198 1    
   152   76  199 1    
   153   77   78 2    
   154   77   79 am   BACKBONE|DICT|INTERRES
   155   79   80 1    
   156   79  200 1    
   157   80   81 1    
   158   80   82 1    
   159   80  201 1    
   160   81  202 1    
   161   81  203 1    
   162   81  204 1    
   163   82   83 2    
   164   82   84 am   BACKBONE|DICT|INTERRES
   165   84   85 1    
   166   84  205 1    
   167   85   86 1    
   168   85   87 1    
   169   85  206 1    
   170   86  207 1    
   171   86  208 1    
   172   86  209 1    
   173   87   88 2    
   174   87   89 am   BACKBONE|DICT|INTERRES
   175   89   90 1    
   176   89  210 1    
   177   90   91 1    
   178   90   92 1    
   179   90  211 1    
   180   91  212 1    
   181   91  213 1    
   182   91  214 1    
   183   92   93 2    
   184   92   94 am   BACKBONE|DICT|INTERRES
   185   94   95 1    
   186   94  215 1    
   187   95   96 1    
   188   95   97 1    
   189   95  216 1    
   190   96  217 1    
   191   96  218 1    
   192   96  219 1    
   193   97   98 2    
   194   97   99 am   BACKBONE|DICT|INTERRES
   195   99  100 1    
   196   99  220 1    
   197  100  101 1    
   198  100  102 1    
   199  100  221 1    
   200  101  222 1    
   201  101  223 1    
   202  101  224 1    
   203  102  103 2    
   204  102  104 am   BACKBONE|DICT|INTERRES
   205  104  105 1    
   206  104  225 1    
   207  105  106 1    
   208  105  107 1    
   209  105  226 1    
   210  106  227 1    
   211  106  228 1    
   212  106  229 1    
   213  107  108 2    
   214  107  109 am   BACKBONE|DICT|INTERRES
   215  109  110 1    
   216  109  230 1    
   217  110  111 1    
   218  110  112 1    
   219  110  231 1    
   220  111  232 1    
   221  111  233 1    
   222  111  234 1    
   223  112  113 2    
   224  112  114 am   BACKBONE|DICT|INTERRES
   225  114  115 1    
   226  114  235 1    
   227  115  116 1    
   228  115  117 1    
   229  115  236 1    
   230  116  237 1    
   231  116  238 1    
   232  116  239 1    
   233  117  118 2    
   234  117  119 am   BACKBONE|DICT|INTERRES
   235  119  120 1    
   236  119  240 1    
   237  120  121 1    
   238  120  124 1    
   239  120  241 1    
   240  121  122 am   BACKBONE|DICT|INTERRES
   241  121  123 2    
   242  122  242 1    
   243  122  243 1    
   244  124  125 1    
   245  124  244 1    
   246  124  245 1    
   247  125  126 1    
   248  126  246 1    
   249  126  247 1    
@<TRIPOS>SUBSTRUCTURE
     1 UNK         1 GROUP             0       ****    0 ROOT    
