@<TRIPOS>MOLECULE
3R540
247   249    1
SMALL
USER_CHARGES


@<TRIPOS>ATOM
      1 CA         -5.7087  -15.0852  -42.6686 C.3       0 UNK        -0.1800 
      2 C          -4.5286  -14.9143  -43.6139 C.2       0 UNK         0.5000 
      3 O          -4.4669  -13.9258  -44.3455 O.2       0 UNK        -0.5000 
      4 N          -3.5791  -15.8616  -43.5892 N.am      1 UNK        -0.5000 
      5 CA         -2.3872  -15.8902  -44.4531 C.3       1 UNK         0.1400 
      6 C6         -1.6190  -17.2372  -44.3475 C.3       23 UNK        -0.0398 
      7 S7         -1.2755  -17.9782  -45.9772 S.3       23 UNK        -0.2404 
      8 C8          0.3822  -17.3254  -46.3442 C.3       23 UNK        -0.0205 
      9 C9          0.8950  -17.8843  -47.6592 C.ar      23 UNK        -0.0193 
     10 C10         0.5365  -17.2915  -48.8730 C.ar      23 UNK        -0.1150 
     11 C11         0.9576  -17.8486  -50.0839 C.ar      23 UNK        -0.0193 
     12 C12         1.7239  -19.0181  -50.0717 C.ar      23 UNK        -0.1150 
     13 C13         2.0908  -19.6227  -48.8657 C.ar      23 UNK        -0.0193 
     14 C14         1.6999  -19.0239  -47.6624 C.ar      23 UNK        -0.1150 
     15 C15         2.8882  -20.9285  -48.8958 C.3       23 UNK        -0.0205 
     16 S16         2.4811  -22.1120  -47.5592 S.3       23 UNK        -0.2404 
     17 C17         0.6622  -22.1541  -47.6762 C.3       23 UNK        -0.0398 
     18 CA         -0.0007  -23.3177  -46.9112 C.3       11 UNK         0.1400 
     19 N           0.3865  -23.3579  -45.4975 N.am      11 UNK        -0.5000 
     20 C           0.0850  -24.3588  -44.6572 C.2       10 UNK         0.5000 
     21 O          -0.5145  -25.3756  -45.0022 O.2       10 UNK        -0.5000 
     22 CA          0.4493  -24.1654  -43.1710 C.3       10 UNK         0.1400 
     23 CB          1.8592  -24.7045  -42.8894 C.3       10 UNK        -0.1800 
     24 N           0.3744  -22.7703  -42.7330 N.am      10 UNK        -0.5000 
     25 C          -0.7021  -21.9779  -42.8330 C.2       9 UNK         0.5000 
     26 O          -1.7999  -22.3845  -43.2146 O.2       9 UNK        -0.5000 
     27 CA         -0.5226  -20.4781  -42.5122 C.3       9 UNK         0.1400 
     28 CB         -1.4038  -20.0614  -41.3252 C.3       9 UNK        -0.1800 
     29 N           0.8613  -20.0636  -42.2501 N.am      9 UNK        -0.5000 
     30 C           1.8548  -20.0586  -43.1490 C.2       8 UNK         0.5000 
     31 O           1.7180  -20.4330  -44.3159 O.2       8 UNK        -0.5000 
     32 CA          3.2410  -19.6479  -42.6144 C.3       8 UNK         0.1400 
     33 CB          3.8637  -20.8036  -41.8135 C.3       8 UNK        -0.1800 
     34 N           4.1650  -19.2798  -43.6855 N.am      8 UNK        -0.5000 
     35 C           4.0861  -18.1601  -44.4122 C.2       7 UNK         0.5000 
     36 O           3.2680  -17.2606  -44.1954 O.2       7 UNK        -0.5000 
     37 CA          5.0908  -18.0189  -45.5698 C.3       7 UNK         0.1400 
     38 CB          5.2770  -19.3319  -46.3599 C.3       7 UNK        -0.1800 
     39 N           4.6196  -16.9484  -46.4392 N.am      7 UNK        -0.5000 
     40 C           5.3229  -16.2984  -47.3715 C.2       6 UNK         0.5000 
     41 O           6.4866  -16.5689  -47.6709 O.2       6 UNK        -0.5000 
     42 CA          4.6073  -15.1293  -48.0764 C.3       6 UNK         0.1400 
     43 CB          3.9379  -15.6121  -49.3709 C.3       6 UNK        -0.1800 
     44 N           3.6031  -14.4773  -47.2299 N.am      6 UNK        -0.5000 
     45 C           3.8907  -13.7041  -46.1723 C.2       5 UNK         0.5000 
     46 O           5.0429  -13.4687  -45.8035 O.2       5 UNK        -0.5000 
     47 CA          2.6981  -13.1038  -45.3940 C.3       5 UNK         0.1400 
     48 CB          3.0643  -11.7928  -44.6682 C.3       5 UNK        -0.1800 
     49 N           1.4796  -12.9259  -46.1929 N.am      5 UNK        -0.5000 
     50 C           1.3154  -12.1684  -47.2894 C.2       4 UNK         0.5000 
     51 O           2.2097  -11.5077  -47.8177 O.2       4 UNK        -0.5000 
     52 CA         -0.1004  -12.1429  -47.8873 C.3       4 UNK         0.1400 
     53 CB         -0.4167  -13.4709  -48.5948 C.3       4 UNK        -0.1800 
     54 N          -1.0927  -11.9043  -46.8406 N.am      4 UNK        -0.5000 
     55 C          -1.6087  -10.7064  -46.5315 C.2       3 UNK         0.5000 
     56 O          -1.3687   -9.6741  -47.1589 O.2       3 UNK        -0.5000 
     57 CA         -2.5457  -10.6435  -45.3067 C.3       3 UNK         0.1400 
     58 CB         -4.0081  -10.8284  -45.7384 C.3       3 UNK        -0.1800 
     59 N          -2.2148  -11.6419  -44.2880 N.am      3 UNK        -0.5000 
     60 C          -1.1017  -11.6134  -43.5386 C.2       2 UNK         0.5000 
     61 O          -0.3151  -10.6667  -43.5345 O.2       2 UNK        -0.5000 
     62 CA         -0.7900  -12.8481  -42.6645 C.3       2 UNK         0.1400 
     63 CB         -1.0758  -12.5459  -41.1857 C.3       2 UNK        -0.1800 
     64 N          -1.5157  -14.0635  -43.0443 N.am      2 UNK        -0.5000 
     65 C          -1.4432  -14.6874  -44.2292 C.2       1 UNK         0.5000 
     66 O          -0.7087  -14.3129  -45.1428 O.2       1 UNK        -0.5000 
     67 C          -1.5291  -23.2109  -47.0921 C.2       11 UNK         0.5000 
     68 O          -2.0588  -23.7456  -48.0655 O.2       11 UNK        -0.5000 
     69 N          -2.2132  -22.5091  -46.1773 N.am      12 UNK        -0.5000 
     70 CA         -3.6681  -22.3584  -46.1835 C.3       12 UNK         0.1400 
     71 CB         -4.0741  -21.1100  -45.3855 C.3       12 UNK        -0.1800 
     72 C          -4.3556  -23.6218  -45.6454 C.2       12 UNK         0.5000 
     73 O          -5.3752  -24.0316  -46.1980 O.2       12 UNK        -0.5000 
     74 N          -3.7499  -24.2573  -44.6309 N.am      13 UNK        -0.5000 
     75 CA         -4.1643  -25.5590  -44.0980 C.3       13 UNK         0.1400 
     76 CB         -3.3594  -25.8735  -42.8283 C.3       13 UNK        -0.1800 
     77 C          -4.0270  -26.6943  -45.1339 C.2       13 UNK         0.5000 
     78 O          -4.8956  -27.5638  -45.2054 O.2       13 UNK        -0.5000 
     79 N          -2.9660  -26.6329  -45.9510 N.am      14 UNK        -0.5000 
     80 CA         -2.7236  -27.5104  -47.0997 C.3       14 UNK         0.1400 
     81 CB         -1.2355  -27.4233  -47.4760 C.3       14 UNK        -0.1800 
     82 C          -3.6031  -27.1858  -48.3275 C.2       14 UNK         0.5000 
     83 O          -3.5839  -27.9484  -49.2940 O.2       14 UNK        -0.5000 
     84 N          -4.3344  -26.0620  -48.2796 N.am      15 UNK        -0.5000 
     85 CA         -5.2154  -25.5081  -49.3132 C.3       15 UNK         0.1400 
     86 CB         -6.3796  -26.4680  -49.6329 C.3       15 UNK        -0.1800 
     87 C          -4.4794  -25.0165  -50.5786 C.2       15 UNK         0.5000 
     88 O          -5.1143  -24.8230  -51.6156 O.2       15 UNK        -0.5000 
     89 N          -3.1674  -24.7725  -50.4681 N.am      16 UNK        -0.5000 
     90 CA         -2.3366  -24.1887  -51.5188 C.3       16 UNK         0.1400 
     91 CB         -0.8600  -24.5268  -51.2576 C.3       16 UNK        -0.1800 
     92 C          -2.5513  -22.6698  -51.5956 C.2       16 UNK         0.5000 
     93 O          -2.8166  -22.1440  -52.6749 O.2       16 UNK        -0.5000 
     94 N          -2.4993  -22.0005  -50.4346 N.am      17 UNK        -0.5000 
     95 CA         -2.7455  -20.5594  -50.3131 C.3       17 UNK         0.1400 
     96 CB         -2.1139  -20.0263  -49.0200 C.3       17 UNK        -0.1800 
     97 C          -4.2405  -20.1920  -50.3952 C.2       17 UNK         0.5000 
     98 O          -4.5691  -19.0200  -50.5752 O.2       17 UNK        -0.5000 
     99 N          -5.1202  -21.1959  -50.2667 N.am      18 UNK        -0.5000 
    100 CA        -6.5663  -21.0611  -50.4420 C.3       18 UNK         0.1400 
    101 CB        -7.2668  -22.2597  -49.7841 C.3       18 UNK        -0.1800 
    102 C         -6.9771  -20.9409  -51.9237 C.2       18 UNK         0.5000 
    103 O         -8.0445  -20.3954  -52.2075 O.2       18 UNK        -0.5000 
    104 N         -6.1380  -21.4465  -52.8396 N.am      19 UNK        -0.5000 
    105 CA        -6.3119  -21.3075  -54.2838 C.3       19 UNK         0.1400 
    106 CB        -5.4535  -22.3642  -54.9961 C.3       19 UNK        -0.1800 
    107 C         -5.9128  -19.8952  -54.7439 C.2       19 UNK         0.5000 
    108 O         -5.0111  -19.2929  -54.1578 O.2       19 UNK        -0.5000 
    109 N         -6.5532  -19.4098  -55.8158 N.am      20 UNK        -0.5000 
    110 CA        -6.3460  -18.0712  -56.3839 C.3       20 UNK         0.1400 
    111 CB        -7.3743  -17.8370  -57.5012 C.3       20 UNK        -0.1800 
    112 C         -4.9168  -17.8147  -56.9050 C.2       20 UNK         0.5000 
    113 O         -4.4676  -16.6680  -56.9059 O.2       20 UNK        -0.5000 
    114 N         -4.2243  -18.8848  -57.3182 N.am      21 UNK        -0.5000 
    115 CA        -2.8213  -18.8600  -57.7352 C.3       21 UNK         0.1400 
    116 CB        -2.5286  -20.1298  -58.5500 C.3       21 UNK        -0.1800 
    117 C         -1.8351  -18.7418  -56.5540 C.2       21 UNK         0.5000 
    118 O         -0.6876  -18.3506  -56.7700 O.2       21 UNK        -0.5000 
    119 N         -2.2867  -19.0883  -55.3398 N.am      22 UNK        -0.5000 
    120 CA        -1.5081  -19.1039  -54.0906 C.3       22 UNK         0.1400 
    121 C         -0.3439  -20.1467  -54.0579 C.2       22 UNK         0.5000 
    122 N         -0.3742  -21.1896  -54.8794 N.am      22 UNK        -0.7600 
    123 O          0.5960  -20.0275  -53.2787 O.2       22 UNK        -0.5000 
    124 C124       -1.0916  -17.6718  -53.6414 C.3       23 UNK        -0.0398 
    125 S125       -1.1560  -17.4581  -51.8276 S.3       23 UNK        -0.2404 
    126 C126        0.5935  -17.1880  -51.4048 C.3       23 UNK        -0.0205 
    127 H127       -5.7669  -14.2382  -41.9851 H         1 UNK         0.0600 
    128 H128       -5.6257  -15.9964  -42.0759 H         1 UNK         0.0600 
    129 H129       -6.6384  -15.1315  -43.2356 H         1 UNK         0.0600 
    130 H130       -3.6867  -16.6428  -42.9581 H         1 UNK         0.3000 
    131 H131       -2.7662  -15.7818  -45.4719 H         1 UNK         0.0600 
    132 H132       -0.6929  -17.1548  -43.7742 H         1 UNK         0.0800 
    133 H133       -2.2189  -17.9718  -43.8091 H         1 UNK         0.0800 
    134 H134        0.3581  -16.2384  -46.3956 H         1 UNK         0.0800 
    135 H135        1.0578  -17.5896  -45.5309 H         1 UNK         0.0800 
    136 H136       -0.0871  -16.4100  -48.8797 H         1 UNK         0.1150 
    137 H137        2.0285  -19.4637  -51.0085 H         1 UNK         0.1150 
    138 H138        1.9726  -19.4760  -46.7202 H         1 UNK         0.1150 
    139 H139        2.7282  -21.4361  -49.8484 H         1 UNK         0.0800 
    140 H140        3.9516  -20.6929  -48.8505 H         1 UNK         0.0800 
    141 H141        0.3945  -22.1939  -48.7341 H         1 UNK         0.0800 
    142 H142        0.2777  -21.2088  -47.2921 H         1 UNK         0.0800 
    143 H143        0.3205  -24.2545  -47.3712 H         1 UNK         0.0600 
    144 H144        0.8918  -22.5537  -45.1463 H         1 UNK         0.3000 
    145 H145       -0.2647  -24.7374  -42.5761 H         1 UNK         0.0600 
    146 H146        2.0990  -24.6484  -41.8274 H         1 UNK         0.0600 
    147 H147        1.9431  -25.7511  -43.1857 H         1 UNK         0.0600 
    148 H148        2.6201  -24.1459  -43.4362 H         1 UNK         0.0600 
    149 H149        1.2355  -22.3516  -42.4171 H         1 UNK         0.3000 
    150 H150       -0.8650  -19.9374  -43.3958 H         1 UNK         0.0600 
    151 H151       -1.1003  -20.5620  -40.4050 H         1 UNK         0.0600 
    152 H152       -2.4502  -20.3117  -41.5055 H         1 UNK         0.0600 
    153 H153       -1.3552  -18.9855  -41.1559 H         1 UNK         0.0600 
    154 H154        1.0620  -19.7716  -41.3041 H         1 UNK         0.3000 
    155 H155        3.1157  -18.7873  -41.9538 H         1 UNK         0.0600 
    156 H156        4.0007  -21.6932  -42.4301 H         1 UNK         0.0600 
    157 H157        3.2355  -21.0842  -40.9672 H         1 UNK         0.0600 
    158 H158        4.8371  -20.5233  -41.4101 H         1 UNK         0.0600 
    159 H159        4.8377  -19.9826  -43.9533 H         1 UNK         0.3000 
    160 H160        6.0484  -17.7171  -45.1416 H         1 UNK         0.0600 
    161 H161        4.3192  -19.7525  -46.6596 H         1 UNK         0.0600 
    162 H162        5.7909  -20.0844  -45.7616 H         1 UNK         0.0600 
    163 H163        5.8730  -19.1864  -47.2603 H         1 UNK         0.0600 
    164 H164        3.6911  -16.6189  -46.2086 H         1 UNK         0.3000 
    165 H165        5.3630  -14.3868  -48.3413 H         1 UNK         0.0600 
    166 H166        3.4320  -14.7965  -49.8880 H         1 UNK         0.0600 
    167 H167        4.6749  -16.0278  -50.0590 H         1 UNK         0.0600 
    168 H168        3.2054  -16.3923  -49.1704 H         1 UNK         0.0600 
    169 H169        2.6351  -14.6131  -47.4786 H         1 UNK         0.3000 
    170 H170        2.4457  -13.8401  -44.6294 H         1 UNK         0.0600 
    171 H171        3.8802  -11.9478  -43.9614 H         1 UNK         0.0600 
    172 H172        3.3795  -11.0182  -45.3678 H         1 UNK         0.0600 
    173 H173        2.2187  -11.4069  -44.1005 H         1 UNK         0.0600 
    174 H174        0.6703  -13.4416  -45.8506 H         1 UNK         0.3000 
    175 H175       -0.1385  -11.3471  -48.6343 H         1 UNK         0.0600 
    176 H176        0.3343  -13.7030  -49.3512 H         1 UNK         0.0600 
    177 H177       -0.4490  -14.3045  -47.8934 H         1 UNK         0.0600 
    178 H178       -1.3822  -13.4253  -49.0987 H         1 UNK         0.0600 
    179 H179       -1.3037  -12.6911  -46.2386 H         1 UNK         0.3000 
    180 H180       -2.4449   -9.6520  -44.8602 H         1 UNK         0.0600 
    181 H181       -4.1712  -11.8045  -46.1972 H         1 UNK         0.0600 
    182 H182       -4.2995  -10.0701  -46.4662 H         1 UNK         0.0600 
    183 H183       -4.6850  -10.7412  -44.8883 H         1 UNK         0.0600 
    184 H184       -2.8315  -12.4434  -44.2233 H         1 UNK         0.3000 
    185 H185        0.2767  -13.0548  -42.7731 H         1 UNK         0.0600 
    186 H186       -0.5255  -11.6651  -40.8519 H         1 UNK         0.0600 
    187 H187       -2.1358  -12.3559  -41.0127 H         1 UNK         0.0600 
    188 H188       -0.7735  -13.3760  -40.5469 H         1 UNK         0.0600 
    189 H189       -2.1633  -14.4279  -42.3610 H         1 UNK         0.3000 
    190 H190       -1.7282  -22.1458  -45.3677 H         1 UNK         0.3000 
    191 H191       -4.0020  -22.2147  -47.2136 H         1 UNK         0.0600 
    192 H192       -3.5836  -20.2169  -45.7729 H         1 UNK         0.0600 
    193 H193       -5.1499  -20.9434  -45.4509 H         1 UNK         0.0600 
    194 H194       -3.8233  -21.1978  -44.3288 H         1 UNK         0.0600 
    195 H195       -2.9385  -23.8218  -44.2065 H         1 UNK         0.3000 
    196 H196       -5.2184  -25.4847  -43.8229 H         1 UNK         0.0600 
    197 H197       -3.7097  -26.7970  -42.3659 H         1 UNK         0.0600 
    198 H198       -3.4604  -25.0792  -42.0884 H         1 UNK         0.0600 
    199 H199       -2.2987  -25.9992  -43.0435 H         1 UNK         0.0600 
    200 H200       -2.2476  -25.9421  -45.7568 H         1 UNK         0.3000 
    201 H201       -2.9427  -28.5380  -46.8033 H         1 UNK         0.0600 
    202 H202       -0.9965  -28.0989  -48.2982 H         1 UNK         0.0600 
    203 H203       -0.5989  -27.6996  -46.6353 H         1 UNK         0.0600 
    204 H204       -0.9596  -26.4157  -47.7885 H         1 UNK         0.0600 
    205 H205       -4.2855  -25.5139  -47.4307 H         1 UNK         0.3000 
    206 H206       -5.6513  -24.6152  -48.8657 H         1 UNK         0.0600 
    207 H207       -6.8868  -26.7883  -48.7228 H         1 UNK         0.0600 
    208 H208       -7.1252  -25.9824  -50.2635 H         1 UNK         0.0600 
    209 H209       -6.0390  -27.3590  -50.1604 H         1 UNK         0.0600 
    210 H210       -2.7392  -24.8620  -49.5527 H         1 UNK         0.3000 
    211 H211       -2.6198  -24.6227  -52.4802 H         1 UNK         0.0600 
    212 H212       -0.5120  -24.1338  -50.3020 H         1 UNK         0.0600 
    213 H213       -0.2219  -24.1069  -52.0363 H         1 UNK         0.0600 
    214 H214       -0.7002  -25.6051  -51.2517 H         1 UNK         0.0600 
    215 H215       -2.3138  -22.5196  -49.5830 H         1 UNK         0.3000 
    216 H216       -2.2474  -20.0626  -51.1448 H         1 UNK         0.0600 
    217 H217       -2.2684  -18.9504  -48.9269 H         1 UNK         0.0600 
    218 H218       -1.0372  -20.1873  -49.0157 H         1 UNK         0.0600 
    219 H219       -2.5376  -20.4922  -48.1330 H         1 UNK         0.0600 
    220 H220       -4.7600  -22.1265  -50.1267 H         1 UNK         0.3000 
    221 H221       -6.8939  -20.1536  -49.9303 H         1 UNK         0.0600 
    222 H222       -7.0418  -23.1913  -50.3033 H         1 UNK         0.0600 
    223 H223       -6.9724  -22.3705  -48.7401 H         1 UNK         0.0600 
    224 H224       -8.3498  -22.1326  -49.8037 H         1 UNK         0.0600 
    225 H225       -5.2531  -21.8266  -52.5338 H         1 UNK         0.3000 
    226 H226       -7.3608  -21.4834  -54.5322 H         1 UNK         0.0600 
    227 H227       -5.6252  -22.3465  -56.0729 H         1 UNK         0.0600 
    228 H228       -4.3884  -22.1974  -54.8326 H         1 UNK         0.0600 
    229 H229       -5.6917  -23.3687  -54.6452 H         1 UNK         0.0600 
    230 H230       -7.2680  -19.9731  -56.2540 H         1 UNK         0.3000 
    231 H231       -6.5342  -17.3451  -55.5904 H         1 UNK         0.0600 
    232 H232       -7.2572  -18.5561  -58.3129 H         1 UNK         0.0600 
    233 H233       -7.2669  -16.8392  -57.9288 H         1 UNK         0.0600 
    234 H234       -8.3937  -17.9181  -57.1236 H         1 UNK         0.0600 
    235 H235       -4.6780  -19.7859  -57.2960 H         1 UNK         0.3000 
    236 H236       -2.6643  -17.9950  -58.3832 H         1 UNK         0.0600 
    237 H237       -3.1700  -20.1905  -59.4295 H         1 UNK         0.0600 
    238 H238       -1.4961  -20.1397  -58.9018 H         1 UNK         0.0600 
    239 H239       -2.6826  -21.0331  -57.9584 H         1 UNK         0.0600 
    240 H240       -3.2623  -19.3412  -55.2324 H         1 UNK         0.3000 
    241 H241       -2.2258  -19.4795  -53.3623 H         1 UNK         0.0600 
    242 H242       -1.1499  -21.3257  -55.5059 H         1 UNK         0.3800 
    243 H243        0.3771  -21.8598  -54.8534 H         1 UNK         0.3800 
    244 H244       -0.1141  -17.3993  -54.0417 H         1 UNK         0.0800 
    245 H245       -1.7857  -16.9373  -54.0521 H         1 UNK         0.0800 
    246 H246        1.2383  -17.5717  -52.1964 H         1 UNK         0.0800 
    247 H247        0.7870  -16.1161  -51.3459 H         1 UNK         0.0800 
@<TRIPOS>BOND
     1    1    2 1    
     2    1  127 1    
     3    1  128 1    
     4    1  129 1    
     5    2    3 2    
     6    2    4 am   BACKBONE|DICT|INTERRES
     7    4    5 1    
     8    4  130 1    
     9    5    6 1    
    10    5   65 1    
    11    5  131 1    
    12    6    7 1    
    13    6  132 1    
    14    6  133 1    
    15    7    8 1    
    16    8    9 1    
    17    8  134 1    
    18    8  135 1    
    19    9   10 ar   
    20    9   14 ar   
    21   10   11 ar   
    22   10  136 1    
    23   11   12 ar   
    24   11  126 1    
    25   12   13 ar   
    26   12  137 1    
    27   13   14 ar   
    28   13   15 1    
    29   14  138 1    
    30   15   16 1    
    31   15  139 1    
    32   15  140 1    
    33   16   17 1    
    34   17   18 1    
    35   17  141 1    
    36   17  142 1    
    37   18   19 1    
    38   18   67 1    
    39   18  143 1    
    40   19   20 am   BACKBONE|DICT|INTERRES
    41   19  144 1    
    42   20   21 2    
    43   20   22 1    
    44   22   23 1    
    45   22   24 1    
    46   22  145 1    
    47   23  146 1    
    48   23  147 1    
    49   23  148 1    
    50   24   25 am   BACKBONE|DICT|INTERRES
    51   24  149 1    
    52   25   26 2    
    53   25   27 1    
    54   27   28 1    
    55   27   29 1    
    56   27  150 1    
    57   28  151 1    
    58   28  152 1    
    59   28  153 1    
    60   29   30 am   BACKBONE|DICT|INTERRES
    61   29  154 1    
    62   30   31 2    
    63   30   32 1    
    64   32   33 1    
    65   32   34 1    
    66   32  155 1    
    67   33  156 1    
    68   33  157 1    
    69   33  158 1    
    70   34   35 am   BACKBONE|DICT|INTERRES
    71   34  159 1    
    72   35   36 2    
    73   35   37 1    
    74   37   38 1    
    75   37   39 1    
    76   37  160 1    
    77   38  161 1    
    78   38  162 1    
    79   38  163 1    
    80   39   40 am   BACKBONE|DICT|INTERRES
    81   39  164 1    
    82   40   41 2    
    83   40   42 1    
    84   42   43 1    
    85   42   44 1    
    86   42  165 1    
    87   43  166 1    
    88   43  167 1    
    89   43  168 1    
    90   44   45 am   BACKBONE|DICT|INTERRES
    91   44  169 1    
    92   45   46 2    
    93   45   47 1    
    94   47   48 1    
    95   47   49 1    
    96   47  170 1    
    97   48  171 1    
    98   48  172 1    
    99   48  173 1    
   100   49   50 am   BACKBONE|DICT|INTERRES
   101   49  174 1    
   102   50   51 2    
   103   50   52 1    
   104   52   53 1    
   105   52   54 1    
   106   52  175 1    
   107   53  176 1    
   108   53  177 1    
   109   53  178 1    
   110   54   55 am   BACKBONE|DICT|INTERRES
   111   54  179 1    
   112   55   56 2    
   113   55   57 1    
   114   57   58 1    
   115   57   59 1    
   116   57  180 1    
   117   58  181 1    
   118   58  182 1    
   119   58  183 1    
   120   59   60 am   BACKBONE|DICT|INTERRES
   121   59  184 1    
   122   60   61 2    
   123   60   62 1    
   124   62   63 1    
   125   62   64 1    
   126   62  185 1    
   127   63  186 1    
   128   63  187 1    
   129   63  188 1    
   130   64   65 am   BACKBONE|DICT|INTERRES
   131   64  189 1    
   132   65   66 2    
   133   67   68 2    
   134   67   69 am   BACKBONE|DICT|INTERRES
   135   69   70 1    
   136   69  190 1    
   137   70   71 1    
   138   70   72 1    
   139   70  191 1    
   140   71  192 1    
   141   71  193 1    
   142   71  194 1    
   143   72   73 2    
   144   72   74 am   BACKBONE|DICT|INTERRES
   145   74   75 1    
   146   74  195 1    
   147   75   76 1    
   148   75   77 1    
   149   75  196 1    
   150   76  197 1    
   151   76  198 1    
   152   76  199 1    
   153   77   78 2    
   154   77   79 am   BACKBONE|DICT|INTERRES
   155   79   80 1    
   156   79  200 1    
   157   80   81 1    
   158   80   82 1    
   159   80  201 1    
   160   81  202 1    
   161   81  203 1    
   162   81  204 1    
   163   82   83 2    
   164   82   84 am   BACKBONE|DICT|INTERRES
   165   84   85 1    
   166   84  205 1    
   167   85   86 1    
   168   85   87 1    
   169   85  206 1    
   170   86  207 1    
   171   86  208 1    
   172   86  209 1    
   173   87   88 2    
   174   87   89 am   BACKBONE|DICT|INTERRES
   175   89   90 1    
   176   89  210 1    
   177   90   91 1    
   178   90   92 1    
   179   90  211 1    
   180   91  212 1    
   181   91  213 1    
   182   91  214 1    
   183   92   93 2    
   184   92   94 am   BACKBONE|DICT|INTERRES
   185   94   95 1    
   186   94  215 1    
   187   95   96 1    
   188   95   97 1    
   189   95  216 1    
   190   96  217 1    
   191   96  218 1    
   192   96  219 1    
   193   97   98 2    
   194   97   99 am   BACKBONE|DICT|INTERRES
   195   99  100 1    
   196   99  220 1    
   197  100  101 1    
   198  100  102 1    
   199  100  221 1    
   200  101  222 1    
   201  101  223 1    
   202  101  224 1    
   203  102  103 2    
   204  102  104 am   BACKBONE|DICT|INTERRES
   205  104  105 1    
   206  104  225 1    
   207  105  106 1    
   208  105  107 1    
   209  105  226 1    
   210  106  227 1    
   211  106  228 1    
   212  106  229 1    
   213  107  108 2    
   214  107  109 am   BACKBONE|DICT|INTERRES
   215  109  110 1    
   216  109  230 1    
   217  110  111 1    
   218  110  112 1    
   219  110  231 1    
   220  111  232 1    
   221  111  233 1    
   222  111  234 1    
   223  112  113 2    
   224  112  114 am   BACKBONE|DICT|INTERRES
   225  114  115 1    
   226  114  235 1    
   227  115  116 1    
   228  115  117 1    
   229  115  236 1    
   230  116  237 1    
   231  116  238 1    
   232  116  239 1    
   233  117  118 2    
   234  117  119 am   BACKBONE|DICT|INTERRES
   235  119  120 1    
   236  119  240 1    
   237  120  121 1    
   238  120  124 1    
   239  120  241 1    
   240  121  122 am   BACKBONE|DICT|INTERRES
   241  121  123 2    
   242  122  242 1    
   243  122  243 1    
   244  124  125 1    
   245  124  244 1    
   246  124  245 1    
   247  125  126 1    
   248  126  246 1    
   249  126  247 1    
@<TRIPOS>SUBSTRUCTURE
     1 UNK         1 GROUP             0       ****    0 ROOT    
