@<TRIPOS>MOLECULE
3R540
247   249    1
SMALL
USER_CHARGES


@<TRIPOS>ATOM
      1 CA          6.0041  -18.1099  -49.4396 C.3       0 UNK        -0.1800 
      2 C           4.9219  -17.7461  -48.4336 C.2       0 UNK         0.5000 
      3 O           4.3429  -18.6402  -47.8129 O.2       0 UNK        -0.5000 
      4 N           4.6500  -16.4451  -48.2763 N.am      1 UNK        -0.5000 
      5 CA          3.6451  -15.9056  -47.3623 C.3       1 UNK         0.1400 
      6 C6          2.4184  -15.3137  -48.1043 C.3       23 UNK        -0.0398 
      7 S7          1.4024  -16.6187  -48.8639 S.3       23 UNK        -0.2404 
      8 C8          1.3917  -16.1638  -50.6218 C.3       23 UNK        -0.0205 
      9 C9          1.1026  -17.3998  -51.4531 C.ar      23 UNK        -0.0193 
     10 C10        -0.2053  -17.7493  -51.8035 C.ar      23 UNK        -0.1150 
     11 C11        -0.4582  -18.9383  -52.4971 C.ar      23 UNK        -0.0193 
     12 C12         0.6089  -19.7852  -52.8202 C.ar      23 UNK        -0.1150 
     13 C13         1.9201  -19.4338  -52.4869 C.ar      23 UNK        -0.0193 
     14 C14         2.1596  -18.2303  -51.8231 C.ar      23 UNK        -0.1150 
     15 C15         3.0860  -20.3495  -52.8280 C.3       23 UNK        -0.0205 
     16 S16         3.2410  -21.7534  -51.6758 S.3       23 UNK        -0.2404 
     17 C17         3.4350  -20.9427  -50.0464 C.3       23 UNK        -0.0398 
     18 CA          2.5760  -21.6011  -48.9437 C.3       11 UNK         0.1400 
     19 N           3.0052  -21.1960  -47.6026 N.am      11 UNK        -0.5000 
     20 C           2.7357  -21.9093  -46.5017 C.2       10 UNK         0.5000 
     21 O           2.0726  -22.9480  -46.5088 O.2       10 UNK        -0.5000 
     22 CA          3.2953  -21.3778  -45.1708 C.3       10 UNK         0.1400 
     23 CB          4.8231  -21.5380  -45.1208 C.3       10 UNK        -0.1800 
     24 N           2.9452  -19.9896  -44.8607 N.am      10 UNK        -0.5000 
     25 C           1.6992  -19.5104  -44.7549 C.2       9 UNK         0.5000 
     26 O           0.6918  -20.1316  -45.0878 O.2       9 UNK        -0.5000 
     27 CA          1.5464  -18.1056  -44.1424 C.3       9 UNK         0.1400 
     28 CB          0.8628  -17.1357  -45.1159 C.3       9 UNK        -0.1800 
     29 N           0.7496  -18.1433  -42.9222 N.am      9 UNK        -0.5000 
     30 C           1.0693  -18.7752  -41.7863 C.2       8 UNK         0.5000 
     31 O           2.1460  -19.3394  -41.5898 O.2       8 UNK        -0.5000 
     32 CA         -0.0063  -18.7746  -40.6883 C.3       8 UNK         0.1400 
     33 CB          0.0165  -17.4492  -39.9097 C.3       8 UNK        -0.1800 
     34 N          -1.3410  -18.9836  -41.2539 N.am      8 UNK        -0.5000 
     35 C          -1.9042  -20.1854  -41.4459 C.2       7 UNK         0.5000 
     36 O          -1.3669  -21.2457  -41.1249 O.2       7 UNK        -0.5000 
     37 CA         -3.3107  -20.2225  -42.0786 C.3       7 UNK         0.1400 
     38 CB         -4.3757  -20.4673  -40.9983 C.3       7 UNK        -0.1800 
     39 N          -3.6429  -18.9876  -42.7900 N.am      7 UNK        -0.5000 
     40 C          -3.3659  -18.7579  -44.0802 C.2       6 UNK         0.5000 
     41 O          -2.8876  -19.6002  -44.8358 O.2       6 UNK        -0.5000 
     42 CA         -3.6709  -17.3466  -44.6228 C.3       6 UNK         0.1400 
     43 CB         -4.9965  -17.3474  -45.3978 C.3       6 UNK        -0.1800 
     44 N          -3.7144  -16.2998  -43.5931 N.am      6 UNK        -0.5000 
     45 C          -2.6602  -15.9148  -42.8642 C.2       5 UNK         0.5000 
     46 O          -1.5476  -16.4424  -42.9456 O.2       5 UNK        -0.5000 
     47 CA         -2.8862  -14.8015  -41.8349 C.3       5 UNK         0.1400 
     48 CB         -3.4192  -15.3996  -40.5181 C.3       5 UNK        -0.1800 
     49 N          -1.6011  -14.1429  -41.6300 N.am      5 UNK        -0.5000 
     50 C          -1.3568  -13.0321  -40.9266 C.2       4 UNK         0.5000 
     51 O          -2.2148  -12.3986  -40.3111 O.2       4 UNK        -0.5000 
     52 CA          0.1005  -12.5333  -40.9442 C.3       4 UNK         0.1400 
     53 CB          0.9654  -13.3380  -39.9608 C.3       4 UNK        -0.1800 
     54 N           0.6930  -12.6102  -42.2817 N.am      4 UNK        -0.5000 
     55 C           0.3757  -11.8015  -43.3033 C.2       3 UNK         0.5000 
     56 O          -0.4261  -10.8714  -43.2032 O.2       3 UNK        -0.5000 
     57 CA          1.0335  -12.0929  -44.6709 C.3       3 UNK         0.1400 
     58 CB          1.3780  -10.8064  -45.4504 C.3       3 UNK        -0.1800 
     59 N           2.1863  -13.0027  -44.6129 N.am      3 UNK        -0.5000 
     60 C           3.3946  -12.7799  -44.0689 C.2       2 UNK         0.5000 
     61 O           3.7123  -11.7370  -43.4981 O.2       2 UNK        -0.5000 
     62 CA          4.4158  -13.9336  -44.1569 C.3       2 UNK         0.1400 
     63 CB          4.5407  -14.6339  -42.7936 C.3       2 UNK        -0.1800 
     64 N           4.0463  -14.9349  -45.1615 N.am      2 UNK        -0.5000 
     65 C           4.2968  -14.8364  -46.4740 C.2       1 UNK         0.5000 
     66 O           4.9653  -13.9373  -46.9878 O.2       1 UNK        -0.5000 
     67 C           1.0578  -21.3994  -49.1394 C.2       11 UNK         0.5000 
     68 O           0.4238  -22.2230  -49.7985 O.2       11 UNK        -0.5000 
     69 N           0.4810  -20.3696  -48.5009 N.am      12 UNK        -0.5000 
     70 CA         -0.9670  -20.1660  -48.4409 C.3       12 UNK         0.1400 
     71 CB         -1.2991  -18.8125  -47.8034 C.3       12 UNK        -0.1800 
     72 C          -1.6843  -21.3012  -47.6944 C.2       12 UNK         0.5000 
     73 O          -2.6847  -21.8050  -48.2004 O.2       12 UNK        -0.5000 
     74 N          -1.1511  -21.7074  -46.5346 N.am      13 UNK        -0.5000 
     75 CA         -1.6670  -22.8074  -45.7210 C.3       13 UNK         0.1400 
     76 CB         -0.9041  -22.8745  -44.3907 C.3       13 UNK        -0.1800 
     77 C          -1.6122  -24.1562  -46.4571 C.2       13 UNK         0.5000 
     78 O          -2.5832  -24.9121  -46.4024 O.2       13 UNK        -0.5000 
     79 N          -0.5047  -24.4047  -47.1732 N.am      14 UNK        -0.5000 
     80 CA         -0.3279  -25.5546  -48.0621 C.3       14 UNK         0.1400 
     81 CB          1.1166  -25.5880  -48.5831 C.3       14 UNK        -0.1800 
     82 C          -1.3354  -25.5573  -49.2282 C.2       14 UNK         0.5000 
     83 O          -1.9090  -26.6025  -49.5354 O.2       14 UNK        -0.5000 
     84 N          -1.5885  -24.3779  -49.8096 N.am      15 UNK        -0.5000 
     85 CA         -2.5984  -24.1237  -50.8380 C.3       15 UNK         0.1400 
     86 CB         -2.1477  -22.9220  -51.6854 C.3       15 UNK        -0.1800 
     87 C          -4.0132  -23.9243  -50.2476 C.2       15 UNK         0.5000 
     88 O          -4.7309  -23.0180  -50.6730 O.2       15 UNK        -0.5000 
     89 N          -4.3886  -24.7750  -49.2810 N.am      16 UNK        -0.5000 
     90 CA         -5.7062  -24.8908  -48.6456 C.3       16 UNK         0.1400 
     91 CB         -6.7039  -25.5370  -49.6284 C.3       16 UNK        -0.1800 
     92 C          -6.2346  -23.5795  -48.0212 C.2       16 UNK         0.5000 
     93 O          -7.4186  -23.2657  -48.1566 O.2       16 UNK        -0.5000 
     94 N          -5.3394  -22.8499  -47.3407 N.am      17 UNK        -0.5000 
     95 CA         -5.5561  -21.5473  -46.7007 C.3       17 UNK         0.1400 
     96 CB         -6.5610  -21.6489  -45.5344 C.3       17 UNK        -0.1800 
     97 C          -5.9067  -20.4528  -47.7289 C.2       17 UNK         0.5000 
     98 O          -6.9467  -19.8003  -47.6236 O.2       17 UNK        -0.5000 
     99 N          -4.9984  -20.2825  -48.6978 N.am      18 UNK        -0.5000 
    100 CA        -5.0125  -19.3066  -49.7884 C.3       18 UNK         0.1400 
    101 CB        -4.9095  -17.8632  -49.2485 C.3       18 UNK        -0.1800 
    102 C         -6.1955  -19.4997  -50.7562 C.2       18 UNK         0.5000 
    103 O         -6.9278  -18.5488  -51.0415 O.2       18 UNK        -0.5000 
    104 N         -6.3533  -20.7283  -51.2649 N.am      19 UNK        -0.5000 
    105 CA        -7.2602  -21.0404  -52.3691 C.3       19 UNK         0.1400 
    106 CB        -7.4047  -22.5652  -52.4878 C.3       19 UNK        -0.1800 
    107 C         -6.7640  -20.4362  -53.6986 C.2       19 UNK         0.5000 
    108 O         -5.5811  -20.1162  -53.8383 O.2       19 UNK        -0.5000 
    109 N         -7.6776  -20.3283  -54.6717 N.am      20 UNK        -0.5000 
    110 CA        -7.4510  -19.7308  -55.9939 C.3       20 UNK         0.1400 
    111 CB        -8.8075  -19.5846  -56.7020 C.3       20 UNK        -0.1800 
    112 C         -6.4491  -20.4843  -56.8966 C.2       20 UNK         0.5000 
    113 O         -6.0678  -19.9540  -57.9412 O.2       20 UNK        -0.5000 
    114 N         -6.0324  -21.6909  -56.4870 N.am      21 UNK        -0.5000 
    115 CA        -5.0909  -22.5739  -57.1798 C.3       21 UNK         0.1400 
    116 CB        -4.9036  -23.8474  -56.3402 C.3       21 UNK        -0.1800 
    117 C         -3.7218  -21.9400  -57.5032 C.2       21 UNK         0.5000 
    118 O         -3.1075  -22.3257  -58.4990 O.2       21 UNK        -0.5000 
    119 N         -3.2767  -20.9783  -56.6825 N.am      22 UNK        -0.5000 
    120 CA        -2.0677  -20.1747  -56.9296 C.3       22 UNK         0.1400 
    121 C         -2.2625  -18.9812  -57.9140 C.2       22 UNK         0.5000 
    122 N         -3.4605  -18.7077  -58.4182 N.am      22 UNK        -0.7600 
    123 O         -1.2976  -18.2989  -58.2486 O.2       22 UNK        -0.5000 
    124 C124       -1.3642  -19.7575  -55.6129 C.3       23 UNK        -0.0398 
    125 S125       -2.3601  -18.6898  -54.5130 S.3       23 UNK        -0.2404 
    126 C126       -1.8856  -19.3177  -52.8707 C.3       23 UNK        -0.0205 
    127 H127        6.5110  -17.2257  -49.8266 H         1 UNK         0.0600 
    128 H128        5.5681  -18.6479  -50.2811 H         1 UNK         0.0600 
    129 H129        6.7503  -18.7521  -48.9719 H         1 UNK         0.0600 
    130 H130        5.1931  -15.7499  -48.7703 H         1 UNK         0.3000 
    131 H131        3.3015  -16.6995  -46.6993 H         1 UNK         0.0600 
    132 H132        1.7692  -14.7720  -47.4143 H         1 UNK         0.0800 
    133 H133        2.7317  -14.5888  -48.8574 H         1 UNK         0.0800 
    134 H134        0.6427  -15.3909  -50.7995 H         1 UNK         0.0800 
    135 H135        2.3569  -15.7435  -50.9084 H         1 UNK         0.0800 
    136 H136       -1.0264  -17.1058  -51.5204 H         1 UNK         0.1150 
    137 H137        0.4237  -20.7224  -53.3244 H         1 UNK         0.1150 
    138 H138        3.1697  -17.9583  -51.5502 H         1 UNK         0.1150 
    139 H139        2.9565  -20.7370  -53.8395 H         1 UNK         0.0800 
    140 H140        4.0234  -19.7909  -52.8354 H         1 UNK         0.0800 
    141 H141        3.2243  -19.8774  -50.0972 H         1 UNK         0.0800 
    142 H142        4.4900  -21.0195  -49.7803 H         1 UNK         0.0800 
    143 H143        2.7542  -22.6766  -49.0158 H         1 UNK         0.0600 
    144 H144        3.5295  -20.3263  -47.5287 H         1 UNK         0.3000 
    145 H145        2.8700  -21.9962  -44.3775 H         1 UNK         0.0600 
    146 H146        5.2122  -21.3010  -44.1305 H         1 UNK         0.0600 
    147 H147        5.1171  -22.5640  -45.3464 H         1 UNK         0.0600 
    148 H148        5.3206  -20.8873  -45.8414 H         1 UNK         0.0600 
    149 H149        3.7147  -19.4006  -44.5798 H         1 UNK         0.3000 
    150 H150        2.5367  -17.7169  -43.8985 H         1 UNK         0.0600 
    151 H151        1.2343  -17.2664  -46.1278 H         1 UNK         0.0600 
    152 H152        1.0248  -16.0987  -44.8239 H         1 UNK         0.0600 
    153 H153       -0.2142  -17.2993  -45.1521 H         1 UNK         0.0600 
    154 H154       -0.1537  -17.6818  -42.9759 H         1 UNK         0.3000 
    155 H155        0.2264  -19.5789  -39.9871 H         1 UNK         0.0600 
    156 H156       -0.2072  -16.5968  -40.5510 H         1 UNK         0.0600 
    157 H157       -0.7107  -17.4574  -39.0978 H         1 UNK         0.0600 
    158 H158        0.9971  -17.2751  -39.4651 H         1 UNK         0.0600 
    159 H159       -1.8126  -18.1644  -41.6092 H         1 UNK         0.3000 
    160 H160       -3.3364  -21.0643  -42.7743 H         1 UNK         0.0600 
    161 H161       -4.3988  -19.6607  -40.2643 H         1 UNK         0.0600 
    162 H162       -4.1806  -21.3958  -40.4600 H         1 UNK         0.0600 
    163 H163       -5.3699  -20.5511  -41.4377 H         1 UNK         0.0600 
    164 H164       -4.0737  -18.2512  -42.2515 H         1 UNK         0.3000 
    165 H165       -2.8703  -17.0938  -45.3215 H         1 UNK         0.0600 
    166 H166       -5.1816  -16.3815  -45.8679 H         1 UNK         0.0600 
    167 H167       -4.9801  -18.0935  -46.1921 H         1 UNK         0.0600 
    168 H168       -5.8434  -17.5770  -44.7501 H         1 UNK         0.0600 
    169 H169       -4.6015  -15.8347  -43.4619 H         1 UNK         0.3000 
    170 H170       -3.5979  -14.0779  -42.2367 H         1 UNK         0.0600 
    171 H171       -2.7089  -16.0987  -40.0761 H         1 UNK         0.0600 
    172 H172       -3.6259  -14.6253  -39.7798 H         1 UNK         0.0600 
    173 H173       -4.3530  -15.9389  -40.6810 H         1 UNK         0.0600 
    174 H174       -0.8402  -14.5975  -42.1182 H         1 UNK         0.3000 
    175 H175        0.1027  -11.4893  -40.6232 H         1 UNK         0.0600 
    176 H176        1.9781  -12.9375  -39.9098 H         1 UNK         0.0600 
    177 H177        1.0352  -14.3882  -40.2461 H         1 UNK         0.0600 
    178 H178        0.5497  -13.2985  -38.9531 H         1 UNK         0.0600 
    179 H179        1.3707  -13.3392  -42.4418 H         1 UNK         0.3000 
    180 H180        0.2737  -12.6217  -45.2482 H         1 UNK         0.0600 
    181 H181        2.0693  -10.1692  -44.8985 H         1 UNK         0.0600 
    182 H182        0.4824  -10.2168  -45.6491 H         1 UNK         0.0600 
    183 H183        1.8310  -11.0385  -46.4142 H         1 UNK         0.0600 
    184 H184        2.0385  -13.9022  -45.0427 H         1 UNK         0.3000 
    185 H185        5.3857  -13.5023  -44.4140 H         1 UNK         0.0600 
    186 H186        4.8380  -13.9281  -42.0167 H         1 UNK         0.0600 
    187 H187        3.5987  -15.0870  -42.4816 H         1 UNK         0.0600 
    188 H188        5.2970  -15.4186  -42.8220 H         1 UNK         0.0600 
    189 H189        3.5349  -15.7328  -44.8182 H         1 UNK         0.3000 
    190 H190        1.0566  -19.7522  -47.9481 H         1 UNK         0.3000 
    191 H191       -1.3489  -20.1557  -49.4641 H         1 UNK         0.0600 
    192 H192       -1.0895  -17.9913  -48.4866 H         1 UNK         0.0600 
    193 H193       -2.3534  -18.7512  -47.5355 H         1 UNK         0.0600 
    194 H194       -0.7321  -18.6573  -46.8891 H         1 UNK         0.0600 
    195 H195       -0.3717  -21.1843  -46.1399 H         1 UNK         0.3000 
    196 H196       -2.7126  -22.5899  -45.4964 H         1 UNK         0.0600 
    197 H197       -1.2966  -23.6664  -43.7520 H         1 UNK         0.0600 
    198 H198       -0.9967  -21.9375  -43.8421 H         1 UNK         0.0600 
    199 H199        0.1583  -23.0662  -44.5424 H         1 UNK         0.0600 
    200 H200        0.2627  -23.7424  -47.1223 H         1 UNK         0.3000 
    201 H201       -0.4976  -26.4578  -47.4725 H         1 UNK         0.0600 
    202 H202        1.8321  -25.6251  -47.7614 H         1 UNK         0.0600 
    203 H203        1.3478  -24.7118  -49.1885 H         1 UNK         0.0600 
    204 H204        1.2862  -26.4687  -49.2037 H         1 UNK         0.0600 
    205 H205       -1.0551  -23.5672  -49.5113 H         1 UNK         0.3000 
    206 H206       -2.6515  -24.9905  -51.4995 H         1 UNK         0.0600 
    207 H207       -1.1568  -23.0845  -52.1098 H         1 UNK         0.0600 
    208 H208       -2.8323  -22.7450  -52.5160 H         1 UNK         0.0600 
    209 H209       -2.1086  -22.0119  -51.0858 H         1 UNK         0.0600 
    210 H210       -3.7053  -25.4638  -48.9914 H         1 UNK         0.3000 
    211 H211       -5.5773  -25.5821  -47.8117 H         1 UNK         0.0600 
    212 H212       -6.8782  -24.9046  -50.4982 H         1 UNK         0.0600 
    213 H213       -7.6684  -25.7173  -49.1524 H         1 UNK         0.0600 
    214 H214       -6.3364  -26.4992  -49.9850 H         1 UNK         0.0600 
    215 H215       -4.3759  -23.1593  -47.3714 H         1 UNK         0.3000 
    216 H216       -4.5990  -21.2568  -46.2665 H         1 UNK         0.0600 
    217 H217       -6.6242  -20.7019  -44.9970 H         1 UNK         0.0600 
    218 H218       -6.2543  -22.4091  -44.8161 H         1 UNK         0.0600 
    219 H219       -7.5656  -21.8959  -45.8781 H         1 UNK         0.0600 
    220 H220       -4.1997  -20.9147  -48.6868 H         1 UNK         0.3000 
    221 H221       -4.1114  -19.5012  -50.3705 H         1 UNK         0.0600 
    222 H222       -5.7911  -17.5805  -48.6728 H         1 UNK         0.0600 
    223 H223       -4.0390  -17.7325  -48.6097 H         1 UNK         0.0600 
    224 H224       -4.8135  -17.1491  -50.0672 H         1 UNK         0.0600 
    225 H225       -5.7135  -21.4710  -50.9884 H         1 UNK         0.3000 
    226 H226       -8.2397  -20.6155  -52.1401 H         1 UNK         0.0600 
    227 H227       -7.7598  -22.9947  -51.5513 H         1 UNK         0.0600 
    228 H228       -8.1247  -22.8363  -53.2606 H         1 UNK         0.0600 
    229 H229       -6.4570  -23.0425  -52.7405 H         1 UNK         0.0600 
    230 H230       -8.6208  -20.6377  -54.4854 H         1 UNK         0.3000 
    231 H231       -7.0404  -18.7312  -55.8372 H         1 UNK         0.0600 
    232 H232       -9.2785  -20.5538  -56.8706 H         1 UNK         0.0600 
    233 H233       -8.6946  -19.1014  -57.6735 H         1 UNK         0.0600 
    234 H234       -9.4950  -18.9729  -56.1174 H         1 UNK         0.0600 
    235 H235       -6.3920  -22.0274  -55.6068 H         1 UNK         0.3000 
    236 H236       -5.5498  -22.8537  -58.1300 H         1 UNK         0.0600 
    237 H237       -5.8507  -24.3668  -56.1922 H         1 UNK         0.0600 
    238 H238       -4.2258  -24.5457  -56.8331 H         1 UNK         0.0600 
    239 H239       -4.4862  -23.6223  -55.3577 H         1 UNK         0.0600 
    240 H240       -3.8451  -20.7004  -55.8935 H         1 UNK         0.3000 
    241 H241       -1.3534  -20.8227  -57.4410 H         1 UNK         0.0600 
    242 H242       -4.2791  -19.2583  -58.1776 H         1 UNK         0.3800 
    243 H243       -3.5576  -17.9366  -59.0593 H         1 UNK         0.3800 
    244 H244       -1.0934  -20.6651  -55.0738 H         1 UNK         0.0800 
    245 H245       -0.4215  -19.2495  -55.8233 H         1 UNK         0.0800 
    246 H246       -2.5790  -18.9150  -52.1321 H         1 UNK         0.0800 
    247 H247       -2.0128  -20.3988  -52.8483 H         1 UNK         0.0800 
@<TRIPOS>BOND
     1    1    2 1    
     2    1  127 1    
     3    1  128 1    
     4    1  129 1    
     5    2    3 2    
     6    2    4 am   BACKBONE|DICT|INTERRES
     7    4    5 1    
     8    4  130 1    
     9    5    6 1    
    10    5   65 1    
    11    5  131 1    
    12    6    7 1    
    13    6  132 1    
    14    6  133 1    
    15    7    8 1    
    16    8    9 1    
    17    8  134 1    
    18    8  135 1    
    19    9   10 ar   
    20    9   14 ar   
    21   10   11 ar   
    22   10  136 1    
    23   11   12 ar   
    24   11  126 1    
    25   12   13 ar   
    26   12  137 1    
    27   13   14 ar   
    28   13   15 1    
    29   14  138 1    
    30   15   16 1    
    31   15  139 1    
    32   15  140 1    
    33   16   17 1    
    34   17   18 1    
    35   17  141 1    
    36   17  142 1    
    37   18   19 1    
    38   18   67 1    
    39   18  143 1    
    40   19   20 am   BACKBONE|DICT|INTERRES
    41   19  144 1    
    42   20   21 2    
    43   20   22 1    
    44   22   23 1    
    45   22   24 1    
    46   22  145 1    
    47   23  146 1    
    48   23  147 1    
    49   23  148 1    
    50   24   25 am   BACKBONE|DICT|INTERRES
    51   24  149 1    
    52   25   26 2    
    53   25   27 1    
    54   27   28 1    
    55   27   29 1    
    56   27  150 1    
    57   28  151 1    
    58   28  152 1    
    59   28  153 1    
    60   29   30 am   BACKBONE|DICT|INTERRES
    61   29  154 1    
    62   30   31 2    
    63   30   32 1    
    64   32   33 1    
    65   32   34 1    
    66   32  155 1    
    67   33  156 1    
    68   33  157 1    
    69   33  158 1    
    70   34   35 am   BACKBONE|DICT|INTERRES
    71   34  159 1    
    72   35   36 2    
    73   35   37 1    
    74   37   38 1    
    75   37   39 1    
    76   37  160 1    
    77   38  161 1    
    78   38  162 1    
    79   38  163 1    
    80   39   40 am   BACKBONE|DICT|INTERRES
    81   39  164 1    
    82   40   41 2    
    83   40   42 1    
    84   42   43 1    
    85   42   44 1    
    86   42  165 1    
    87   43  166 1    
    88   43  167 1    
    89   43  168 1    
    90   44   45 am   BACKBONE|DICT|INTERRES
    91   44  169 1    
    92   45   46 2    
    93   45   47 1    
    94   47   48 1    
    95   47   49 1    
    96   47  170 1    
    97   48  171 1    
    98   48  172 1    
    99   48  173 1    
   100   49   50 am   BACKBONE|DICT|INTERRES
   101   49  174 1    
   102   50   51 2    
   103   50   52 1    
   104   52   53 1    
   105   52   54 1    
   106   52  175 1    
   107   53  176 1    
   108   53  177 1    
   109   53  178 1    
   110   54   55 am   BACKBONE|DICT|INTERRES
   111   54  179 1    
   112   55   56 2    
   113   55   57 1    
   114   57   58 1    
   115   57   59 1    
   116   57  180 1    
   117   58  181 1    
   118   58  182 1    
   119   58  183 1    
   120   59   60 am   BACKBONE|DICT|INTERRES
   121   59  184 1    
   122   60   61 2    
   123   60   62 1    
   124   62   63 1    
   125   62   64 1    
   126   62  185 1    
   127   63  186 1    
   128   63  187 1    
   129   63  188 1    
   130   64   65 am   BACKBONE|DICT|INTERRES
   131   64  189 1    
   132   65   66 2    
   133   67   68 2    
   134   67   69 am   BACKBONE|DICT|INTERRES
   135   69   70 1    
   136   69  190 1    
   137   70   71 1    
   138   70   72 1    
   139   70  191 1    
   140   71  192 1    
   141   71  193 1    
   142   71  194 1    
   143   72   73 2    
   144   72   74 am   BACKBONE|DICT|INTERRES
   145   74   75 1    
   146   74  195 1    
   147   75   76 1    
   148   75   77 1    
   149   75  196 1    
   150   76  197 1    
   151   76  198 1    
   152   76  199 1    
   153   77   78 2    
   154   77   79 am   BACKBONE|DICT|INTERRES
   155   79   80 1    
   156   79  200 1    
   157   80   81 1    
   158   80   82 1    
   159   80  201 1    
   160   81  202 1    
   161   81  203 1    
   162   81  204 1    
   163   82   83 2    
   164   82   84 am   BACKBONE|DICT|INTERRES
   165   84   85 1    
   166   84  205 1    
   167   85   86 1    
   168   85   87 1    
   169   85  206 1    
   170   86  207 1    
   171   86  208 1    
   172   86  209 1    
   173   87   88 2    
   174   87   89 am   BACKBONE|DICT|INTERRES
   175   89   90 1    
   176   89  210 1    
   177   90   91 1    
   178   90   92 1    
   179   90  211 1    
   180   91  212 1    
   181   91  213 1    
   182   91  214 1    
   183   92   93 2    
   184   92   94 am   BACKBONE|DICT|INTERRES
   185   94   95 1    
   186   94  215 1    
   187   95   96 1    
   188   95   97 1    
   189   95  216 1    
   190   96  217 1    
   191   96  218 1    
   192   96  219 1    
   193   97   98 2    
   194   97   99 am   BACKBONE|DICT|INTERRES
   195   99  100 1    
   196   99  220 1    
   197  100  101 1    
   198  100  102 1    
   199  100  221 1    
   200  101  222 1    
   201  101  223 1    
   202  101  224 1    
   203  102  103 2    
   204  102  104 am   BACKBONE|DICT|INTERRES
   205  104  105 1    
   206  104  225 1    
   207  105  106 1    
   208  105  107 1    
   209  105  226 1    
   210  106  227 1    
   211  106  228 1    
   212  106  229 1    
   213  107  108 2    
   214  107  109 am   BACKBONE|DICT|INTERRES
   215  109  110 1    
   216  109  230 1    
   217  110  111 1    
   218  110  112 1    
   219  110  231 1    
   220  111  232 1    
   221  111  233 1    
   222  111  234 1    
   223  112  113 2    
   224  112  114 am   BACKBONE|DICT|INTERRES
   225  114  115 1    
   226  114  235 1    
   227  115  116 1    
   228  115  117 1    
   229  115  236 1    
   230  116  237 1    
   231  116  238 1    
   232  116  239 1    
   233  117  118 2    
   234  117  119 am   BACKBONE|DICT|INTERRES
   235  119  120 1    
   236  119  240 1    
   237  120  121 1    
   238  120  124 1    
   239  120  241 1    
   240  121  122 am   BACKBONE|DICT|INTERRES
   241  121  123 2    
   242  122  242 1    
   243  122  243 1    
   244  124  125 1    
   245  124  244 1    
   246  124  245 1    
   247  125  126 1    
   248  126  246 1    
   249  126  247 1    
@<TRIPOS>SUBSTRUCTURE
     1 UNK         1 GROUP             0       ****    0 ROOT    
