@<TRIPOS>MOLECULE
3R540
247   249    1
SMALL
USER_CHARGES


@<TRIPOS>ATOM
      1 CA          1.5022  -10.6060  -46.7321 C.3       0 UNK        -0.1800 
      2 C           0.9452  -12.0158  -46.6047 C.2       0 UNK         0.5000 
      3 O           0.1024  -12.2625  -45.7443 O.2       0 UNK        -0.5000 
      4 N           1.3971  -12.9358  -47.4678 N.am      1 UNK        -0.5000 
      5 CA          1.0092  -14.3538  -47.5063 C.3       1 UNK         0.1400 
      6 C6          1.8062  -15.0996  -48.6030 C.3       23 UNK        -0.0398 
      7 S7          1.6958  -16.9201  -48.5146 S.3       23 UNK        -0.2404 
      8 C8          0.8589  -17.2980  -50.0896 C.3       23 UNK        -0.0205 
      9 C9          1.1604  -18.7116  -50.5626 C.ar      23 UNK        -0.0193 
     10 C10         0.1349  -19.6480  -50.7238 C.ar      23 UNK        -0.1150 
     11 C11         0.4196  -20.9340  -51.1935 C.ar      23 UNK        -0.0193 
     12 C12         1.7391  -21.2822  -51.4962 C.ar      23 UNK        -0.1150 
     13 C13         2.7740  -20.3580  -51.3294 C.ar      23 UNK        -0.0193 
     14 C14         2.4748  -19.0731  -50.8712 C.ar      23 UNK        -0.1150 
     15 C15         4.2130  -20.7284  -51.6648 C.3       23 UNK        -0.0205 
     16 S16         4.8426  -22.1422  -50.7011 S.3       23 UNK        -0.2404 
     17 C17         4.6987  -21.5587  -48.9753 C.3       23 UNK        -0.0398 
     18 CA          4.0492  -22.6261  -48.0594 C.3       11 UNK         0.1400 
     19 N           4.3842  -22.4375  -46.6466 N.am      11 UNK        -0.5000 
     20 C           5.3817  -23.0712  -46.0145 C.2       10 UNK         0.5000 
     21 O           6.2117  -23.7785  -46.5871 O.2       10 UNK        -0.5000 
     22 CA          5.4657  -22.9161  -44.4799 C.3       10 UNK         0.1400 
     23 CB          6.5232  -21.8667  -44.1047 C.3       10 UNK        -0.1800 
     24 N           4.1958  -22.5511  -43.8485 N.am      10 UNK        -0.5000 
     25 C           3.0691  -23.2762  -43.8775 C.2       9 UNK         0.5000 
     26 O           3.0033  -24.4109  -44.3503 O.2       9 UNK        -0.5000 
     27 CA          1.7900  -22.6248  -43.3113 C.3       9 UNK         0.1400 
     28 CB          1.4237  -23.2760  -41.9690 C.3       9 UNK        -0.1800 
     29 N           1.8179  -21.1649  -43.1394 N.am      9 UNK        -0.5000 
     30 C           2.1137  -20.2341  -44.0611 C.2       8 UNK         0.5000 
     31 O           2.5216  -20.5059  -45.1930 O.2       8 UNK        -0.5000 
     32 CA          1.9476  -18.7608  -43.6325 C.3       8 UNK         0.1400 
     33 CB          1.7536  -17.8125  -44.8299 C.3       8 UNK        -0.1800 
     34 N           0.8258  -18.5994  -42.7033 N.am      8 UNK        -0.5000 
     35 C           0.9305  -18.4803  -41.3712 C.2       7 UNK         0.5000 
     36 O           2.0097  -18.4634  -40.7793 O.2       7 UNK        -0.5000 
     37 CA         -0.3715  -18.3930  -40.5454 C.3       7 UNK         0.1400 
     38 CB         -0.5774  -16.9777  -39.9842 C.3       7 UNK        -0.1800 
     39 N          -1.5630  -18.8001  -41.2939 N.am      7 UNK        -0.5000 
     40 C          -1.8806  -20.0769  -41.5560 C.2       6 UNK         0.5000 
     41 O          -1.2381  -21.0317  -41.1211 O.2       6 UNK        -0.5000 
     42 CA         -3.0987  -20.3478  -42.4649 C.3       6 UNK         0.1400 
     43 CB         -4.3258  -20.7056  -41.6128 C.3       6 UNK        -0.1800 
     44 N          -3.4530  -19.2446  -43.3625 N.am      6 UNK        -0.5000 
     45 C          -2.6452  -18.6969  -44.2812 C.2       5 UNK         0.5000 
     46 O          -1.4882  -19.0674  -44.4694 O.2       5 UNK        -0.5000 
     47 CA         -3.1829  -17.4842  -45.0676 C.3       5 UNK         0.1400 
     48 CB         -4.7147  -17.3033  -44.9844 C.3       5 UNK        -0.1800 
     49 N          -2.5083  -16.2488  -44.6652 N.am      5 UNK        -0.5000 
     50 C          -2.3683  -15.7660  -43.4209 C.2       4 UNK         0.5000 
     51 O          -2.8126  -16.3134  -42.4103 O.2       4 UNK        -0.5000 
     52 CA         -1.6057  -14.4378  -43.2830 C.3       4 UNK         0.1400 
     53 CB         -0.0919  -14.6629  -43.4170 C.3       4 UNK        -0.1800 
     54 N          -2.0296  -13.4411  -44.2641 N.am      4 UNK        -0.5000 
     55 C          -3.2437  -12.8765  -44.3203 C.2       3 UNK         0.5000 
     56 O          -4.1466  -13.1020  -43.5139 O.2       3 UNK        -0.5000 
     57 CA         -3.4898  -11.8954  -45.4793 C.3       3 UNK         0.1400 
     58 CB         -2.9468  -10.4984  -45.1396 C.3       3 UNK        -0.1800 
     59 N          -2.8826  -12.3633  -46.7248 N.am      3 UNK        -0.5000 
     60 C          -3.4118  -13.3100  -47.5120 C.2       2 UNK         0.5000 
     61 O          -4.4907  -13.8594  -47.2911 O.2       2 UNK        -0.5000 
     62 CA         -2.5871  -13.7234  -48.7469 C.3       2 UNK         0.1400 
     63 CB         -2.8951  -12.8047  -49.9390 C.3       2 UNK        -0.1800 
     64 N          -1.1440  -13.7216  -48.5065 N.am      2 UNK        -0.5000 
     65 C          -0.5144  -14.5555  -47.6668 C.2       1 UNK         0.5000 
     66 O          -1.0910  -15.4175  -47.0038 O.2       1 UNK        -0.5000 
     67 C           2.5233  -22.7257  -48.2367 C.2       11 UNK         0.5000 
     68 O           2.0504  -23.6210  -48.9391 O.2       11 UNK        -0.5000 
     69 N           1.7620  -21.8634  -47.5499 N.am      12 UNK        -0.5000 
     70 CA          0.3007  -21.8287  -47.5731 C.3       12 UNK         0.1400 
     71 CB         -0.1623  -20.3967  -47.2657 C.3       12 UNK        -0.1800 
     72 C          -0.3057  -22.8675  -46.6090 C.2       12 UNK         0.5000 
     73 O          -1.1288  -22.5276  -45.7593 O.2       12 UNK        -0.5000 
     74 N           0.1090  -24.1330  -46.7523 N.am      13 UNK        -0.5000 
     75 CA         -0.3200  -25.2654  -45.9235 C.3       13 UNK         0.1400 
     76 CB          0.5226  -26.4962  -46.2875 C.3       13 UNK        -0.1800 
     77 C          -1.8258  -25.5808  -46.0397 C.2       13 UNK         0.5000 
     78 O          -2.4197  -26.0866  -45.0877 O.2       13 UNK        -0.5000 
     79 N          -2.4173  -25.2407  -47.1923 N.am      14 UNK        -0.5000 
     80 CA         -3.8515  -25.3263  -47.4750 C.3       14 UNK         0.1400 
     81 CB         -4.0259  -25.5550  -48.9869 C.3       14 UNK        -0.1800 
     82 C          -4.6331  -24.0720  -47.0232 C.2       14 UNK         0.5000 
     83 O          -5.8282  -23.9785  -47.3077 O.2       14 UNK        -0.5000 
     84 N          -3.9507  -23.1098  -46.3821 N.am      15 UNK        -0.5000 
     85 CA         -4.3808  -21.7553  -46.0193 C.3       15 UNK         0.1400 
     86 CB         -5.6323  -21.7457  -45.1211 C.3       15 UNK        -0.1800 
     87 C          -4.5353  -20.8532  -47.2539 C.2       15 UNK         0.5000 
     88 O          -3.8129  -19.8645  -47.3680 O.2       15 UNK        -0.5000 
     89 N          -5.4364  -21.2387  -48.1678 N.am      16 UNK        -0.5000 
     90 CA         -5.6755  -20.7360  -49.5282 C.3       16 UNK         0.1400 
     91 CB         -4.4396  -21.0063  -50.4043 C.3       16 UNK        -0.1800 
     92 C          -6.1246  -19.2640  -49.6543 C.2       16 UNK         0.5000 
     93 O          -7.0103  -18.9765  -50.4582 O.2       16 UNK        -0.5000 
     94 N          -5.5031  -18.3670  -48.8797 N.am      17 UNK        -0.5000 
     95 CA         -5.6662  -16.9090  -48.8534 C.3       17 UNK         0.1400 
     96 CB         -7.1037  -16.5101  -48.4630 C.3       17 UNK        -0.1800 
     97 C          -5.1682  -16.1960  -50.1303 C.2       17 UNK         0.5000 
     98 O          -5.4931  -15.0272  -50.3381 O.2       17 UNK        -0.5000 
     99 N          -4.3509  -16.8872  -50.9339 N.am      18 UNK        -0.5000 
    100 CA        -3.6527  -16.4001  -52.1192 C.3       18 UNK         0.1400 
    101 CB        -4.6415  -15.9844  -53.2274 C.3       18 UNK        -0.1800 
    102 C         -2.7444  -17.5265  -52.6278 C.2       18 UNK         0.5000 
    103 O         -3.0753  -18.7003  -52.4486 O.2       18 UNK        -0.5000 
    104 N         -1.6464  -17.1568  -53.2985 N.am      19 UNK        -0.5000 
    105 CA        -0.7298  -18.0988  -53.9520 C.3       19 UNK         0.1400 
    106 CB         0.6022  -17.3901  -54.2404 C.3       19 UNK        -0.1800 
    107 C         -1.3121  -18.7141  -55.2405 C.2       19 UNK         0.5000 
    108 O         -0.8673  -19.7815  -55.6603 O.2       19 UNK        -0.5000 
    109 N         -2.2968  -18.0370  -55.8468 N.am      20 UNK        -0.5000 
    110 CA        -3.0384  -18.5292  -57.0070 C.3       20 UNK         0.1400 
    111 CB        -3.6897  -17.3390  -57.7278 C.3       20 UNK        -0.1800 
    112 C         -4.1052  -19.5696  -56.6185 C.2       20 UNK         0.5000 
    113 O         -4.3607  -20.4936  -57.3912 O.2       20 UNK        -0.5000 
    114 N         -4.7076  -19.4074  -55.4310 N.am      21 UNK        -0.5000 
    115 CA        -5.8222  -20.2228  -54.9403 C.3       21 UNK         0.1400 
    116 CB        -6.4384  -19.5502  -53.7057 C.3       21 UNK        -0.1800 
    117 C         -5.4440  -21.6862  -54.6470 C.2       21 UNK         0.5000 
    118 O         -6.2872  -22.5696  -54.8067 O.2       21 UNK        -0.5000 
    119 N         -4.1848  -21.9194  -54.2605 N.am      22 UNK        -0.5000 
    120 CA        -3.5833  -23.2557  -54.1249 C.3       22 UNK         0.1400 
    121 C         -3.0461  -23.8589  -55.4594 C.2       22 UNK         0.5000 
    122 N         -3.1633  -23.1907  -56.6018 N.am      22 UNK        -0.7600 
    123 O         -2.5327  -24.9746  -55.4660 O.2       22 UNK        -0.5000 
    124 C124       -2.5383  -23.3090  -52.9795 C.3       23 UNK        -0.0398 
    125 S125       -1.2314  -22.0423  -53.1013 S.3       23 UNK        -0.2404 
    126 C126       -0.6938  -21.9522  -51.3691 C.3       23 UNK        -0.0205 
    127 H127        2.0001  -10.3165  -45.8068 H         1 UNK         0.0600 
    128 H128        0.6934   -9.9000  -46.9202 H         1 UNK         0.0600 
    129 H129        2.2221  -10.5253  -47.5467 H         1 UNK         0.0600 
    130 H130        2.0877  -12.6556  -48.1497 H         1 UNK         0.3000 
    131 H131        1.2903  -14.7792  -46.5410 H         1 UNK         0.0600 
    132 H132        1.5153  -14.7452  -49.5929 H         1 UNK         0.0800 
    133 H133        2.8654  -14.8560  -48.5076 H         1 UNK         0.0800 
    134 H134       -0.2146  -17.1428  -49.9696 H         1 UNK         0.0800 
    135 H135        1.1900  -16.6081  -50.8662 H         1 UNK         0.0800 
    136 H136       -0.8861  -19.3750  -50.4961 H         1 UNK         0.1150 
    137 H137        1.9619  -22.2769  -51.8561 H         1 UNK         0.1150 
    138 H138        3.2660  -18.3465  -50.7507 H         1 UNK         0.1150 
    139 H139        4.2717  -20.9742  -52.7258 H         1 UNK         0.0800 
    140 H140        4.8792  -19.8780  -51.5115 H         1 UNK         0.0800 
    141 H141        4.1601  -20.6114  -48.9214 H         1 UNK         0.0800 
    142 H142        5.7114  -21.3437  -48.6317 H         1 UNK         0.0800 
    143 H143        4.4353  -23.6024  -48.3621 H         1 UNK         0.0600 
    144 H144        3.7496  -21.8696  -46.0958 H         1 UNK         0.3000 
    145 H145        5.7752  -23.8798  -44.0708 H         1 UNK         0.0600 
    146 H146        6.6530  -21.8051  -43.0240 H         1 UNK         0.0600 
    147 H147        7.4941  -22.1191  -44.5331 H         1 UNK         0.0600 
    148 H148        6.2513  -20.8750  -44.4688 H         1 UNK         0.0600 
    149 H149        4.1462  -21.6284  -43.4434 H         1 UNK         0.3000 
    150 H150        0.9899  -22.8433  -44.0178 H         1 UNK         0.0600 
    151 H151        1.3971  -24.3636  -42.0513 H         1 UNK         0.0600 
    152 H152        0.4373  -22.9608  -41.6324 H         1 UNK         0.0600 
    153 H153        2.1437  -23.0227  -41.1901 H         1 UNK         0.0600 
    154 H154        1.4960  -20.8308  -42.2427 H         1 UNK         0.3000 
    155 H155        2.8829  -18.4776  -43.1463 H         1 UNK         0.0600 
    156 H156        1.7411  -16.7735  -44.5048 H         1 UNK         0.0600 
    157 H157        0.8216  -18.0074  -45.3605 H         1 UNK         0.0600 
    158 H158        2.5670  -17.9090  -45.5499 H         1 UNK         0.0600 
    159 H159       -0.0961  -18.6762  -43.1248 H         1 UNK         0.3000 
    160 H160       -0.2543  -19.0669  -39.6940 H         1 UNK         0.0600 
    161 H161       -0.6880  -16.2379  -40.7748 H         1 UNK         0.0600 
    162 H162        0.2709  -16.6739  -39.3697 H         1 UNK         0.0600 
    163 H163       -1.4667  -16.9291  -39.3556 H         1 UNK         0.0600 
    164 H164       -2.1317  -18.0559  -41.6879 H         1 UNK         0.3000 
    165 H165       -2.8478  -21.2092  -43.0872 H         1 UNK         0.0600 
    166 H166       -5.1795  -20.9748  -42.2338 H         1 UNK         0.0600 
    167 H167       -4.1165  -21.5579  -40.9649 H         1 UNK         0.0600 
    168 H168       -4.6255  -19.8739  -40.9739 H         1 UNK         0.0600 
    169 H169       -4.3634  -18.8310  -43.2257 H         1 UNK         0.3000 
    170 H170       -2.9197  -17.6508  -46.1130 H         1 UNK         0.0600 
    171 H171       -5.2364  -18.1937  -45.3372 H         1 UNK         0.0600 
    172 H172       -5.0530  -17.0923  -43.9695 H         1 UNK         0.0600 
    173 H173       -5.0390  -16.4724  -45.6111 H         1 UNK         0.0600 
    174 H174       -2.0415  -15.7588  -45.4252 H         1 UNK         0.3000 
    175 H175       -1.8061  -14.0395  -42.2863 H         1 UNK         0.0600 
    176 H176        0.1723  -14.9820  -44.4245 H         1 UNK         0.0600 
    177 H177        0.4621  -13.7489  -43.2024 H         1 UNK         0.0600 
    178 H178        0.2634  -15.4295  -42.7287 H         1 UNK         0.0600 
    179 H179       -1.3248  -13.1380  -44.9318 H         1 UNK         0.3000 
    180 H180       -4.5692  -11.8102  -45.6238 H         1 UNK         0.0600 
    181 H181       -3.1661   -9.7865  -45.9355 H         1 UNK         0.0600 
    182 H182       -1.8672  -10.5082  -44.9867 H         1 UNK         0.0600 
    183 H183       -3.4034  -10.1154  -44.2261 H         1 UNK         0.0600 
    184 H184       -1.9639  -12.0054  -46.9432 H         1 UNK         0.3000 
    185 H185       -2.8777  -14.7410  -49.0125 H         1 UNK         0.0600 
    186 H186       -2.5748  -11.7792  -49.7512 H         1 UNK         0.0600 
    187 H187       -2.3982  -13.1527  -50.8445 H         1 UNK         0.0600 
    188 H188       -3.9654  -12.7790  -50.1471 H         1 UNK         0.0600 
    189 H189       -0.6012  -13.0231  -48.9929 H         1 UNK         0.3000 
    190 H190        2.1911  -21.1971  -46.9147 H         1 UNK         0.3000 
    191 H191       -0.0464  -22.0793  -48.5756 H         1 UNK         0.0600 
    192 H192       -1.2383  -20.2948  -47.3985 H         1 UNK         0.0600 
    193 H193        0.3182  -19.6695  -47.9178 H         1 UNK         0.0600 
    194 H194        0.0680  -20.1177  -46.2398 H         1 UNK         0.0600 
    195 H195        0.7909  -24.3243  -47.4787 H         1 UNK         0.3000 
    196 H196       -0.1188  -25.0102  -44.8811 H         1 UNK         0.0600 
    197 H197        0.3882  -26.7819  -47.3315 H         1 UNK         0.0600 
    198 H198        1.5841  -26.3075  -46.1243 H         1 UNK         0.0600 
    199 H199        0.2481  -27.3544  -45.6726 H         1 UNK         0.0600 
    200 H200       -1.8406  -24.8394  -47.9168 H         1 UNK         0.3000 
    201 H201       -4.2752  -26.1831  -46.9472 H         1 UNK         0.0600 
    202 H202       -3.6528  -24.7106  -49.5680 H         1 UNK         0.0600 
    203 H203       -5.0763  -25.6930  -49.2466 H         1 UNK         0.0600 
    204 H204       -3.4949  -26.4490  -49.3145 H         1 UNK         0.0600 
    205 H205       -2.9654  -23.2746  -46.2064 H         1 UNK         0.3000 
    206 H206       -3.5601  -21.3420  -45.4329 H         1 UNK         0.0600 
    207 H207       -5.4907  -22.3818  -44.2476 H         1 UNK         0.0600 
    208 H208       -5.8398  -20.7376  -44.7611 H         1 UNK         0.0600 
    209 H209       -6.5246  -22.0909  -45.6431 H         1 UNK         0.0600 
    210 H210       -5.9465  -22.0868  -47.9389 H         1 UNK         0.3000 
    211 H211       -6.4921  -21.3441  -49.9208 H         1 UNK         0.0600 
    212 H212       -4.6490  -20.8128  -51.4557 H         1 UNK         0.0600 
    213 H213       -4.1283  -22.0467  -50.3221 H         1 UNK         0.0600 
    214 H214       -3.5931  -20.3808  -50.1189 H         1 UNK         0.0600 
    215 H215       -4.7834  -18.7425  -48.2618 H         1 UNK         0.3000 
    216 H216       -5.0084  -16.5602  -48.0567 H         1 UNK         0.0600 
    217 H217       -7.1704  -15.4387  -48.2700 H         1 UNK         0.0600 
    218 H218       -7.8193  -16.7443  -49.2512 H         1 UNK         0.0600 
    219 H219       -7.4215  -17.0214  -47.5543 H         1 UNK         0.0600 
    220 H220       -4.1510  -17.8547  -50.7138 H         1 UNK         0.3000 
    221 H221       -3.0349  -15.5467  -51.8335 H         1 UNK         0.0600 
    222 H222       -5.2301  -15.1147  -52.9372 H         1 UNK         0.0600 
    223 H223       -5.3359  -16.7890  -53.4673 H         1 UNK         0.0600 
    224 H224       -4.1178  -15.7156  -54.1454 H         1 UNK         0.0600 
    225 H225       -1.4369  -16.1750  -53.4092 H         1 UNK         0.3000 
    226 H226       -0.5323  -18.9252  -53.2685 H         1 UNK         0.0600 
    227 H227        0.4721  -16.5461  -54.9186 H         1 UNK         0.0600 
    228 H228        1.0585  -17.0194  -53.3229 H         1 UNK         0.0600 
    229 H229        1.3158  -18.0754  -54.6997 H         1 UNK         0.0600 
    230 H230       -2.5778  -17.1472  -55.4646 H         1 UNK         0.3000 
    231 H231       -2.3413  -19.0054  -57.7000 H         1 UNK         0.0600 
    232 H232       -4.3947  -16.8118  -57.0836 H         1 UNK         0.0600 
    233 H233       -4.2371  -17.6704  -58.6113 H         1 UNK         0.0600 
    234 H234       -2.9394  -16.6223  -58.0622 H         1 UNK         0.0600 
    235 H235       -4.3994  -18.6587  -54.8303 H         1 UNK         0.3000 
    236 H236       -6.5852  -20.2450  -55.7214 H         1 UNK         0.0600 
    237 H237       -7.2127  -20.1747  -53.2580 H         1 UNK         0.0600 
    238 H238       -5.6913  -19.3528  -52.9380 H         1 UNK         0.0600 
    239 H239       -6.9046  -18.6008  -53.9681 H         1 UNK         0.0600 
    240 H240       -3.5516  -21.1392  -54.1518 H         1 UNK         0.3000 
    241 H241       -4.3778  -23.9423  -53.8268 H         1 UNK         0.0600 
    242 H242       -2.8150  -23.6082  -57.4500 H         1 UNK         0.3800 
    243 H243       -3.6051  -22.2808  -56.6426 H         1 UNK         0.3800 
    244 H244       -2.0698  -24.2927  -52.9190 H         1 UNK         0.0800 
    245 H245       -3.0564  -23.1785  -52.0306 H         1 UNK         0.0800 
    246 H246       -0.3484  -22.9348  -51.0433 H         1 UNK         0.0800 
    247 H247       -1.5433  -21.6933  -50.7364 H         1 UNK         0.0800 
@<TRIPOS>BOND
     1    1    2 1    
     2    1  127 1    
     3    1  128 1    
     4    1  129 1    
     5    2    3 2    
     6    2    4 am   BACKBONE|DICT|INTERRES
     7    4    5 1    
     8    4  130 1    
     9    5    6 1    
    10    5   65 1    
    11    5  131 1    
    12    6    7 1    
    13    6  132 1    
    14    6  133 1    
    15    7    8 1    
    16    8    9 1    
    17    8  134 1    
    18    8  135 1    
    19    9   10 ar   
    20    9   14 ar   
    21   10   11 ar   
    22   10  136 1    
    23   11   12 ar   
    24   11  126 1    
    25   12   13 ar   
    26   12  137 1    
    27   13   14 ar   
    28   13   15 1    
    29   14  138 1    
    30   15   16 1    
    31   15  139 1    
    32   15  140 1    
    33   16   17 1    
    34   17   18 1    
    35   17  141 1    
    36   17  142 1    
    37   18   19 1    
    38   18   67 1    
    39   18  143 1    
    40   19   20 am   BACKBONE|DICT|INTERRES
    41   19  144 1    
    42   20   21 2    
    43   20   22 1    
    44   22   23 1    
    45   22   24 1    
    46   22  145 1    
    47   23  146 1    
    48   23  147 1    
    49   23  148 1    
    50   24   25 am   BACKBONE|DICT|INTERRES
    51   24  149 1    
    52   25   26 2    
    53   25   27 1    
    54   27   28 1    
    55   27   29 1    
    56   27  150 1    
    57   28  151 1    
    58   28  152 1    
    59   28  153 1    
    60   29   30 am   BACKBONE|DICT|INTERRES
    61   29  154 1    
    62   30   31 2    
    63   30   32 1    
    64   32   33 1    
    65   32   34 1    
    66   32  155 1    
    67   33  156 1    
    68   33  157 1    
    69   33  158 1    
    70   34   35 am   BACKBONE|DICT|INTERRES
    71   34  159 1    
    72   35   36 2    
    73   35   37 1    
    74   37   38 1    
    75   37   39 1    
    76   37  160 1    
    77   38  161 1    
    78   38  162 1    
    79   38  163 1    
    80   39   40 am   BACKBONE|DICT|INTERRES
    81   39  164 1    
    82   40   41 2    
    83   40   42 1    
    84   42   43 1    
    85   42   44 1    
    86   42  165 1    
    87   43  166 1    
    88   43  167 1    
    89   43  168 1    
    90   44   45 am   BACKBONE|DICT|INTERRES
    91   44  169 1    
    92   45   46 2    
    93   45   47 1    
    94   47   48 1    
    95   47   49 1    
    96   47  170 1    
    97   48  171 1    
    98   48  172 1    
    99   48  173 1    
   100   49   50 am   BACKBONE|DICT|INTERRES
   101   49  174 1    
   102   50   51 2    
   103   50   52 1    
   104   52   53 1    
   105   52   54 1    
   106   52  175 1    
   107   53  176 1    
   108   53  177 1    
   109   53  178 1    
   110   54   55 am   BACKBONE|DICT|INTERRES
   111   54  179 1    
   112   55   56 2    
   113   55   57 1    
   114   57   58 1    
   115   57   59 1    
   116   57  180 1    
   117   58  181 1    
   118   58  182 1    
   119   58  183 1    
   120   59   60 am   BACKBONE|DICT|INTERRES
   121   59  184 1    
   122   60   61 2    
   123   60   62 1    
   124   62   63 1    
   125   62   64 1    
   126   62  185 1    
   127   63  186 1    
   128   63  187 1    
   129   63  188 1    
   130   64   65 am   BACKBONE|DICT|INTERRES
   131   64  189 1    
   132   65   66 2    
   133   67   68 2    
   134   67   69 am   BACKBONE|DICT|INTERRES
   135   69   70 1    
   136   69  190 1    
   137   70   71 1    
   138   70   72 1    
   139   70  191 1    
   140   71  192 1    
   141   71  193 1    
   142   71  194 1    
   143   72   73 2    
   144   72   74 am   BACKBONE|DICT|INTERRES
   145   74   75 1    
   146   74  195 1    
   147   75   76 1    
   148   75   77 1    
   149   75  196 1    
   150   76  197 1    
   151   76  198 1    
   152   76  199 1    
   153   77   78 2    
   154   77   79 am   BACKBONE|DICT|INTERRES
   155   79   80 1    
   156   79  200 1    
   157   80   81 1    
   158   80   82 1    
   159   80  201 1    
   160   81  202 1    
   161   81  203 1    
   162   81  204 1    
   163   82   83 2    
   164   82   84 am   BACKBONE|DICT|INTERRES
   165   84   85 1    
   166   84  205 1    
   167   85   86 1    
   168   85   87 1    
   169   85  206 1    
   170   86  207 1    
   171   86  208 1    
   172   86  209 1    
   173   87   88 2    
   174   87   89 am   BACKBONE|DICT|INTERRES
   175   89   90 1    
   176   89  210 1    
   177   90   91 1    
   178   90   92 1    
   179   90  211 1    
   180   91  212 1    
   181   91  213 1    
   182   91  214 1    
   183   92   93 2    
   184   92   94 am   BACKBONE|DICT|INTERRES
   185   94   95 1    
   186   94  215 1    
   187   95   96 1    
   188   95   97 1    
   189   95  216 1    
   190   96  217 1    
   191   96  218 1    
   192   96  219 1    
   193   97   98 2    
   194   97   99 am   BACKBONE|DICT|INTERRES
   195   99  100 1    
   196   99  220 1    
   197  100  101 1    
   198  100  102 1    
   199  100  221 1    
   200  101  222 1    
   201  101  223 1    
   202  101  224 1    
   203  102  103 2    
   204  102  104 am   BACKBONE|DICT|INTERRES
   205  104  105 1    
   206  104  225 1    
   207  105  106 1    
   208  105  107 1    
   209  105  226 1    
   210  106  227 1    
   211  106  228 1    
   212  106  229 1    
   213  107  108 2    
   214  107  109 am   BACKBONE|DICT|INTERRES
   215  109  110 1    
   216  109  230 1    
   217  110  111 1    
   218  110  112 1    
   219  110  231 1    
   220  111  232 1    
   221  111  233 1    
   222  111  234 1    
   223  112  113 2    
   224  112  114 am   BACKBONE|DICT|INTERRES
   225  114  115 1    
   226  114  235 1    
   227  115  116 1    
   228  115  117 1    
   229  115  236 1    
   230  116  237 1    
   231  116  238 1    
   232  116  239 1    
   233  117  118 2    
   234  117  119 am   BACKBONE|DICT|INTERRES
   235  119  120 1    
   236  119  240 1    
   237  120  121 1    
   238  120  124 1    
   239  120  241 1    
   240  121  122 am   BACKBONE|DICT|INTERRES
   241  121  123 2    
   242  122  242 1    
   243  122  243 1    
   244  124  125 1    
   245  124  244 1    
   246  124  245 1    
   247  125  126 1    
   248  126  246 1    
   249  126  247 1    
@<TRIPOS>SUBSTRUCTURE
     1 UNK         1 GROUP             0       ****    0 ROOT    
