@<TRIPOS>MOLECULE
3R540
247   249    1
SMALL
USER_CHARGES


@<TRIPOS>ATOM
      1 CA          2.4109  -10.7629  -50.8311 C.3       0 UNK        -0.1800 
      2 C           2.4484  -11.6656  -49.6063 C.2       0 UNK         0.5000 
      3 O           1.4376  -11.7993  -48.9172 O.2       0 UNK        -0.5000 
      4 N           3.6080  -12.2853  -49.3434 N.am      1 UNK        -0.5000 
      5 CA          3.8787  -13.1983  -48.2217 C.3       1 UNK         0.1400 
      6 C6          3.0879  -14.5354  -48.2904 C.3       23 UNK        -0.0398 
      7 S7          3.4669  -15.5025  -49.7932 S.3       23 UNK        -0.2404 
      8 C8          1.9765  -15.2501  -50.8093 C.3       23 UNK        -0.0205 
      9 C9          0.8631  -16.2289  -50.4648 C.ar      23 UNK        -0.0193 
     10 C10         0.7319  -17.4253  -51.1770 C.ar      23 UNK        -0.1150 
     11 C11        -0.3284  -18.2993  -50.9129 C.ar      23 UNK        -0.0193 
     12 C12        -1.2431  -17.9822  -49.9051 C.ar      23 UNK        -0.1150 
     13 C13        -1.1062  -16.8041  -49.1676 C.ar      23 UNK        -0.0193 
     14 C14        -0.0614  -15.9249  -49.4621 C.ar      23 UNK        -0.1150 
     15 C15        -2.0853  -16.4725  -48.0545 C.3       23 UNK        -0.0205 
     16 S16        -1.6253  -17.3059  -46.5033 S.3       23 UNK        -0.2404 
     17 C17        -2.5155  -18.8948  -46.6323 C.3       23 UNK        -0.0398 
     18 CA         -1.5895  -20.1252  -46.8017 C.3       11 UNK         0.1400 
     19 N          -0.5373  -20.2092  -45.7827 N.am      11 UNK        -0.5000 
     20 C           0.4675  -21.0984  -45.7944 C.2       10 UNK         0.5000 
     21 O           0.6572  -21.9033  -46.7043 O.2       10 UNK        -0.5000 
     22 CA          1.3782  -21.1384  -44.5561 C.3       10 UNK         0.1400 
     23 CB          2.5746  -20.1956  -44.7261 C.3       10 UNK        -0.1800 
     24 N           0.6406  -20.8118  -43.3348 N.am      10 UNK        -0.5000 
     25 C          -0.2186  -21.6609  -42.7507 C.2       9 UNK         0.5000 
     26 O          -0.4321  -22.8009  -43.1641 O.2       9 UNK        -0.5000 
     27 CA         -1.0105  -21.1402  -41.5385 C.3       9 UNK         0.1400 
     28 CB         -0.2142  -21.3527  -40.2438 C.3       9 UNK        -0.1800 
     29 N          -1.3889  -19.7317  -41.6789 N.am      9 UNK        -0.5000 
     30 C          -2.2746  -19.2929  -42.5866 C.2       8 UNK         0.5000 
     31 O          -2.8602  -20.0510  -43.3612 O.2       8 UNK        -0.5000 
     32 CA         -2.5153  -17.7749  -42.7152 C.3       8 UNK         0.1400 
     33 CB         -4.0119  -17.4209  -42.8299 C.3       8 UNK        -0.1800 
     34 N          -1.8304  -16.9573  -41.7117 N.am      8 UNK        -0.5000 
     35 C          -2.1145  -16.8027  -40.4113 C.2       7 UNK         0.5000 
     36 O          -3.0760  -17.3227  -39.8437 O.2       7 UNK        -0.5000 
     37 CA         -1.1146  -15.9248  -39.6232 C.3       7 UNK         0.1400 
     38 CB         -1.2282  -16.1024  -38.0943 C.3       7 UNK        -0.1800 
     39 N           0.2748  -16.1108  -40.0722 N.am      7 UNK        -0.5000 
     40 C           0.9631  -17.2629  -40.0630 C.2       6 UNK         0.5000 
     41 O           0.5100  -18.3211  -39.6278 O.2       6 UNK        -0.5000 
     42 CA          2.3623  -17.2261  -40.7092 C.3       6 UNK         0.1400 
     43 CB          3.0233  -18.6183  -40.7894 C.3       6 UNK        -0.1800 
     44 N           2.3613  -16.5953  -42.0335 N.am      6 UNK        -0.5000 
     45 C           1.6481  -16.9643  -43.1112 C.2       5 UNK         0.5000 
     46 O           0.7994  -17.8577  -43.1010 O.2       5 UNK        -0.5000 
     47 CA          1.9284  -16.2172  -44.4326 C.3       5 UNK         0.1400 
     48 CB          0.8784  -15.1174  -44.6481 C.3       5 UNK        -0.1800 
     49 N           3.2652  -15.6223  -44.5065 N.am      5 UNK        -0.5000 
     50 C           4.4266  -16.2906  -44.4368 C.2       4 UNK         0.5000 
     51 O           4.5087  -17.5180  -44.4238 O.2       4 UNK        -0.5000 
     52 CA          5.7175  -15.4549  -44.3226 C.3       4 UNK         0.1400 
     53 CB          6.4014  -15.3318  -45.6924 C.3       4 UNK        -0.1800 
     54 N           5.5303  -14.1132  -43.7627 N.am      4 UNK        -0.5000 
     55 C           5.0315  -13.8042  -42.5580 C.2       3 UNK         0.5000 
     56 O           4.6354  -14.6465  -41.7511 O.2       3 UNK        -0.5000 
     57 CA          4.9055  -12.3057  -42.2051 C.3       3 UNK         0.1400 
     58 CB          6.1975  -11.7727  -41.5571 C.3       3 UNK        -0.1800 
     59 N           4.4611  -11.4586  -43.3239 N.am      3 UNK        -0.5000 
     60 C           5.1100  -11.1562  -44.4567 C.2       2 UNK         0.5000 
     61 O           6.2708  -11.4915  -44.7027 O.2       2 UNK        -0.5000 
     62 CA          4.2868  -10.4423  -45.5448 C.3       2 UNK         0.1400 
     63 CB          4.8766   -9.0614  -45.8694 C.3       2 UNK        -0.1800 
     64 N           4.2317  -11.2456  -46.7686 N.am      2 UNK        -0.5000 
     65 C           3.7389  -12.4914  -46.8529 C.2       1 UNK         0.5000 
     66 O           3.2080  -13.0730  -45.9049 O.2       1 UNK        -0.5000 
     67 C          -2.4312  -21.4173  -46.8259 C.2       11 UNK         0.5000 
     68 O          -2.6887  -21.9556  -47.9010 O.2       11 UNK        -0.5000 
     69 N          -2.8050  -21.9072  -45.6338 N.am      12 UNK        -0.5000 
     70 CA         -3.5168  -23.1682  -45.4345 C.3       12 UNK         0.1400 
     71 CB         -3.9682  -23.2781  -43.9705 C.3       12 UNK        -0.1800 
     72 C          -2.6812  -24.3931  -45.8476 C.2       12 UNK         0.5000 
     73 O          -3.2109  -25.2851  -46.5099 O.2       12 UNK        -0.5000 
     74 N          -1.3865  -24.4018  -45.4950 N.am      13 UNK        -0.5000 
     75 CA         -0.4287  -25.4441  -45.8816 C.3       13 UNK         0.1400 
     76 CB          0.8996  -25.2255  -45.1429 C.3       13 UNK        -0.1800 
     77 C          -0.1976  -25.5183  -47.4043 C.2       13 UNK         0.5000 
     78 O          -0.0557  -26.6143  -47.9467 O.2       13 UNK        -0.5000 
     79 N          -0.2099  -24.3557  -48.0690 N.am      14 UNK        -0.5000 
     80 CA         -0.1436  -24.2072  -49.5241 C.3       14 UNK         0.1400 
     81 CB          0.3720  -22.7949  -49.8485 C.3       14 UNK        -0.1800 
     82 C          -1.4904  -24.4656  -50.2342 C.2       14 UNK         0.5000 
     83 O          -1.5480  -24.3487  -51.4592 O.2       14 UNK        -0.5000 
     84 N          -2.5529  -24.7660  -49.4716 N.am      15 UNK        -0.5000 
     85 CA         -3.9557  -24.9692  -49.8569 C.3       15 UNK         0.1400 
     86 CB         -4.1107  -26.1068  -50.8837 C.3       15 UNK        -0.1800 
     87 C          -4.6714  -23.6883  -50.3245 C.2       15 UNK         0.5000 
     88 O          -5.8171  -23.4647  -49.9288 O.2       15 UNK        -0.5000 
     89 N          -3.9910  -22.8741  -51.1434 N.am      16 UNK        -0.5000 
     90 CA         -4.4322  -21.5943  -51.6977 C.3       16 UNK         0.1400 
     91 CB         -4.4351  -20.5134  -50.5944 C.3       16 UNK        -0.1800 
     92 C          -5.7732  -21.7489  -52.4406 C.2       16 UNK         0.5000 
     93 O          -5.8338  -22.5080  -53.4102 O.2       16 UNK        -0.5000 
     94 N          -6.8268  -21.0750  -51.9604 N.am      17 UNK        -0.5000 
     95 CA         -8.1787  -21.0833  -52.5211 C.3       17 UNK         0.1400 
     96 CB         -9.0697  -20.1476  -51.6912 C.3       17 UNK        -0.1800 
     97 C          -8.8203  -22.4808  -52.6304 C.2       17 UNK         0.5000 
     98 O          -9.6337  -22.6914  -53.5299 O.2       17 UNK        -0.5000 
     99 N          -8.4152  -23.4246  -51.7663 N.am      18 UNK        -0.5000 
    100 CA        -8.8530  -24.8236  -51.8120 C.3       18 UNK         0.1400 
    101 CB        -8.4587  -25.5258  -50.5041 C.3       18 UNK        -0.1800 
    102 C         -8.3060  -25.5963  -53.0310 C.2       18 UNK         0.5000 
    103 O         -8.9184  -26.5826  -53.4413 O.2       18 UNK        -0.5000 
    104 N         -7.1852  -25.1280  -53.5961 N.am      19 UNK        -0.5000 
    105 CA        -6.5692  -25.6449  -54.8197 C.3       19 UNK         0.1400 
    106 CB        -5.0722  -25.8696  -54.5462 C.3       19 UNK        -0.1800 
    107 C         -6.7684  -24.6876  -56.0136 C.2       19 UNK         0.5000 
    108 O         -6.2451  -24.9614  -57.0944 O.2       19 UNK        -0.5000 
    109 N         -7.4922  -23.5768  -55.7962 N.am      20 UNK        -0.5000 
    110 CA        -7.6829  -22.4372  -56.7024 C.3       20 UNK         0.1400 
    111 CB        -8.5146  -22.8475  -57.9352 C.3       20 UNK        -0.1800 
    112 C         -6.3587  -21.7278  -57.0716 C.2       20 UNK         0.5000 
    113 O         -6.2274  -21.1955  -58.1756 O.2       20 UNK        -0.5000 
    114 N         -5.4007  -21.7386  -56.1382 N.am      21 UNK        -0.5000 
    115 CA        -4.0748  -21.1432  -56.2622 C.3       21 UNK         0.1400 
    116 CB        -3.0474  -22.1619  -55.7395 C.3       21 UNK        -0.1800 
    117 C         -3.9916  -19.8417  -55.4486 C.2       21 UNK         0.5000 
    118 O         -4.8174  -19.6074  -54.5639 O.2       21 UNK        -0.5000 
    119 N         -2.9653  -19.0341  -55.7399 N.am      22 UNK        -0.5000 
    120 CA        -2.5865  -17.8194  -54.9905 C.3       22 UNK         0.1400 
    121 C         -3.6148  -16.6463  -55.0554 C.2       22 UNK         0.5000 
    122 N         -4.5569  -16.6439  -55.9905 N.am      22 UNK        -0.7600 
    123 O         -3.5397  -15.7021  -54.2738 O.2       22 UNK        -0.5000 
    124 C124       -2.1224  -18.1335  -53.5378 C.3       23 UNK        -0.0398 
    125 S125       -0.6997  -19.2801  -53.5021 S.3       23 UNK        -0.2404 
    126 C126       -0.4932  -19.5828  -51.7164 C.3       23 UNK        -0.0205 
    127 H127        3.3699  -10.7407  -51.3492 H         1 UNK         0.0600 
    128 H128        2.1587   -9.7437  -50.5383 H         1 UNK         0.0600 
    129 H129        1.6542  -11.1148  -51.5323 H         1 UNK         0.0600 
    130 H130        4.3899  -12.1317  -49.9649 H         1 UNK         0.3000 
    131 H131        4.9372  -13.4502  -48.3007 H         1 UNK         0.0600 
    132 H132        3.3420  -15.1723  -47.4418 H         1 UNK         0.0800 
    133 H133        2.0183  -14.3507  -48.2106 H         1 UNK         0.0800 
    134 H134        2.2519  -15.3652  -51.8587 H         1 UNK         0.0800 
    135 H135        1.6194  -14.2254  -50.7072 H         1 UNK         0.0800 
    136 H136        1.4402  -17.6665  -51.9572 H         1 UNK         0.1150 
    137 H137       -2.0612  -18.6522  -49.6884 H         1 UNK         0.1150 
    138 H138        0.0245  -14.9999  -48.9111 H         1 UNK         0.1150 
    139 H139       -3.1031  -16.7308  -48.3493 H         1 UNK         0.0800 
    140 H140       -2.0923  -15.3961  -47.8760 H         1 UNK         0.0800 
    141 H141       -3.2243  -18.8487  -47.4603 H         1 UNK         0.0800 
    142 H142       -3.1267  -18.9923  -45.7348 H         1 UNK         0.0800 
    143 H143       -1.0918  -20.0410  -47.7699 H         1 UNK         0.0600 
    144 H144       -0.6155  -19.5785  -44.9991 H         1 UNK         0.3000 
    145 H145        1.7714  -22.1517  -44.4561 H         1 UNK         0.0600 
    146 H146        3.2244  -20.5379  -45.5322 H         1 UNK         0.0600 
    147 H147        3.1781  -20.1436  -43.8198 H         1 UNK         0.0600 
    148 H148        2.2572  -19.1864  -44.9789 H         1 UNK         0.0600 
    149 H149        0.7226  -19.8611  -42.9869 H         1 UNK         0.3000 
    150 H150       -1.9291  -21.7263  -41.4648 H         1 UNK         0.0600 
    151 H151        0.7577  -20.8605  -40.2820 H         1 UNK         0.0600 
    152 H152       -0.0334  -22.4142  -40.0705 H         1 UNK         0.0600 
    153 H153       -0.7536  -20.9677  -39.3781 H         1 UNK         0.0600 
    154 H154       -0.9081  -19.0664  -41.0846 H         1 UNK         0.3000 
    155 H155       -2.0501  -17.4939  -43.6586 H         1 UNK         0.0600 
    156 H156       -4.5775  -17.7536  -41.9596 H         1 UNK         0.0600 
    157 H157       -4.4582  -17.8951  -43.7047 H         1 UNK         0.0600 
    158 H158       -4.1567  -16.3460  -42.9373 H         1 UNK         0.0600 
    159 H159       -0.9745  -16.5334  -42.0405 H         1 UNK         0.3000 
    160 H160       -1.3759  -14.8908  -39.8526 H         1 UNK         0.0600 
    161 H161       -1.0461  -17.1333  -37.7895 H         1 UNK         0.0600 
    162 H162       -2.2239  -15.8300  -37.7427 H         1 UNK         0.0600 
    163 H163       -0.5151  -15.4665  -37.5697 H         1 UNK         0.0600 
    164 H164        0.7238  -15.2957  -40.4661 H         1 UNK         0.3000 
    165 H165        2.9836  -16.6008  -40.0666 H         1 UNK         0.0600 
    166 H166        3.1238  -19.0625  -39.7985 H         1 UNK         0.0600 
    167 H167        2.4426  -19.3093  -41.4007 H         1 UNK         0.0600 
    168 H168        4.0227  -18.5536  -41.2199 H         1 UNK         0.0600 
    169 H169        3.0423  -15.8512  -42.1474 H         1 UNK         0.3000 
    170 H170        1.8352  -16.9366  -45.2475 H         1 UNK         0.0600 
    171 H171        0.9591  -14.6883  -45.6470 H         1 UNK         0.0600 
    172 H172        0.9884  -14.3083  -43.9252 H         1 UNK         0.0600 
    173 H173       -0.1336  -15.5115  -44.5488 H         1 UNK         0.0600 
    174 H174        3.3009  -14.6138  -44.6162 H         1 UNK         0.3000 
    175 H175        6.3899  -15.9936  -43.6522 H         1 UNK         0.0600 
    176 H176        6.5947  -16.3149  -46.1238 H         1 UNK         0.0600 
    177 H177        5.7844  -14.7792  -46.3997 H         1 UNK         0.0600 
    178 H178        7.3600  -14.8190  -45.6109 H         1 UNK         0.0600 
    179 H179        5.8401  -13.3349  -44.3362 H         1 UNK         0.3000 
    180 H180        4.1158  -12.2328  -41.4556 H         1 UNK         0.0600 
    181 H181        7.0570  -11.8571  -42.2223 H         1 UNK         0.0600 
    182 H182        6.4346  -12.3330  -40.6519 H         1 UNK         0.0600 
    183 H183        6.0935  -10.7256  -41.2731 H         1 UNK         0.0600 
    184 H184        3.4954  -11.1671  -43.2597 H         1 UNK         0.3000 
    185 H185        3.2636  -10.3038  -45.1895 H         1 UNK         0.0600 
    186 H186        4.9175   -8.4359  -44.9767 H         1 UNK         0.0600 
    187 H187        5.8910   -9.1382  -46.2631 H         1 UNK         0.0600 
    188 H188        4.2691   -8.5358  -46.6064 H         1 UNK         0.0600 
    189 H189        4.6579  -10.8428  -47.5899 H         1 UNK         0.3000 
    190 H190       -2.6011  -21.3678  -44.7976 H         1 UNK         0.3000 
    191 H191       -4.4092  -23.1486  -46.0638 H         1 UNK         0.0600 
    192 H192       -4.6153  -22.4451  -43.6947 H         1 UNK         0.0600 
    193 H193       -4.5309  -24.1973  -43.8033 H         1 UNK         0.0600 
    194 H194       -3.1207  -23.2821  -43.2849 H         1 UNK         0.0600 
    195 H195       -1.0371  -23.6618  -44.8948 H         1 UNK         0.3000 
    196 H196       -0.8392  -26.4042  -45.5624 H         1 UNK         0.0600 
    197 H197        1.6047  -26.0274  -45.3648 H         1 UNK         0.0600 
    198 H198        0.7546  -25.2096  -44.0626 H         1 UNK         0.0600 
    199 H199        1.3707  -24.2871  -45.4338 H         1 UNK         0.0600 
    200 H200       -0.2627  -23.4931  -47.5359 H         1 UNK         0.3000 
    201 H201        0.5739  -24.9297  -49.9180 H         1 UNK         0.0600 
    202 H202        0.4975  -22.6583  -50.9231 H         1 UNK         0.0600 
    203 H203        1.3416  -22.6123  -49.3849 H         1 UNK         0.0600 
    204 H204       -0.3169  -22.0262  -49.4960 H         1 UNK         0.0600 
    205 H205       -2.4000  -24.7897  -48.4710 H         1 UNK         0.3000 
    206 H206       -4.4637  -25.2873  -48.9455 H         1 UNK         0.0600 
    207 H207       -3.6739  -27.0337  -50.5124 H         1 UNK         0.0600 
    208 H208       -5.1624  -26.3035  -51.0933 H         1 UNK         0.0600 
    209 H209       -3.6327  -25.8679  -51.8333 H         1 UNK         0.0600 
    210 H210       -3.0735  -23.1966  -51.4368 H         1 UNK         0.3000 
    211 H211       -3.6939  -21.3046  -52.4466 H         1 UNK         0.0600 
    212 H212       -3.4554  -20.4456  -50.1242 H         1 UNK         0.0600 
    213 H213       -4.6655  -19.5294  -51.0049 H         1 UNK         0.0600 
    214 H214       -5.1541  -20.7301  -49.8035 H         1 UNK         0.0600 
    215 H215       -6.6874  -20.5032  -51.1406 H         1 UNK         0.3000 
    216 H216       -8.1089  -20.6801  -53.5335 H         1 UNK         0.0600 
    217 H217       -9.1456  -20.4798  -50.6551 H         1 UNK         0.0600 
    218 H218      -10.0811  -20.1070  -52.0982 H         1 UNK         0.0600 
    219 H219       -8.6809  -19.1290  -51.6910 H         1 UNK         0.0600 
    220 H220       -7.7094  -23.1909  -51.0769 H         1 UNK         0.3000 
    221 H221       -9.9428  -24.8323  -51.8825 H         1 UNK         0.0600 
    222 H222       -7.3772  -25.5839  -50.3869 H         1 UNK         0.0600 
    223 H223       -8.8629  -25.0037  -49.6368 H         1 UNK         0.0600 
    224 H224       -8.8442  -26.5458  -50.4784 H         1 UNK         0.0600 
    225 H225       -6.7555  -24.2910  -53.2152 H         1 UNK         0.3000 
    226 H226       -7.0121  -26.6023  -55.1005 H         1 UNK         0.0600 
    227 H227       -4.9280  -26.6074  -53.7577 H         1 UNK         0.0600 
    228 H228       -4.5582  -26.2441  -55.4322 H         1 UNK         0.0600 
    229 H229       -4.5749  -24.9473  -54.2422 H         1 UNK         0.0600 
    230 H230       -7.9009  -23.4668  -54.8786 H         1 UNK         0.3000 
    231 H231       -8.2670  -21.7050  -56.1432 H         1 UNK         0.0600 
    232 H232       -7.9672  -23.5297  -58.5860 H         1 UNK         0.0600 
    233 H233       -8.7862  -21.9757  -58.5314 H         1 UNK         0.0600 
    234 H234       -9.4421  -23.3374  -57.6389 H         1 UNK         0.0600 
    235 H235       -5.6183  -22.1224  -55.2216 H         1 UNK         0.3000 
    236 H236       -3.8505  -20.9189  -57.3070 H         1 UNK         0.0600 
    237 H237       -3.2211  -22.4091  -54.6914 H         1 UNK         0.0600 
    238 H238       -3.0904  -23.0900  -56.3100 H         1 UNK         0.0600 
    239 H239       -2.0302  -21.7771  -55.8212 H         1 UNK         0.0600 
    240 H240       -2.3364  -19.2941  -56.4861 H         1 UNK         0.3000 
    241 H241       -1.7164  -17.4252  -55.5166 H         1 UNK         0.0600 
    242 H242       -5.2106  -15.8780  -56.0353 H         1 UNK         0.3800 
    243 H243       -4.6326  -17.4079  -56.6426 H         1 UNK         0.3800 
    244 H244       -2.9390  -18.5519  -52.9481 H         1 UNK         0.0800 
    245 H245       -1.8171  -17.2168  -53.0307 H         1 UNK         0.0800 
    246 H246       -1.3434  -20.1640  -51.3573 H         1 UNK         0.0800 
    247 H247        0.3890  -20.2059  -51.5666 H         1 UNK         0.0800 
@<TRIPOS>BOND
     1    1    2 1    
     2    1  127 1    
     3    1  128 1    
     4    1  129 1    
     5    2    3 2    
     6    2    4 am   BACKBONE|DICT|INTERRES
     7    4    5 1    
     8    4  130 1    
     9    5    6 1    
    10    5   65 1    
    11    5  131 1    
    12    6    7 1    
    13    6  132 1    
    14    6  133 1    
    15    7    8 1    
    16    8    9 1    
    17    8  134 1    
    18    8  135 1    
    19    9   10 ar   
    20    9   14 ar   
    21   10   11 ar   
    22   10  136 1    
    23   11   12 ar   
    24   11  126 1    
    25   12   13 ar   
    26   12  137 1    
    27   13   14 ar   
    28   13   15 1    
    29   14  138 1    
    30   15   16 1    
    31   15  139 1    
    32   15  140 1    
    33   16   17 1    
    34   17   18 1    
    35   17  141 1    
    36   17  142 1    
    37   18   19 1    
    38   18   67 1    
    39   18  143 1    
    40   19   20 am   BACKBONE|DICT|INTERRES
    41   19  144 1    
    42   20   21 2    
    43   20   22 1    
    44   22   23 1    
    45   22   24 1    
    46   22  145 1    
    47   23  146 1    
    48   23  147 1    
    49   23  148 1    
    50   24   25 am   BACKBONE|DICT|INTERRES
    51   24  149 1    
    52   25   26 2    
    53   25   27 1    
    54   27   28 1    
    55   27   29 1    
    56   27  150 1    
    57   28  151 1    
    58   28  152 1    
    59   28  153 1    
    60   29   30 am   BACKBONE|DICT|INTERRES
    61   29  154 1    
    62   30   31 2    
    63   30   32 1    
    64   32   33 1    
    65   32   34 1    
    66   32  155 1    
    67   33  156 1    
    68   33  157 1    
    69   33  158 1    
    70   34   35 am   BACKBONE|DICT|INTERRES
    71   34  159 1    
    72   35   36 2    
    73   35   37 1    
    74   37   38 1    
    75   37   39 1    
    76   37  160 1    
    77   38  161 1    
    78   38  162 1    
    79   38  163 1    
    80   39   40 am   BACKBONE|DICT|INTERRES
    81   39  164 1    
    82   40   41 2    
    83   40   42 1    
    84   42   43 1    
    85   42   44 1    
    86   42  165 1    
    87   43  166 1    
    88   43  167 1    
    89   43  168 1    
    90   44   45 am   BACKBONE|DICT|INTERRES
    91   44  169 1    
    92   45   46 2    
    93   45   47 1    
    94   47   48 1    
    95   47   49 1    
    96   47  170 1    
    97   48  171 1    
    98   48  172 1    
    99   48  173 1    
   100   49   50 am   BACKBONE|DICT|INTERRES
   101   49  174 1    
   102   50   51 2    
   103   50   52 1    
   104   52   53 1    
   105   52   54 1    
   106   52  175 1    
   107   53  176 1    
   108   53  177 1    
   109   53  178 1    
   110   54   55 am   BACKBONE|DICT|INTERRES
   111   54  179 1    
   112   55   56 2    
   113   55   57 1    
   114   57   58 1    
   115   57   59 1    
   116   57  180 1    
   117   58  181 1    
   118   58  182 1    
   119   58  183 1    
   120   59   60 am   BACKBONE|DICT|INTERRES
   121   59  184 1    
   122   60   61 2    
   123   60   62 1    
   124   62   63 1    
   125   62   64 1    
   126   62  185 1    
   127   63  186 1    
   128   63  187 1    
   129   63  188 1    
   130   64   65 am   BACKBONE|DICT|INTERRES
   131   64  189 1    
   132   65   66 2    
   133   67   68 2    
   134   67   69 am   BACKBONE|DICT|INTERRES
   135   69   70 1    
   136   69  190 1    
   137   70   71 1    
   138   70   72 1    
   139   70  191 1    
   140   71  192 1    
   141   71  193 1    
   142   71  194 1    
   143   72   73 2    
   144   72   74 am   BACKBONE|DICT|INTERRES
   145   74   75 1    
   146   74  195 1    
   147   75   76 1    
   148   75   77 1    
   149   75  196 1    
   150   76  197 1    
   151   76  198 1    
   152   76  199 1    
   153   77   78 2    
   154   77   79 am   BACKBONE|DICT|INTERRES
   155   79   80 1    
   156   79  200 1    
   157   80   81 1    
   158   80   82 1    
   159   80  201 1    
   160   81  202 1    
   161   81  203 1    
   162   81  204 1    
   163   82   83 2    
   164   82   84 am   BACKBONE|DICT|INTERRES
   165   84   85 1    
   166   84  205 1    
   167   85   86 1    
   168   85   87 1    
   169   85  206 1    
   170   86  207 1    
   171   86  208 1    
   172   86  209 1    
   173   87   88 2    
   174   87   89 am   BACKBONE|DICT|INTERRES
   175   89   90 1    
   176   89  210 1    
   177   90   91 1    
   178   90   92 1    
   179   90  211 1    
   180   91  212 1    
   181   91  213 1    
   182   91  214 1    
   183   92   93 2    
   184   92   94 am   BACKBONE|DICT|INTERRES
   185   94   95 1    
   186   94  215 1    
   187   95   96 1    
   188   95   97 1    
   189   95  216 1    
   190   96  217 1    
   191   96  218 1    
   192   96  219 1    
   193   97   98 2    
   194   97   99 am   BACKBONE|DICT|INTERRES
   195   99  100 1    
   196   99  220 1    
   197  100  101 1    
   198  100  102 1    
   199  100  221 1    
   200  101  222 1    
   201  101  223 1    
   202  101  224 1    
   203  102  103 2    
   204  102  104 am   BACKBONE|DICT|INTERRES
   205  104  105 1    
   206  104  225 1    
   207  105  106 1    
   208  105  107 1    
   209  105  226 1    
   210  106  227 1    
   211  106  228 1    
   212  106  229 1    
   213  107  108 2    
   214  107  109 am   BACKBONE|DICT|INTERRES
   215  109  110 1    
   216  109  230 1    
   217  110  111 1    
   218  110  112 1    
   219  110  231 1    
   220  111  232 1    
   221  111  233 1    
   222  111  234 1    
   223  112  113 2    
   224  112  114 am   BACKBONE|DICT|INTERRES
   225  114  115 1    
   226  114  235 1    
   227  115  116 1    
   228  115  117 1    
   229  115  236 1    
   230  116  237 1    
   231  116  238 1    
   232  116  239 1    
   233  117  118 2    
   234  117  119 am   BACKBONE|DICT|INTERRES
   235  119  120 1    
   236  119  240 1    
   237  120  121 1    
   238  120  124 1    
   239  120  241 1    
   240  121  122 am   BACKBONE|DICT|INTERRES
   241  121  123 2    
   242  122  242 1    
   243  122  243 1    
   244  124  125 1    
   245  124  244 1    
   246  124  245 1    
   247  125  126 1    
   248  126  246 1    
   249  126  247 1    
@<TRIPOS>SUBSTRUCTURE
     1 UNK         1 GROUP             0       ****    0 ROOT    
