@<TRIPOS>MOLECULE
3R540
247   249    1
SMALL
USER_CHARGES


@<TRIPOS>ATOM
      1 CA          7.4173  -11.4800  -51.5643 C.3       0 UNK        -0.1800 
      2 C           6.7047  -12.4217  -50.6035 C.2       0 UNK         0.5000 
      3 O           7.3074  -13.3868  -50.1321 O.2       0 UNK        -0.5000 
      4 N           5.4249  -12.1505  -50.3191 N.am      1 UNK        -0.5000 
      5 CA          4.6020  -12.8994  -49.3638 C.3       1 UNK         0.1400 
      6 C6          3.0895  -12.6552  -49.6133 C.3       23 UNK        -0.0398 
      7 S7          2.0670  -14.1352  -49.2966 S.3       23 UNK        -0.2404 
      8 C8          2.3500  -15.0510  -50.8448 C.3       23 UNK        -0.0205 
      9 C9          1.3002  -16.1248  -51.0860 C.ar      23 UNK        -0.0193 
     10 C10         0.1943  -15.8445  -51.8924 C.ar      23 UNK        -0.1150 
     11 C11        -0.7287  -16.8451  -52.2025 C.ar      23 UNK        -0.0193 
     12 C12        -0.5533  -18.1273  -51.6754 C.ar      23 UNK        -0.1150 
     13 C13         0.5423  -18.4281  -50.8594 C.ar      23 UNK        -0.0193 
     14 C14         1.4669  -17.4133  -50.5676 C.ar      23 UNK        -0.1150 
     15 C15         0.7119  -19.8778  -50.3971 C.3       23 UNK        -0.0205 
     16 S16         1.9972  -20.1796  -49.1335 S.3       23 UNK        -0.2404 
     17 C17         1.0490  -20.0396  -47.5818 C.3       23 UNK        -0.0398 
     18 CA          0.6962  -21.4327  -46.9995 C.3       11 UNK         0.1400 
     19 N           0.5868  -21.4232  -45.5382 N.am      11 UNK        -0.5000 
     20 C           0.4808  -22.5221  -44.7765 C.2       10 UNK         0.5000 
     21 O           0.5150  -23.6681  -45.2240 O.2       10 UNK        -0.5000 
     22 CA          0.2425  -22.3080  -43.2703 C.3       10 UNK         0.1400 
     23 CB          1.5588  -22.0070  -42.5388 C.3       10 UNK        -0.1800 
     24 N          -0.7314  -21.2480  -43.0047 N.am      10 UNK        -0.5000 
     25 C          -2.0211  -21.3056  -43.3673 C.2       9 UNK         0.5000 
     26 O          -2.5338  -22.2871  -43.9049 O.2       9 UNK        -0.5000 
     27 CA         -2.8701  -20.0421  -43.1390 C.3       9 UNK         0.1400 
     28 CB         -3.3569  -19.9671  -41.6846 C.3       9 UNK        -0.1800 
     29 N          -2.1605  -18.8111  -43.4919 N.am      9 UNK        -0.5000 
     30 C          -1.7323  -18.5058  -44.7260 C.2       8 UNK         0.5000 
     31 O          -1.9308  -19.2127  -45.7128 O.2       8 UNK        -0.5000 
     32 CA         -0.8852  -17.2300  -44.8763 C.3       8 UNK         0.1400 
     33 CB         -1.7726  -15.9773  -44.9110 C.3       8 UNK        -0.1800 
     34 N           0.1123  -17.1001  -43.8153 N.am      8 UNK        -0.5000 
     35 C           1.1177  -17.9614  -43.6066 C.2       7 UNK         0.5000 
     36 O           1.3498  -18.9275  -44.3316 O.2       7 UNK        -0.5000 
     37 CA          1.9721  -17.7390  -42.3480 C.3       7 UNK         0.1400 
     38 CB          3.0493  -16.6754  -42.5908 C.3       7 UNK        -0.1800 
     39 N           1.1563  -17.3575  -41.1973 N.am      7 UNK        -0.5000 
     40 C           0.3263  -18.1906  -40.5557 C.2       6 UNK         0.5000 
     41 O           0.1814  -19.3762  -40.8535 O.2       6 UNK        -0.5000 
     42 CA         -0.5076  -17.5823  -39.4142 C.3       6 UNK         0.1400 
     43 CB          0.3043  -17.5413  -38.1111 C.3       6 UNK        -0.1800 
     44 N          -0.9908  -16.2364  -39.7293 N.am      6 UNK        -0.5000 
     45 C          -1.8953  -15.9670  -40.6806 C.2       5 UNK         0.5000 
     46 O          -2.4245  -16.8263  -41.3843 O.2       5 UNK        -0.5000 
     47 CA         -2.2331  -14.4843  -40.9142 C.3       5 UNK         0.1400 
     48 CB         -3.2882  -14.0047  -39.9061 C.3       5 UNK        -0.1800 
     49 N          -1.0674  -13.5966  -40.8608 N.am      5 UNK        -0.5000 
     50 C          -0.0185  -13.6679  -41.6899 C.2       4 UNK         0.5000 
     51 O           0.1347  -14.5559  -42.5318 O.2       4 UNK        -0.5000 
     52 CA          1.0470  -12.5759  -41.5549 C.3       4 UNK         0.1400 
     53 CB          2.2238  -13.0612  -40.6936 C.3       4 UNK        -0.1800 
     54 N           1.5238  -12.2531  -42.8951 N.am      4 UNK        -0.5000 
     55 C           1.7274  -11.0211  -43.3735 C.2       3 UNK         0.5000 
     56 O           1.6035   -9.9987  -42.6959 O.2       3 UNK        -0.5000 
     57 CA          2.1204  -10.9237  -44.8652 C.3       3 UNK         0.1400 
     58 CB          2.6943   -9.5434  -45.2487 C.3       3 UNK        -0.1800 
     59 N           3.0216  -11.9932  -45.3134 N.am      3 UNK        -0.5000 
     60 C           4.2465  -12.2727  -44.8389 C.2       2 UNK         0.5000 
     61 O           4.7745  -11.6895  -43.8916 O.2       2 UNK        -0.5000 
     62 CA          5.0249  -13.3900  -45.5615 C.3       2 UNK         0.1400 
     63 CB          4.7629  -14.7445  -44.8906 C.3       2 UNK        -0.1800 
     64 N           4.7137  -13.5018  -46.9896 N.am      2 UNK        -0.5000 
     65 C           5.0042  -12.5722  -47.9090 C.2       1 UNK         0.5000 
     66 O           5.5462  -11.4953  -47.6445 O.2       1 UNK        -0.5000 
     67 C          -0.5628  -22.0277  -47.6635 C.2       11 UNK         0.5000 
     68 O          -0.4391  -22.8514  -48.5684 O.2       11 UNK        -0.5000 
     69 N          -1.7489  -21.6394  -47.1758 N.am      12 UNK        -0.5000 
     70 CA         -3.0414  -22.1646  -47.6126 C.3       12 UNK         0.1400 
     71 CB         -4.1741  -21.3694  -46.9449 C.3       12 UNK        -0.1800 
     72 C          -3.1914  -23.6748  -47.3563 C.2       12 UNK         0.5000 
     73 O          -3.6228  -24.4023  -48.2522 O.2       12 UNK        -0.5000 
     74 N          -2.7874  -24.1224  -46.1596 N.am      13 UNK        -0.5000 
     75 CA         -2.7603  -25.5314  -45.7657 C.3       13 UNK         0.1400 
     76 CB         -2.4360  -25.6375  -44.2680 C.3       13 UNK        -0.1800 
     77 C          -1.7756  -26.3739  -46.5988 C.2       13 UNK         0.5000 
     78 O          -2.0796  -27.5268  -46.9056 O.2       13 UNK        -0.5000 
     79 N          -0.6272  -25.7856  -46.9614 N.am      14 UNK        -0.5000 
     80 CA          0.3684  -26.3936  -47.8432 C.3       14 UNK         0.1400 
     81 CB          1.6895  -25.6151  -47.7437 C.3       14 UNK        -0.1800 
     82 C          -0.1108  -26.4791  -49.3047 C.2       14 UNK         0.5000 
     83 O           0.1331  -27.4936  -49.9591 O.2       14 UNK        -0.5000 
     84 N          -0.7775  -25.4202  -49.7872 N.am      15 UNK        -0.5000 
     85 CA         -1.3405  -25.3233  -51.1336 C.3       15 UNK         0.1400 
     86 CB         -1.7833  -23.8766  -51.4095 C.3       15 UNK        -0.1800 
     87 C          -2.4922  -26.3177  -51.3647 C.2       15 UNK         0.5000 
     88 O          -2.4201  -27.1086  -52.3060 O.2       15 UNK        -0.5000 
     89 N          -3.5113  -26.2666  -50.4904 N.am      16 UNK        -0.5000 
     90 CA         -4.6784  -27.1598  -50.4320 C.3       16 UNK         0.1400 
     91 CB         -4.2582  -28.5251  -49.8513 C.3       16 UNK        -0.1800 
     92 C          -5.4491  -27.2935  -51.7685 C.2       16 UNK         0.5000 
     93 O          -5.8691  -28.3918  -52.1397 O.2       16 UNK        -0.5000 
     94 N          -5.6084  -26.1707  -52.4755 N.am      17 UNK        -0.5000 
     95 CA         -6.2280  -26.0563  -53.7946 C.3       17 UNK         0.1400 
     96 CB         -5.2289  -26.5158  -54.8769 C.3       17 UNK        -0.1800 
     97 C          -6.6701  -24.5972  -53.9971 C.2       17 UNK         0.5000 
     98 O          -6.6182  -23.8130  -53.0486 O.2       17 UNK        -0.5000 
     99 N          -7.0483  -24.2216  -55.2277 N.am      18 UNK        -0.5000 
    100 CA        -7.4343  -22.8526  -55.6082 C.3       18 UNK         0.1400 
    101 CB        -7.8407  -22.8364  -57.0888 C.3       18 UNK        -0.1800 
    102 C         -6.3477  -21.7880  -55.3379 C.2       18 UNK         0.5000 
    103 O         -6.6751  -20.6237  -55.1012 O.2       18 UNK        -0.5000 
    104 N         -5.0789  -22.2198  -55.3198 N.am      19 UNK        -0.5000 
    105 CA        -3.9164  -21.4299  -54.9164 C.3       19 UNK         0.1400 
    106 CB        -2.6407  -22.2247  -55.2329 C.3       19 UNK        -0.1800 
    107 C         -3.9336  -21.0096  -53.4323 C.2       19 UNK         0.5000 
    108 O         -3.3243  -19.9954  -53.1000 O.2       19 UNK        -0.5000 
    109 N         -4.6507  -21.7512  -52.5726 N.am      20 UNK        -0.5000 
    110 CA        -4.8382  -21.4245  -51.1553 C.3       20 UNK         0.1400 
    111 CB        -5.4316  -22.6383  -50.4232 C.3       20 UNK        -0.1800 
    112 C         -5.7451  -20.1980  -50.9536 C.2       20 UNK         0.5000 
    113 O         -5.5386  -19.4312  -50.0138 O.2       20 UNK        -0.5000 
    114 N         -6.7157  -20.0302  -51.8610 N.am      21 UNK        -0.5000 
    115 CA        -7.5856  -18.8582  -51.9594 C.3       21 UNK         0.1400 
    116 CB        -8.9378  -19.3078  -52.5371 C.3       21 UNK        -0.1800 
    117 C         -6.9643  -17.7443  -52.8281 C.2       21 UNK         0.5000 
    118 O         -7.5593  -16.6724  -52.9477 O.2       21 UNK        -0.5000 
    119 N         -5.7984  -18.0220  -53.4275 N.am      22 UNK        -0.5000 
    120 CA        -5.0676  -17.1733  -54.3790 C.3       22 UNK         0.1400 
    121 C         -5.8266  -16.9459  -55.7214 C.2       22 UNK         0.5000 
    122 N         -6.6231  -17.9037  -56.1826 N.am      22 UNK        -0.7600 
    123 O         -5.6819  -15.9106  -56.3664 O.2       22 UNK        -0.5000 
    124 C124       -4.5138  -15.8674  -53.7402 C.3       23 UNK        -0.0398 
    125 S125       -3.4253  -16.1812  -52.3050 S.3       23 UNK        -0.2404 
    126 C126       -1.8702  -16.5617  -53.1665 C.3       23 UNK        -0.0205 
    127 H127        6.7619  -10.6800  -51.9093 H         1 UNK         0.0600 
    128 H128        7.7703  -12.0300  -52.4366 H         1 UNK         0.0600 
    129 H129        8.2786  -11.0259  -51.0745 H         1 UNK         0.0600 
    130 H130        5.0016  -11.3201  -50.7079 H         1 UNK         0.3000 
    131 H131        4.8178  -13.9569  -49.5312 H         1 UNK         0.0600 
    132 H132        2.9139  -12.3525  -50.6466 H         1 UNK         0.0800 
    133 H133        2.7095  -11.8269  -49.0117 H         1 UNK         0.0800 
    134 H134        3.3425  -15.5034  -50.8196 H         1 UNK         0.0800 
    135 H135        2.3564  -14.3588  -51.6883 H         1 UNK         0.0800 
    136 H136        0.0713  -14.8544  -52.3092 H         1 UNK         0.1150 
    137 H137       -1.2606  -18.9045  -51.9292 H         1 UNK         0.1150 
    138 H138        2.3387  -17.6193  -49.9646 H         1 UNK         0.1150 
    139 H139       -0.2451  -20.2626  -50.0420 H         1 UNK         0.0800 
    140 H140        0.9674  -20.4758  -51.2728 H         1 UNK         0.0800 
    141 H141        0.1667  -19.4109  -47.7177 H         1 UNK         0.0800 
    142 H142        1.6910  -19.4982  -46.8865 H         1 UNK         0.0800 
    143 H143        1.5228  -22.1108  -47.2238 H         1 UNK         0.0600 
    144 H144        0.6072  -20.5141  -45.0838 H         1 UNK         0.3000 
    145 H145       -0.1613  -23.2379  -42.8647 H         1 UNK         0.0600 
    146 H146        1.4004  -21.9184  -41.4639 H         1 UNK         0.0600 
    147 H147        2.2831  -22.8071  -42.6964 H         1 UNK         0.0600 
    148 H148        2.0139  -21.0802  -42.8866 H         1 UNK         0.0600 
    149 H149       -0.3930  -20.4262  -42.5155 H         1 UNK         0.3000 
    150 H150       -3.7483  -20.1127  -43.7835 H         1 UNK         0.0600 
    151 H151       -3.8975  -20.8725  -41.4062 H         1 UNK         0.0600 
    152 H152       -4.0354  -19.1263  -41.5398 H         1 UNK         0.0600 
    153 H153       -2.5277  -19.8513  -40.9865 H         1 UNK         0.0600 
    154 H154       -2.0043  -18.1468  -42.7391 H         1 UNK         0.3000 
    155 H155       -0.3524  -17.2946  -45.8274 H         1 UNK         0.0600 
    156 H156       -2.3201  -15.8447  -43.9779 H         1 UNK         0.0600 
    157 H157       -2.5052  -16.0407  -45.7165 H         1 UNK         0.0600 
    158 H158       -1.1787  -15.0789  -45.0800 H         1 UNK         0.0600 
    159 H159        0.0230  -16.2927  -43.2034 H         1 UNK         0.3000 
    160 H160        2.4747  -18.6797  -42.1133 H         1 UNK         0.0600 
    161 H161        2.6144  -15.7146  -42.8666 H         1 UNK         0.0600 
    162 H162        3.7140  -16.9844  -43.3979 H         1 UNK         0.0600 
    163 H163        3.6651  -16.5244  -41.7041 H         1 UNK         0.0600 
    164 H164        1.1767  -16.3866  -40.9242 H         1 UNK         0.3000 
    165 H165       -1.3747  -18.2272  -39.2557 H         1 UNK         0.0600 
    166 H166       -0.3032  -17.1836  -37.2796 H         1 UNK         0.0600 
    167 H167        0.6641  -18.5361  -37.8448 H         1 UNK         0.0600 
    168 H168        1.1744  -16.8893  -38.1967 H         1 UNK         0.0600 
    169 H169       -0.6016  -15.4704  -39.1998 H         1 UNK         0.3000 
    170 H170       -2.6619  -14.4025  -41.9151 H         1 UNK         0.0600 
    171 H171       -4.1748  -14.6396  -39.9371 H         1 UNK         0.0600 
    172 H172       -2.9078  -14.0217  -38.8841 H         1 UNK         0.0600 
    173 H173       -3.6118  -12.9875  -40.1275 H         1 UNK         0.0600 
    174 H174       -1.1090  -12.8444  -40.1882 H         1 UNK         0.3000 
    175 H175        0.5929  -11.6998  -41.0872 H         1 UNK         0.0600 
    176 H176        2.7043  -13.9407  -41.1231 H         1 UNK         0.0600 
    177 H177        2.9821  -12.2842  -40.5950 H         1 UNK         0.0600 
    178 H178        1.8926  -13.3230  -39.6880 H         1 UNK         0.0600 
    179 H179        1.5857  -13.0434  -43.5230 H         1 UNK         0.3000 
    180 H180        1.1933  -11.0558  -45.4249 H         1 UNK         0.0600 
    181 H181        3.5991   -9.3113  -44.6862 H         1 UNK         0.0600 
    182 H182        1.9732   -8.7494  -45.0516 H         1 UNK         0.0600 
    183 H183        2.9403   -9.5004  -46.3099 H         1 UNK         0.0600 
    184 H184        2.6870  -12.5501  -46.0865 H         1 UNK         0.3000 
    185 H185        6.0887  -13.1621  -45.4659 H         1 UNK         0.0600 
    186 H186        5.3932  -15.5255  -45.3161 H         1 UNK         0.0600 
    187 H187        4.9793  -14.6997  -43.8223 H         1 UNK         0.0600 
    188 H188        3.7229  -15.0512  -45.0070 H         1 UNK         0.0600 
    189 H189        4.2575  -14.3536  -47.2845 H         1 UNK         0.3000 
    190 H190       -1.7731  -20.9098  -46.4670 H         1 UNK         0.3000 
    191 H191       -3.1040  -22.0095  -48.6894 H         1 UNK         0.0600 
    192 H192       -4.0976  -21.3934  -45.8589 H         1 UNK         0.0600 
    193 H193       -5.1537  -21.7697  -47.2050 H         1 UNK         0.0600 
    194 H194       -4.1558  -20.3250  -47.2573 H         1 UNK         0.0600 
    195 H195       -2.4897  -23.4483  -45.4595 H         1 UNK         0.3000 
    196 H196       -3.7603  -25.9395  -45.9266 H         1 UNK         0.0600 
    197 H197       -2.4343  -26.6780  -43.9409 H         1 UNK         0.0600 
    198 H198       -3.1750  -25.1080  -43.6665 H         1 UNK         0.0600 
    199 H199       -1.4561  -25.2185  -44.0380 H         1 UNK         0.0600 
    200 H200       -0.4194  -24.8582  -46.6067 H         1 UNK         0.3000 
    201 H201        0.5534  -27.4117  -47.4940 H         1 UNK         0.0600 
    202 H202        2.0655  -25.6070  -46.7205 H         1 UNK         0.0600 
    203 H203        1.5750  -24.5799  -48.0649 H         1 UNK         0.0600 
    204 H204        2.4581  -26.0697  -48.3698 H         1 UNK         0.0600 
    205 H205       -0.8659  -24.5952  -49.2000 H         1 UNK         0.3000 
    206 H206       -0.5484  -25.5684  -51.8442 H         1 UNK         0.0600 
    207 H207       -0.9278  -23.2010  -51.4233 H         1 UNK         0.0600 
    208 H208       -2.2807  -23.7930  -52.3758 H         1 UNK         0.0600 
    209 H209       -2.4743  -23.5140  -50.6498 H         1 UNK         0.0600 
    210 H210       -3.4627  -25.5766  -49.7434 H         1 UNK         0.3000 
    211 H211       -5.3739  -26.7024  -49.7270 H         1 UNK         0.0600 
    212 H212       -3.5731  -29.0514  -50.5168 H         1 UNK         0.0600 
    213 H213       -5.1232  -29.1694  -49.6907 H         1 UNK         0.0600 
    214 H214       -3.7624  -28.4063  -48.8882 H         1 UNK         0.0600 
    215 H215       -5.3148  -25.2892  -52.0768 H         1 UNK         0.3000 
    216 H216       -7.1224  -26.6811  -53.8291 H         1 UNK         0.0600 
    217 H217       -5.6776  -26.5050  -55.8704 H         1 UNK         0.0600 
    218 H218       -4.8909  -27.5363  -54.6958 H         1 UNK         0.0600 
    219 H219       -4.3451  -25.8769  -54.9025 H         1 UNK         0.0600 
    220 H220       -7.0670  -24.9120  -55.9643 H         1 UNK         0.3000 
    221 H221       -8.3061  -22.5785  -55.0107 H         1 UNK         0.0600 
    222 H222       -7.0149  -23.1345  -57.7359 H         1 UNK         0.0600 
    223 H223       -8.6763  -23.5108  -57.2765 H         1 UNK         0.0600 
    224 H224       -8.1556  -21.8383  -57.3969 H         1 UNK         0.0600 
    225 H225       -4.9089  -23.1895  -55.5398 H         1 UNK         0.3000 
    226 H226       -3.9086  -20.5153  -55.5130 H         1 UNK         0.0600 
    227 H227       -2.5570  -22.4245  -56.3013 H         1 UNK         0.0600 
    228 H228       -1.7490  -21.6701  -54.9369 H         1 UNK         0.0600 
    229 H229       -2.6216  -23.1818  -54.7109 H         1 UNK         0.0600 
    230 H230       -5.1850  -22.5419  -52.9191 H         1 UNK         0.3000 
    231 H231       -3.8594  -21.1980  -50.7289 H         1 UNK         0.0600 
    232 H232       -4.8544  -23.5432  -50.6065 H         1 UNK         0.0600 
    233 H233       -6.4616  -22.8296  -50.7234 H         1 UNK         0.0600 
    234 H234       -5.4513  -22.4746  -49.3484 H         1 UNK         0.0600 
    235 H235       -6.7999  -20.7092  -52.6049 H         1 UNK         0.3000 
    236 H236       -7.7577  -18.4442  -50.9638 H         1 UNK         0.0600 
    237 H237       -9.6397  -18.4745  -52.5867 H         1 UNK         0.0600 
    238 H238       -8.8313  -19.7074  -53.5464 H         1 UNK         0.0600 
    239 H239       -9.3948  -20.0793  -51.9171 H         1 UNK         0.0600 
    240 H240       -5.3749  -18.9188  -53.2402 H         1 UNK         0.3000 
    241 H241       -4.2027  -17.7657  -54.6762 H         1 UNK         0.0600 
    242 H242       -6.7162  -18.7878  -55.6896 H         1 UNK         0.3800 
    243 H243       -7.1131  -17.7641  -57.0516 H         1 UNK         0.3800 
    244 H244       -5.3336  -15.2247  -53.4173 H         1 UNK         0.0800 
    245 H245       -3.9523  -15.2868  -54.4738 H         1 UNK         0.0800 
    246 H246       -1.6073  -15.7313  -53.8237 H         1 UNK         0.0800 
    247 H247       -2.0166  -17.4290  -53.8118 H         1 UNK         0.0800 
@<TRIPOS>BOND
     1    1    2 1    
     2    1  127 1    
     3    1  128 1    
     4    1  129 1    
     5    2    3 2    
     6    2    4 am   BACKBONE|DICT|INTERRES
     7    4    5 1    
     8    4  130 1    
     9    5    6 1    
    10    5   65 1    
    11    5  131 1    
    12    6    7 1    
    13    6  132 1    
    14    6  133 1    
    15    7    8 1    
    16    8    9 1    
    17    8  134 1    
    18    8  135 1    
    19    9   10 ar   
    20    9   14 ar   
    21   10   11 ar   
    22   10  136 1    
    23   11   12 ar   
    24   11  126 1    
    25   12   13 ar   
    26   12  137 1    
    27   13   14 ar   
    28   13   15 1    
    29   14  138 1    
    30   15   16 1    
    31   15  139 1    
    32   15  140 1    
    33   16   17 1    
    34   17   18 1    
    35   17  141 1    
    36   17  142 1    
    37   18   19 1    
    38   18   67 1    
    39   18  143 1    
    40   19   20 am   BACKBONE|DICT|INTERRES
    41   19  144 1    
    42   20   21 2    
    43   20   22 1    
    44   22   23 1    
    45   22   24 1    
    46   22  145 1    
    47   23  146 1    
    48   23  147 1    
    49   23  148 1    
    50   24   25 am   BACKBONE|DICT|INTERRES
    51   24  149 1    
    52   25   26 2    
    53   25   27 1    
    54   27   28 1    
    55   27   29 1    
    56   27  150 1    
    57   28  151 1    
    58   28  152 1    
    59   28  153 1    
    60   29   30 am   BACKBONE|DICT|INTERRES
    61   29  154 1    
    62   30   31 2    
    63   30   32 1    
    64   32   33 1    
    65   32   34 1    
    66   32  155 1    
    67   33  156 1    
    68   33  157 1    
    69   33  158 1    
    70   34   35 am   BACKBONE|DICT|INTERRES
    71   34  159 1    
    72   35   36 2    
    73   35   37 1    
    74   37   38 1    
    75   37   39 1    
    76   37  160 1    
    77   38  161 1    
    78   38  162 1    
    79   38  163 1    
    80   39   40 am   BACKBONE|DICT|INTERRES
    81   39  164 1    
    82   40   41 2    
    83   40   42 1    
    84   42   43 1    
    85   42   44 1    
    86   42  165 1    
    87   43  166 1    
    88   43  167 1    
    89   43  168 1    
    90   44   45 am   BACKBONE|DICT|INTERRES
    91   44  169 1    
    92   45   46 2    
    93   45   47 1    
    94   47   48 1    
    95   47   49 1    
    96   47  170 1    
    97   48  171 1    
    98   48  172 1    
    99   48  173 1    
   100   49   50 am   BACKBONE|DICT|INTERRES
   101   49  174 1    
   102   50   51 2    
   103   50   52 1    
   104   52   53 1    
   105   52   54 1    
   106   52  175 1    
   107   53  176 1    
   108   53  177 1    
   109   53  178 1    
   110   54   55 am   BACKBONE|DICT|INTERRES
   111   54  179 1    
   112   55   56 2    
   113   55   57 1    
   114   57   58 1    
   115   57   59 1    
   116   57  180 1    
   117   58  181 1    
   118   58  182 1    
   119   58  183 1    
   120   59   60 am   BACKBONE|DICT|INTERRES
   121   59  184 1    
   122   60   61 2    
   123   60   62 1    
   124   62   63 1    
   125   62   64 1    
   126   62  185 1    
   127   63  186 1    
   128   63  187 1    
   129   63  188 1    
   130   64   65 am   BACKBONE|DICT|INTERRES
   131   64  189 1    
   132   65   66 2    
   133   67   68 2    
   134   67   69 am   BACKBONE|DICT|INTERRES
   135   69   70 1    
   136   69  190 1    
   137   70   71 1    
   138   70   72 1    
   139   70  191 1    
   140   71  192 1    
   141   71  193 1    
   142   71  194 1    
   143   72   73 2    
   144   72   74 am   BACKBONE|DICT|INTERRES
   145   74   75 1    
   146   74  195 1    
   147   75   76 1    
   148   75   77 1    
   149   75  196 1    
   150   76  197 1    
   151   76  198 1    
   152   76  199 1    
   153   77   78 2    
   154   77   79 am   BACKBONE|DICT|INTERRES
   155   79   80 1    
   156   79  200 1    
   157   80   81 1    
   158   80   82 1    
   159   80  201 1    
   160   81  202 1    
   161   81  203 1    
   162   81  204 1    
   163   82   83 2    
   164   82   84 am   BACKBONE|DICT|INTERRES
   165   84   85 1    
   166   84  205 1    
   167   85   86 1    
   168   85   87 1    
   169   85  206 1    
   170   86  207 1    
   171   86  208 1    
   172   86  209 1    
   173   87   88 2    
   174   87   89 am   BACKBONE|DICT|INTERRES
   175   89   90 1    
   176   89  210 1    
   177   90   91 1    
   178   90   92 1    
   179   90  211 1    
   180   91  212 1    
   181   91  213 1    
   182   91  214 1    
   183   92   93 2    
   184   92   94 am   BACKBONE|DICT|INTERRES
   185   94   95 1    
   186   94  215 1    
   187   95   96 1    
   188   95   97 1    
   189   95  216 1    
   190   96  217 1    
   191   96  218 1    
   192   96  219 1    
   193   97   98 2    
   194   97   99 am   BACKBONE|DICT|INTERRES
   195   99  100 1    
   196   99  220 1    
   197  100  101 1    
   198  100  102 1    
   199  100  221 1    
   200  101  222 1    
   201  101  223 1    
   202  101  224 1    
   203  102  103 2    
   204  102  104 am   BACKBONE|DICT|INTERRES
   205  104  105 1    
   206  104  225 1    
   207  105  106 1    
   208  105  107 1    
   209  105  226 1    
   210  106  227 1    
   211  106  228 1    
   212  106  229 1    
   213  107  108 2    
   214  107  109 am   BACKBONE|DICT|INTERRES
   215  109  110 1    
   216  109  230 1    
   217  110  111 1    
   218  110  112 1    
   219  110  231 1    
   220  111  232 1    
   221  111  233 1    
   222  111  234 1    
   223  112  113 2    
   224  112  114 am   BACKBONE|DICT|INTERRES
   225  114  115 1    
   226  114  235 1    
   227  115  116 1    
   228  115  117 1    
   229  115  236 1    
   230  116  237 1    
   231  116  238 1    
   232  116  239 1    
   233  117  118 2    
   234  117  119 am   BACKBONE|DICT|INTERRES
   235  119  120 1    
   236  119  240 1    
   237  120  121 1    
   238  120  124 1    
   239  120  241 1    
   240  121  122 am   BACKBONE|DICT|INTERRES
   241  121  123 2    
   242  122  242 1    
   243  122  243 1    
   244  124  125 1    
   245  124  244 1    
   246  124  245 1    
   247  125  126 1    
   248  126  246 1    
   249  126  247 1    
@<TRIPOS>SUBSTRUCTURE
     1 UNK         1 GROUP             0       ****    0 ROOT    
