@<TRIPOS>MOLECULE
3R540
247   249    1
SMALL
USER_CHARGES


@<TRIPOS>ATOM
      1 CA         -5.3256  -12.0637  -53.5748 C.3       0 UNK        -0.1800 
      2 C          -4.2148  -12.8829  -52.9327 C.2       0 UNK         0.5000 
      3 O          -3.6492  -13.7635  -53.5803 O.2       0 UNK        -0.5000 
      4 N          -3.8995  -12.5978  -51.6661 N.am      1 UNK        -0.5000 
      5 CA         -2.8583  -13.2593  -50.8858 C.3       1 UNK         0.1400 
      6 C6         -3.3310  -14.6365  -50.3527 C.3       23 UNK        -0.0398 
      7 S7         -2.0203  -15.6150  -49.5500 S.3       23 UNK        -0.2404 
      8 C8         -1.0873  -16.2250  -50.9920 C.3       23 UNK        -0.0205 
      9 C9         -0.0624  -17.2992  -50.6372 C.ar      23 UNK        -0.0193 
     10 C10         0.1290  -18.3781  -51.5045 C.ar      23 UNK        -0.1150 
     11 C11         1.0924  -19.3522  -51.2289 C.ar      23 UNK        -0.0193 
     12 C12         1.8430  -19.2658  -50.0548 C.ar      23 UNK        -0.1150 
     13 C13         1.6478  -18.2072  -49.1634 C.ar      23 UNK        -0.0193 
     14 C14         0.7122  -17.2165  -49.4739 C.ar      23 UNK        -0.1150 
     15 C15         2.4550  -18.1109  -47.8744 C.3       23 UNK        -0.0205 
     16 S16         2.4778  -19.6594  -46.9083 S.3       23 UNK        -0.2404 
     17 C17         0.7054  -19.9744  -46.5909 C.3       23 UNK        -0.0398 
     18 CA          0.2617  -21.3998  -47.0149 C.3       11 UNK         0.1400 
     19 N           1.0595  -22.4324  -46.3652 N.am      11 UNK        -0.5000 
     20 C           1.6073  -23.4897  -46.9737 C.2       10 UNK         0.5000 
     21 O           1.5079  -23.7139  -48.1800 O.2       10 UNK        -0.5000 
     22 CA          2.4148  -24.4653  -46.0907 C.3       10 UNK         0.1400 
     23 CB          3.9205  -24.2954  -46.3460 C.3       10 UNK        -0.1800 
     24 N           2.1638  -24.3149  -44.6543 N.am      10 UNK        -0.5000 
     25 C           1.0046  -24.6008  -44.0478 C.2       9 UNK         0.5000 
     26 O           0.0182  -25.0417  -44.6356 O.2       9 UNK        -0.5000 
     27 CA          0.9101  -24.2708  -42.5463 C.3       9 UNK         0.1400 
     28 CB          1.4210  -25.4463  -41.7013 C.3       9 UNK        -0.1800 
     29 N           1.6134  -23.0435  -42.1554 N.am      9 UNK        -0.5000 
     30 C           1.3551  -21.8241  -42.6462 C.2       8 UNK         0.5000 
     31 O           0.5368  -21.6095  -43.5421 O.2       8 UNK        -0.5000 
     32 CA          2.1017  -20.6460  -42.0093 C.3       8 UNK         0.1400 
     33 CB          2.6765  -19.6952  -43.0713 C.3       8 UNK        -0.1800 
     34 N           1.1547  -19.9205  -41.1697 N.am      8 UNK        -0.5000 
     35 C           0.9797  -20.1437  -39.8601 C.2       7 UNK         0.5000 
     36 O           1.6683  -20.9398  -39.2189 O.2       7 UNK        -0.5000 
     37 CA         -0.1688  -19.3989  -39.1415 C.3       7 UNK         0.1400 
     38 CB          0.2471  -18.8877  -37.7459 C.3       7 UNK        -0.1800 
     39 N          -0.8005  -18.3324  -39.9284 N.am      7 UNK        -0.5000 
     40 C          -0.2580  -17.1742  -40.3290 C.2       6 UNK         0.5000 
     41 O           0.8920  -16.8132  -40.0717 O.2       6 UNK        -0.5000 
     42 CA         -1.1650  -16.2803  -41.1956 C.3       6 UNK         0.1400 
     43 CB         -1.3715  -14.9055  -40.5415 C.3       6 UNK        -0.1800 
     44 N          -0.6408  -16.1063  -42.5510 N.am      6 UNK        -0.5000 
     45 C          -0.3959  -17.1038  -43.4161 C.2       5 UNK         0.5000 
     46 O          -0.5788  -18.2923  -43.1508 O.2       5 UNK        -0.5000 
     47 CA          0.1205  -16.7306  -44.8202 C.3       5 UNK         0.1400 
     48 CB         -1.0290  -16.7962  -45.8370 C.3       5 UNK        -0.1800 
     49 N           0.7463  -15.4116  -44.8936 N.am      5 UNK        -0.5000 
     50 C           1.9094  -15.0850  -44.3111 C.2       4 UNK         0.5000 
     51 O           2.6306  -15.8978  -43.7329 O.2       4 UNK        -0.5000 
     52 CA          2.3399  -13.6029  -44.3638 C.3       4 UNK         0.1400 
     53 CB          3.4565  -13.4094  -45.4018 C.3       4 UNK        -0.1800 
     54 N           1.2576  -12.6609  -44.6647 N.am      4 UNK        -0.5000 
     55 C           0.1351  -12.4813  -43.9525 C.2       3 UNK         0.5000 
     56 O          -0.1108  -13.0866  -42.9100 O.2       3 UNK        -0.5000 
     57 CA         -0.9069  -11.4935  -44.5186 C.3       3 UNK         0.1400 
     58 CB         -0.8875  -10.1796  -43.7230 C.3       3 UNK        -0.1800 
     59 N          -0.7296  -11.1901  -45.9439 N.am      3 UNK        -0.5000 
     60 C          -0.8637  -12.0729  -46.9429 C.2       2 UNK         0.5000 
     61 O          -1.1567  -13.2588  -46.7721 O.2       2 UNK        -0.5000 
     62 CA         -0.5258  -11.5471  -48.3493 C.3       2 UNK         0.1400 
     63 CB          0.9974  -11.5524  -48.5612 C.3       2 UNK        -0.1800 
     64 N          -1.1388  -12.3562  -49.3992 N.am      2 UNK        -0.5000 
     65 C          -2.4213  -12.2884  -49.7729 C.2       1 UNK         0.5000 
     66 O          -3.2365  -11.4911  -49.2989 O.2       1 UNK        -0.5000 
     67 C          -1.2194  -21.6526  -46.6786 C.2       11 UNK         0.5000 
     68 O          -2.0139  -21.9347  -47.5770 O.2       11 UNK        -0.5000 
     69 N          -1.5639  -21.5388  -45.3889 N.am      12 UNK        -0.5000 
     70 CA         -2.9338  -21.5424  -44.8860 C.3       12 UNK         0.1400 
     71 CB         -2.9764  -20.8440  -43.5174 C.3       12 UNK        -0.1800 
     72 C          -3.5450  -22.9483  -44.8102 C.2       12 UNK         0.5000 
     73 O          -4.5723  -23.1920  -45.4423 O.2       12 UNK        -0.5000 
     74 N          -2.9175  -23.8481  -44.0385 N.am      13 UNK        -0.5000 
     75 CA         -3.4369  -25.1953  -43.7633 C.3       13 UNK         0.1400 
     76 CB         -2.6544  -25.8381  -42.6077 C.3       13 UNK        -0.1800 
     77 C          -3.4434  -26.1069  -45.0046 C.2       13 UNK         0.5000 
     78 O          -4.3436  -26.9338  -45.1521 O.2       13 UNK        -0.5000 
     79 N          -2.4673  -25.8992  -45.8966 N.am      14 UNK        -0.5000 
     80 CA         -2.3752  -26.5225  -47.2169 C.3       14 UNK         0.1400 
     81 CB         -0.9585  -26.2870  -47.7623 C.3       14 UNK        -0.1800 
     82 C          -3.4232  -26.0010  -48.2245 C.2       14 UNK         0.5000 
     83 O          -3.5771  -26.6033  -49.2870 O.2       14 UNK        -0.5000 
     84 N          -4.0937  -24.8844  -47.8951 N.am      15 UNK        -0.5000 
     85 CA         -5.0843  -24.1500  -48.6926 C.3       15 UNK         0.1400 
     86 CB         -6.3146  -25.0243  -49.0087 C.3       15 UNK        -0.1800 
     87 C          -4.5029  -23.4754  -49.9519 C.2       15 UNK         0.5000 
     88 O          -5.2643  -23.0042  -50.7972 O.2       15 UNK        -0.5000 
     89 N          -3.1699  -23.3886  -50.0427 N.am      16 UNK        -0.5000 
     90 CA         -2.4429  -22.7521  -51.1392 C.3       16 UNK         0.1400 
     91 CB         -0.9567  -23.1143  -51.0262 C.3       16 UNK        -0.1800 
     92 C          -2.6454  -21.2266  -51.1667 C.2       16 UNK         0.5000 
     93 O          -2.6863  -20.6404  -52.2487 O.2       16 UNK        -0.5000 
     94 N          -2.8154  -20.6256  -49.9812 N.am      17 UNK        -0.5000 
     95 CA         -3.1854  -19.2252  -49.7924 C.3       17 UNK         0.1400 
     96 CB         -2.9738  -18.8388  -48.3218 C.3       17 UNK        -0.1800 
     97 C          -4.6321  -18.9330  -50.2192 C.2       17 UNK         0.5000 
     98 O          -4.8856  -17.9002  -50.8377 O.2       17 UNK        -0.5000 
     99 N          -5.5481  -19.8586  -49.9004 N.am      18 UNK        -0.5000 
    100 CA        -6.9673  -19.7769  -50.2510 C.3       18 UNK         0.1400 
    101 CB        -7.7567  -20.8214  -49.4463 C.3       18 UNK        -0.1800 
    102 C         -7.2002  -19.9507  -51.7618 C.2       18 UNK         0.5000 
    103 O         -8.0127  -19.2303  -52.3425 O.2       18 UNK        -0.5000 
    104 N         -6.4544  -20.8807  -52.3727 N.am      19 UNK        -0.5000 
    105 CA        -6.4233  -21.1089  -53.8168 C.3       19 UNK         0.1400 
    106 CB        -5.7607  -22.4699  -54.0828 C.3       19 UNK        -0.1800 
    107 C         -5.6813  -20.0017  -54.5918 C.2       19 UNK         0.5000 
    108 O         -5.9191  -19.8512  -55.7906 O.2       19 UNK        -0.5000 
    109 N         -4.7831  -19.2790  -53.9026 N.am      20 UNK        -0.5000 
    110 CA        -3.8144  -18.3114  -54.4303 C.3       20 UNK         0.1400 
    111 CB        -4.5228  -17.0509  -54.9658 C.3       20 UNK        -0.1800 
    112 C         -2.8705  -18.9764  -55.4546 C.2       20 UNK         0.5000 
    113 O         -2.6912  -18.4774  -56.5668 O.2       20 UNK        -0.5000 
    114 N         -2.3331  -20.1393  -55.0617 N.am      21 UNK        -0.5000 
    115 CA        -1.5705  -21.0480  -55.9190 C.3       21 UNK         0.1400 
    116 CB        -1.4817  -22.4159  -55.2244 C.3       21 UNK        -0.1800 
    117 C         -0.1646  -20.5342  -56.2793 C.2       21 UNK         0.5000 
    118 O          0.3635  -20.9000  -57.3304 O.2       21 UNK        -0.5000 
    119 N          0.4169  -19.7132  -55.3998 N.am      22 UNK        -0.5000 
    120 CA         1.7333  -19.0899  -55.5756 C.3       22 UNK         0.1400 
    121 C          1.6246  -17.8160  -56.4543 C.2       22 UNK         0.5000 
    122 N          2.4657  -17.6763  -57.4697 N.am      22 UNK        -0.7600 
    123 O          0.8104  -16.9328  -56.1957 O.2       22 UNK        -0.5000 
    124 C124        2.3875  -18.7597  -54.2118 C.3       23 UNK        -0.0398 
    125 S125        2.7974  -20.2530  -53.2401 S.3       23 UNK        -0.2404 
    126 C126        1.3234  -20.5006  -52.1961 C.3       23 UNK        -0.0205 
    127 H127       -5.7369  -11.3269  -52.8844 H         1 UNK         0.0600 
    128 H128       -6.1358  -12.7182  -53.8962 H         1 UNK         0.0600 
    129 H129       -4.9450  -11.5358  -54.4492 H         1 UNK         0.0600 
    130 H130       -4.3615  -11.8434  -51.1724 H         1 UNK         0.3000 
    131 H131       -1.9995  -13.4098  -51.5433 H         1 UNK         0.0600 
    132 H132       -4.1459  -14.5071  -49.6387 H         1 UNK         0.0800 
    133 H133       -3.7450  -15.2361  -51.1647 H         1 UNK         0.0800 
    134 H134       -0.5671  -15.3925  -51.4662 H         1 UNK         0.0800 
    135 H135       -1.7959  -16.6107  -51.7268 H         1 UNK         0.0800 
    136 H136       -0.4615  -18.4509  -52.4065 H         1 UNK         0.1150 
    137 H137        2.5817  -20.0240  -49.8357 H         1 UNK         0.1150 
    138 H138        0.5845  -16.3780  -48.8048 H         1 UNK         0.1150 
    139 H139        2.0760  -17.3092  -47.2391 H         1 UNK         0.0800 
    140 H140        3.4813  -17.8420  -48.1267 H         1 UNK         0.0800 
    141 H141        0.1111  -19.2266  -47.1132 H         1 UNK         0.0800 
    142 H142        0.5286  -19.8097  -45.5281 H         1 UNK         0.0800 
    143 H143        0.3685  -21.4663  -48.0997 H         1 UNK         0.0600 
    144 H144        1.1585  -22.3422  -45.3617 H         1 UNK         0.3000 
    145 H145        2.1282  -25.4783  -46.3807 H         1 UNK         0.0600 
    146 H146        4.1570  -24.4380  -47.4013 H         1 UNK         0.0600 
    147 H147        4.5021  -25.0256  -45.7831 H         1 UNK         0.0600 
    148 H148        4.2650  -23.2994  -46.0646 H         1 UNK         0.0600 
    149 H149        2.9173  -23.9384  -44.0979 H         1 UNK         0.3000 
    150 H150       -0.1457  -24.1221  -42.3133 H         1 UNK         0.0600 
    151 H151        2.4871  -25.6188  -41.8537 H         1 UNK         0.0600 
    152 H152        0.8987  -26.3689  -41.9584 H         1 UNK         0.0600 
    153 H153        1.2575  -25.2684  -40.6383 H         1 UNK         0.0600 
    154 H154        2.2815  -23.1310  -41.4027 H         1 UNK         0.3000 
    155 H155        2.9362  -21.0239  -41.4151 H         1 UNK         0.0600 
    156 H156        3.2258  -18.8753  -42.6082 H         1 UNK         0.0600 
    157 H157        1.8969  -19.2567  -43.6918 H         1 UNK         0.0600 
    158 H158        3.3663  -20.2189  -43.7340 H         1 UNK         0.0600 
    159 H159        0.5132  -19.3037  -41.6570 H         1 UNK         0.3000 
    160 H160       -0.9475  -20.1477  -38.9898 H         1 UNK         0.0600 
    161 H161        1.0857  -18.1931  -37.8002 H         1 UNK         0.0600 
    162 H162        0.5518  -19.7128  -37.1012 H         1 UNK         0.0600 
    163 H163       -0.5791  -18.3794  -37.2489 H         1 UNK         0.0600 
    164 H164       -1.7416  -18.5372  -40.2348 H         1 UNK         0.3000 
    165 H165       -2.1446  -16.7541  -41.2869 H         1 UNK         0.0600 
    166 H166       -2.0612  -14.2915  -41.1211 H         1 UNK         0.0600 
    167 H167       -1.7897  -15.0084  -39.5395 H         1 UNK         0.0600 
    168 H168       -0.4321  -14.3585  -40.4508 H         1 UNK         0.0600 
    169 H169       -0.4268  -15.1544  -42.8268 H         1 UNK         0.3000 
    170 H170        0.8708  -17.4721  -45.0959 H         1 UNK         0.0600 
    171 H171       -0.6671  -16.6545  -46.8540 H         1 UNK         0.0600 
    172 H172       -1.7814  -16.0305  -45.6433 H         1 UNK         0.0600 
    173 H173       -1.5308  -17.7641  -45.8017 H         1 UNK         0.0600 
    174 H174        0.2183  -14.6861  -45.3614 H         1 UNK         0.3000 
    175 H175        2.7348  -13.3469  -43.3787 H         1 UNK         0.0600 
    176 H176        4.3005  -14.0697  -45.1975 H         1 UNK         0.0600 
    177 H177        3.1072  -13.6267  -46.4122 H         1 UNK         0.0600 
    178 H178        3.8362  -12.3876  -45.3891 H         1 UNK         0.0600 
    179 H179        1.3647  -12.1164  -45.5068 H         1 UNK         0.3000 
    180 H180       -1.8888  -11.9549  -44.3941 H         1 UNK         0.0600 
    181 H181        0.0668   -9.6613  -43.8253 H         1 UNK         0.0600 
    182 H182       -1.0485  -10.3636  -42.6597 H         1 UNK         0.0600 
    183 H183       -1.6755   -9.5040  -44.0563 H         1 UNK         0.0600 
    184 H184       -0.4705  -10.2393  -46.1656 H         1 UNK         0.3000 
    185 H185       -0.8897  -10.5210  -48.4371 H         1 UNK         0.0600 
    186 H186        1.5011  -10.9201  -47.8291 H         1 UNK         0.0600 
    187 H187        1.4137  -12.5568  -48.4696 H         1 UNK         0.0600 
    188 H188        1.2591  -11.1706  -49.5484 H         1 UNK         0.0600 
    189 H189       -0.5576  -13.0818  -49.7920 H         1 UNK         0.3000 
    190 H190       -0.8329  -21.3927  -44.6948 H         1 UNK         0.3000 
    191 H191       -3.5513  -20.9571  -45.5707 H         1 UNK         0.0600 
    192 H192       -2.7185  -19.7898  -43.6128 H         1 UNK         0.0600 
    193 H193       -3.9747  -20.8923  -43.0805 H         1 UNK         0.0600 
    194 H194       -2.2813  -21.2932  -42.8070 H         1 UNK         0.0600 
    195 H195       -2.0508  -23.5884  -43.5930 H         1 UNK         0.3000 
    196 H196       -4.4737  -25.0846  -43.4379 H         1 UNK         0.0600 
    197 H197       -3.1153  -26.7804  -42.3091 H         1 UNK         0.0600 
    198 H198       -2.6390  -25.1927  -41.7294 H         1 UNK         0.0600 
    199 H199       -1.6247  -26.0594  -42.8844 H         1 UNK         0.0600 
    200 H200       -1.7128  -25.2729  -45.6335 H         1 UNK         0.3000 
    201 H201       -2.5300  -27.5973  -47.1030 H         1 UNK         0.0600 
    202 H202       -0.8174  -26.7854  -48.7222 H         1 UNK         0.0600 
    203 H203       -0.2012  -26.6743  -47.0804 H         1 UNK         0.0600 
    204 H204       -0.7636  -25.2248  -47.9126 H         1 UNK         0.0600 
    205 H205       -3.9054  -24.4727  -46.9884 H         1 UNK         0.3000 
    206 H206       -5.4252  -23.3323  -48.0565 H         1 UNK         0.0600 
    207 H207       -6.7142  -25.4833  -48.1044 H         1 UNK         0.0600 
    208 H208       -7.1149  -24.4287  -49.4494 H         1 UNK         0.0600 
    209 H209       -6.0781  -25.8204  -49.7149 H         1 UNK         0.0600 
    210 H210       -2.6187  -23.7341  -49.2707 H         1 UNK         0.3000 
    211 H211       -2.8251  -23.1585  -52.0778 H         1 UNK         0.0600 
    212 H212       -0.4886  -22.6465  -50.1590 H         1 UNK         0.0600 
    213 H213       -0.4155  -22.7938  -51.9147 H         1 UNK         0.0600 
    214 H214       -0.8167  -24.1920  -50.9398 H         1 UNK         0.0600 
    215 H215       -2.6997  -21.1843  -49.1389 H         1 UNK         0.3000 
    216 H216       -2.5324  -18.6125  -50.4119 H         1 UNK         0.0600 
    217 H217       -3.3311  -17.8287  -48.1201 H         1 UNK         0.0600 
    218 H218       -1.9162  -18.8625  -48.0689 H         1 UNK         0.0600 
    219 H219       -3.5022  -19.5104  -47.6450 H         1 UNK         0.0600 
    220 H220       -5.2444  -20.6925  -49.4220 H         1 UNK         0.3000 
    221 H221       -7.3303  -18.7863  -49.9688 H         1 UNK         0.0600 
    222 H222       -7.4437  -21.8385  -49.6824 H         1 UNK         0.0600 
    223 H223       -7.6305  -20.6717  -48.3740 H         1 UNK         0.0600 
    224 H224       -8.8238  -20.7507  -49.6606 H         1 UNK         0.0600 
    225 H225       -5.8735  -21.4918  -51.8045 H         1 UNK         0.3000 
    226 H226       -7.4503  -21.1459  -54.1860 H         1 UNK         0.0600 
    227 H227       -5.7396  -22.6952  -55.1498 H         1 UNK         0.0600 
    228 H228       -4.7318  -22.4911  -53.7215 H         1 UNK         0.0600 
    229 H229       -6.3040  -23.2764  -53.5899 H         1 UNK         0.0600 
    230 H230       -4.6563  -19.5167  -52.9285 H         1 UNK         0.3000 
    231 H231       -3.1927  -18.0067  -53.5870 H         1 UNK         0.0600 
    232 H232       -5.1417  -17.2678  -55.8366 H         1 UNK         0.0600 
    233 H233       -3.7960  -16.2931  -55.2608 H         1 UNK         0.0600 
    234 H234       -5.1603  -16.6057  -54.2017 H         1 UNK         0.0600 
    235 H235       -2.5211  -20.4524  -54.1120 H         1 UNK         0.3000 
    236 H236       -2.1229  -21.1751  -56.8524 H         1 UNK         0.0600 
    237 H237       -0.9552  -22.3484  -54.2722 H         1 UNK         0.0600 
    238 H238       -2.4731  -22.8260  -55.0311 H         1 UNK         0.0600 
    239 H239       -0.9475  -23.1364  -55.8451 H         1 UNK         0.0600 
    240 H240       -0.1170  -19.4204  -54.5974 H         1 UNK         0.3000 
    241 H241        2.3844  -19.8022  -56.0872 H         1 UNK         0.0600 
    242 H242        2.4134  -16.8449  -58.0380 H         1 UNK         0.3800 
    243 H243        3.1440  -18.3874  -57.6972 H         1 UNK         0.3800 
    244 H244        1.7644  -18.0799  -53.6322 H         1 UNK         0.0800 
    245 H245        3.3270  -18.2277  -54.3720 H         1 UNK         0.0800 
    246 H246        0.4447  -20.6632  -52.8201 H         1 UNK         0.0800 
    247 H247        1.4654  -21.4189  -51.6254 H         1 UNK         0.0800 
@<TRIPOS>BOND
     1    1    2 1    
     2    1  127 1    
     3    1  128 1    
     4    1  129 1    
     5    2    3 2    
     6    2    4 am   BACKBONE|DICT|INTERRES
     7    4    5 1    
     8    4  130 1    
     9    5    6 1    
    10    5   65 1    
    11    5  131 1    
    12    6    7 1    
    13    6  132 1    
    14    6  133 1    
    15    7    8 1    
    16    8    9 1    
    17    8  134 1    
    18    8  135 1    
    19    9   10 ar   
    20    9   14 ar   
    21   10   11 ar   
    22   10  136 1    
    23   11   12 ar   
    24   11  126 1    
    25   12   13 ar   
    26   12  137 1    
    27   13   14 ar   
    28   13   15 1    
    29   14  138 1    
    30   15   16 1    
    31   15  139 1    
    32   15  140 1    
    33   16   17 1    
    34   17   18 1    
    35   17  141 1    
    36   17  142 1    
    37   18   19 1    
    38   18   67 1    
    39   18  143 1    
    40   19   20 am   BACKBONE|DICT|INTERRES
    41   19  144 1    
    42   20   21 2    
    43   20   22 1    
    44   22   23 1    
    45   22   24 1    
    46   22  145 1    
    47   23  146 1    
    48   23  147 1    
    49   23  148 1    
    50   24   25 am   BACKBONE|DICT|INTERRES
    51   24  149 1    
    52   25   26 2    
    53   25   27 1    
    54   27   28 1    
    55   27   29 1    
    56   27  150 1    
    57   28  151 1    
    58   28  152 1    
    59   28  153 1    
    60   29   30 am   BACKBONE|DICT|INTERRES
    61   29  154 1    
    62   30   31 2    
    63   30   32 1    
    64   32   33 1    
    65   32   34 1    
    66   32  155 1    
    67   33  156 1    
    68   33  157 1    
    69   33  158 1    
    70   34   35 am   BACKBONE|DICT|INTERRES
    71   34  159 1    
    72   35   36 2    
    73   35   37 1    
    74   37   38 1    
    75   37   39 1    
    76   37  160 1    
    77   38  161 1    
    78   38  162 1    
    79   38  163 1    
    80   39   40 am   BACKBONE|DICT|INTERRES
    81   39  164 1    
    82   40   41 2    
    83   40   42 1    
    84   42   43 1    
    85   42   44 1    
    86   42  165 1    
    87   43  166 1    
    88   43  167 1    
    89   43  168 1    
    90   44   45 am   BACKBONE|DICT|INTERRES
    91   44  169 1    
    92   45   46 2    
    93   45   47 1    
    94   47   48 1    
    95   47   49 1    
    96   47  170 1    
    97   48  171 1    
    98   48  172 1    
    99   48  173 1    
   100   49   50 am   BACKBONE|DICT|INTERRES
   101   49  174 1    
   102   50   51 2    
   103   50   52 1    
   104   52   53 1    
   105   52   54 1    
   106   52  175 1    
   107   53  176 1    
   108   53  177 1    
   109   53  178 1    
   110   54   55 am   BACKBONE|DICT|INTERRES
   111   54  179 1    
   112   55   56 2    
   113   55   57 1    
   114   57   58 1    
   115   57   59 1    
   116   57  180 1    
   117   58  181 1    
   118   58  182 1    
   119   58  183 1    
   120   59   60 am   BACKBONE|DICT|INTERRES
   121   59  184 1    
   122   60   61 2    
   123   60   62 1    
   124   62   63 1    
   125   62   64 1    
   126   62  185 1    
   127   63  186 1    
   128   63  187 1    
   129   63  188 1    
   130   64   65 am   BACKBONE|DICT|INTERRES
   131   64  189 1    
   132   65   66 2    
   133   67   68 2    
   134   67   69 am   BACKBONE|DICT|INTERRES
   135   69   70 1    
   136   69  190 1    
   137   70   71 1    
   138   70   72 1    
   139   70  191 1    
   140   71  192 1    
   141   71  193 1    
   142   71  194 1    
   143   72   73 2    
   144   72   74 am   BACKBONE|DICT|INTERRES
   145   74   75 1    
   146   74  195 1    
   147   75   76 1    
   148   75   77 1    
   149   75  196 1    
   150   76  197 1    
   151   76  198 1    
   152   76  199 1    
   153   77   78 2    
   154   77   79 am   BACKBONE|DICT|INTERRES
   155   79   80 1    
   156   79  200 1    
   157   80   81 1    
   158   80   82 1    
   159   80  201 1    
   160   81  202 1    
   161   81  203 1    
   162   81  204 1    
   163   82   83 2    
   164   82   84 am   BACKBONE|DICT|INTERRES
   165   84   85 1    
   166   84  205 1    
   167   85   86 1    
   168   85   87 1    
   169   85  206 1    
   170   86  207 1    
   171   86  208 1    
   172   86  209 1    
   173   87   88 2    
   174   87   89 am   BACKBONE|DICT|INTERRES
   175   89   90 1    
   176   89  210 1    
   177   90   91 1    
   178   90   92 1    
   179   90  211 1    
   180   91  212 1    
   181   91  213 1    
   182   91  214 1    
   183   92   93 2    
   184   92   94 am   BACKBONE|DICT|INTERRES
   185   94   95 1    
   186   94  215 1    
   187   95   96 1    
   188   95   97 1    
   189   95  216 1    
   190   96  217 1    
   191   96  218 1    
   192   96  219 1    
   193   97   98 2    
   194   97   99 am   BACKBONE|DICT|INTERRES
   195   99  100 1    
   196   99  220 1    
   197  100  101 1    
   198  100  102 1    
   199  100  221 1    
   200  101  222 1    
   201  101  223 1    
   202  101  224 1    
   203  102  103 2    
   204  102  104 am   BACKBONE|DICT|INTERRES
   205  104  105 1    
   206  104  225 1    
   207  105  106 1    
   208  105  107 1    
   209  105  226 1    
   210  106  227 1    
   211  106  228 1    
   212  106  229 1    
   213  107  108 2    
   214  107  109 am   BACKBONE|DICT|INTERRES
   215  109  110 1    
   216  109  230 1    
   217  110  111 1    
   218  110  112 1    
   219  110  231 1    
   220  111  232 1    
   221  111  233 1    
   222  111  234 1    
   223  112  113 2    
   224  112  114 am   BACKBONE|DICT|INTERRES
   225  114  115 1    
   226  114  235 1    
   227  115  116 1    
   228  115  117 1    
   229  115  236 1    
   230  116  237 1    
   231  116  238 1    
   232  116  239 1    
   233  117  118 2    
   234  117  119 am   BACKBONE|DICT|INTERRES
   235  119  120 1    
   236  119  240 1    
   237  120  121 1    
   238  120  124 1    
   239  120  241 1    
   240  121  122 am   BACKBONE|DICT|INTERRES
   241  121  123 2    
   242  122  242 1    
   243  122  243 1    
   244  124  125 1    
   245  124  244 1    
   246  124  245 1    
   247  125  126 1    
   248  126  246 1    
   249  126  247 1    
@<TRIPOS>SUBSTRUCTURE
     1 UNK         1 GROUP             0       ****    0 ROOT    
