@<TRIPOS>MOLECULE
3R540
247   249    1
SMALL
USER_CHARGES


@<TRIPOS>ATOM
      1 CA          5.8610  -12.1139  -51.5607 C.3       0 UNK        -0.1800 
      2 C           5.4460  -12.9541  -50.3611 C.2       0 UNK         0.5000 
      3 O           6.2604  -13.7122  -49.8346 O.2       0 UNK        -0.5000 
      4 N           4.1833  -12.8240  -49.9333 N.am      1 UNK        -0.5000 
      5 CA          3.5975  -13.5400  -48.7928 C.3       1 UNK         0.1400 
      6 C6          2.0608  -13.3589  -48.7351 C.3       23 UNK        -0.0398 
      7 S7          1.2230  -14.2795  -50.0685 S.3       23 UNK        -0.2404 
      8 C8          0.2619  -15.4797  -49.0962 C.3       23 UNK        -0.0205 
      9 C9          0.0937  -16.8014  -49.8232 C.ar      23 UNK        -0.0193 
     10 C10        -1.1452  -17.1687  -50.3552 C.ar      23 UNK        -0.1150 
     11 C11        -1.3235  -18.4318  -50.9273 C.ar      23 UNK        -0.0193 
     12 C12        -0.2389  -19.3081  -51.0095 C.ar      23 UNK        -0.1150 
     13 C13         1.0000  -18.9572  -50.4658 C.ar      23 UNK        -0.0193 
     14 C14         1.1630  -17.6991  -49.8823 C.ar      23 UNK        -0.1150 
     15 C15         2.1411  -19.9629  -50.4460 C.3       23 UNK        -0.0205 
     16 S16         2.2165  -20.8537  -48.8557 S.3       23 UNK        -0.2404 
     17 C17         0.5846  -21.6655  -48.8471 C.3       23 UNK        -0.0398 
     18 CA          0.4405  -22.7480  -47.7576 C.3       11 UNK         0.1400 
     19 N           0.4328  -22.1857  -46.4024 N.am      11 UNK        -0.5000 
     20 C           0.4833  -22.9147  -45.2791 C.2       10 UNK         0.5000 
     21 O           0.5554  -24.1427  -45.2682 O.2       10 UNK        -0.5000 
     22 CA          0.3844  -22.1598  -43.9416 C.3       10 UNK         0.1400 
     23 CB          1.7045  -21.4530  -43.5994 C.3       10 UNK        -0.1800 
     24 N          -0.7202  -21.2020  -43.9232 N.am      10 UNK        -0.5000 
     25 C          -2.0142  -21.5446  -44.0094 C.2       9 UNK         0.5000 
     26 O          -2.4120  -22.7085  -44.0609 O.2       9 UNK        -0.5000 
     27 CA         -3.0360  -20.3958  -44.0949 C.3       9 UNK         0.1400 
     28 CB         -3.3621  -19.8533  -42.6957 C.3       9 UNK        -0.1800 
     29 N          -2.5963  -19.2992  -44.9588 N.am      9 UNK        -0.5000 
     30 C          -2.3141  -19.4269  -46.2635 C.2       8 UNK         0.5000 
     31 O          -2.4188  -20.4838  -46.8809 O.2       8 UNK        -0.5000 
     32 CA         -1.7525  -18.1883  -46.9811 C.3       8 UNK         0.1400 
     33 CB         -2.8663  -17.1765  -47.2894 C.3       8 UNK        -0.1800 
     34 N          -0.6820  -17.5424  -46.2200 N.am      8 UNK        -0.5000 
     35 C           0.4696  -18.1434  -45.8853 C.2       7 UNK         0.5000 
     36 O           0.7671  -19.2887  -46.2202 O.2       7 UNK        -0.5000 
     37 CA          1.4180  -17.3618  -44.9618 C.3       7 UNK         0.1400 
     38 CB          2.2964  -16.3794  -45.7510 C.3       7 UNK        -0.1800 
     39 N           0.6853  -16.6555  -43.9112 N.am      7 UNK        -0.5000 
     40 C           0.0764  -17.2688  -42.8858 C.2       6 UNK         0.5000 
     41 O           0.1419  -18.4807  -42.6780 O.2       6 UNK        -0.5000 
     42 CA         -0.7940  -16.3886  -41.9709 C.3       6 UNK         0.1400 
     43 CB          0.0454  -15.7484  -40.8576 C.3       6 UNK        -0.1800 
     44 N          -1.5040  -15.3477  -42.7169 N.am      6 UNK        -0.5000 
     45 C          -2.5311  -15.6031  -43.5405 C.2       5 UNK         0.5000 
     46 O          -2.9883  -16.7304  -43.7222 O.2       5 UNK        -0.5000 
     47 CA         -3.1343  -14.4198  -44.3192 C.3       5 UNK         0.1400 
     48 CB         -4.3015  -13.8024  -43.5351 C.3       5 UNK        -0.1800 
     49 N          -2.1719  -13.3700  -44.6515 N.am      5 UNK        -0.5000 
     50 C          -1.0743  -13.5272  -45.4029 C.2       4 UNK         0.5000 
     51 O          -0.7251  -14.6060  -45.8854 O.2       4 UNK        -0.5000 
     52 CA         -0.2024  -12.2778  -45.6431 C.3       4 UNK         0.1400 
     53 CB         -0.8717  -10.9499  -45.2232 C.3       4 UNK        -0.1800 
     54 N           1.1171  -12.3907  -45.0148 N.am      4 UNK        -0.5000 
     55 C           1.3945  -12.6313  -43.7233 C.2       3 UNK         0.5000 
     56 O           0.5361  -12.8784  -42.8744 O.2       3 UNK        -0.5000 
     57 CA          2.8805  -12.5934  -43.3056 C.3       3 UNK         0.1400 
     58 CB          3.2991  -13.9007  -42.6142 C.3       3 UNK        -0.1800 
     59 N           3.7794  -12.3544  -44.4377 N.am      3 UNK        -0.5000 
     60 C           4.2018  -11.1601  -44.8677 C.2       2 UNK         0.5000 
     61 O           3.8869  -10.0947  -44.3375 O.2       2 UNK        -0.5000 
     62 CA          5.1043  -11.1486  -46.1198 C.3       2 UNK         0.1400 
     63 CB          6.5157  -11.6773  -45.7994 C.3       2 UNK        -0.1800 
     64 N           4.5277  -11.8291  -47.2903 N.am      2 UNK        -0.5000 
     65 C           4.2317  -13.1291  -47.4485 C.2       1 UNK         0.5000 
     66 O           4.4175  -13.9876  -46.5862 O.2       1 UNK        -0.5000 
     67 C          -0.8040  -23.6148  -48.0396 C.2       11 UNK         0.5000 
     68 O          -0.6704  -24.6875  -48.6292 O.2       11 UNK        -0.5000 
     69 N          -1.9876  -23.1623  -47.6066 N.am      12 UNK        -0.5000 
     70 CA         -3.2475  -23.8959  -47.7387 C.3       12 UNK         0.1400 
     71 CB         -4.4153  -22.9957  -47.3102 C.3       12 UNK        -0.1800 
     72 C          -3.2598  -25.2183  -46.9484 C.2       12 UNK         0.5000 
     73 O          -3.8806  -26.1818  -47.3962 O.2       12 UNK        -0.5000 
     74 N          -2.5645  -25.2497  -45.8045 N.am      13 UNK        -0.5000 
     75 CA         -2.3983  -26.4389  -44.9760 C.3       13 UNK         0.1400 
     76 CB         -2.0959  -26.0160  -43.5291 C.3       13 UNK        -0.1800 
     77 C          -1.3038  -27.3764  -45.5163 C.2       13 UNK         0.5000 
     78 O          -1.5713  -28.5589  -45.7322 O.2       13 UNK        -0.5000 
     79 N          -0.0847  -26.8476  -45.6872 N.am      14 UNK        -0.5000 
     80 CA          1.1187  -27.6397  -45.9429 C.3       14 UNK         0.1400 
     81 CB          2.3501  -26.8703  -45.4390 C.3       14 UNK        -0.1800 
     82 C           1.3004  -28.0261  -47.4183 C.2       14 UNK         0.5000 
     83 O           1.6658  -29.1682  -47.6999 O.2       14 UNK        -0.5000 
     84 N           1.0691  -27.0726  -48.3292 N.am      15 UNK        -0.5000 
     85 CA          1.2882  -27.2423  -49.7688 C.3       15 UNK         0.1400 
     86 CB          1.9409  -25.9655  -50.3280 C.3       15 UNK        -0.1800 
     87 C          -0.0097  -27.5676  -50.5294 C.2       15 UNK         0.5000 
     88 O           0.0617  -27.9064  -51.7113 O.2       15 UNK        -0.5000 
     89 N          -1.1620  -27.4431  -49.8522 N.am      16 UNK        -0.5000 
     90 CA         -2.5229  -27.5654  -50.3860 C.3       16 UNK         0.1400 
     91 CB         -2.8102  -29.0087  -50.8509 C.3       16 UNK        -0.1800 
     92 C          -2.8267  -26.5018  -51.4635 C.2       16 UNK         0.5000 
     93 O          -3.4987  -26.7969  -52.4542 O.2       16 UNK        -0.5000 
     94 N          -2.2960  -25.2869  -51.2609 N.am      17 UNK        -0.5000 
     95 CA         -2.4328  -24.1525  -52.1737 C.3       17 UNK         0.1400 
     96 CB         -1.5009  -23.0252  -51.7095 C.3       17 UNK        -0.1800 
     97 C          -3.8791  -23.6344  -52.2812 C.2       17 UNK         0.5000 
     98 O          -4.6434  -23.7191  -51.3168 O.2       17 UNK        -0.5000 
     99 N          -4.2040  -23.0700  -53.4477 N.am      18 UNK        -0.5000 
    100 CA        -5.4744  -22.4253  -53.7516 C.3       18 UNK         0.1400 
    101 CB        -6.4088  -23.4199  -54.4590 C.3       18 UNK        -0.1800 
    102 C         -5.1886  -21.2020  -54.6323 C.2       18 UNK         0.5000 
    103 O         -4.3478  -21.2810  -55.5310 O.2       18 UNK        -0.5000 
    104 N         -5.8954  -20.1065  -54.3484 N.am      19 UNK        -0.5000 
    105 CA        -5.8193  -18.7785  -54.9535 C.3       19 UNK         0.1400 
    106 CB        -4.3992  -18.1831  -54.8388 C.3       19 UNK        -0.1800 
    107 C         -6.8237  -17.8977  -54.1917 C.2       19 UNK         0.5000 
    108 O         -7.3804  -18.3452  -53.1839 O.2       19 UNK        -0.5000 
    109 N         -7.0112  -16.6489  -54.6363 N.am      20 UNK        -0.5000 
    110 CA        -7.9130  -15.6706  -54.0128 C.3       20 UNK         0.1400 
    111 CB        -7.9261  -14.3878  -54.8582 C.3       20 UNK        -0.1800 
    112 C         -7.5762  -15.3439  -52.5412 C.2       20 UNK         0.5000 
    113 O         -8.4856  -15.0694  -51.7577 O.2       20 UNK        -0.5000 
    114 N         -6.2837  -15.4010  -52.1913 N.am      21 UNK        -0.5000 
    115 CA        -5.7831  -15.2106  -50.8285 C.3       21 UNK         0.1400 
    116 CB        -4.3102  -14.7787  -50.9005 C.3       21 UNK        -0.1800 
    117 C         -5.9338  -16.4644  -49.9425 C.2       21 UNK         0.5000 
    118 O         -6.0265  -16.3266  -48.7226 O.2       21 UNK        -0.5000 
    119 N         -5.9406  -17.6520  -50.5610 N.am      22 UNK        -0.5000 
    120 CA        -6.0693  -18.9529  -49.8831 C.3       22 UNK         0.1400 
    121 C         -7.5430  -19.4299  -49.7594 C.2       22 UNK         0.5000 
    122 N         -8.4313  -19.0854  -50.6824 N.am      22 UNK        -0.7600 
    123 O         -7.8887  -20.1166  -48.8026 O.2       22 UNK        -0.5000 
    124 C124       -5.1915  -20.0333  -50.5689 C.3       23 UNK        -0.0398 
    125 S125       -3.4469  -19.9156  -50.0648 S.3       23 UNK        -0.2404 
    126 C126       -2.7041  -18.8885  -51.3676 C.3       23 UNK        -0.0205 
    127 H127        6.6874  -11.4566  -51.2903 H         1 UNK         0.0600 
    128 H128        5.0408  -11.4959  -51.9269 H         1 UNK         0.0600 
    129 H129        6.1896  -12.7595  -52.3752 H         1 UNK         0.0600 
    130 H130        3.5575  -12.2070  -50.4315 H         1 UNK         0.3000 
    131 H131        3.8120  -14.6034  -48.9231 H         1 UNK         0.0600 
    132 H132        1.6656  -13.6878  -47.7731 H         1 UNK         0.0800 
    133 H133        1.7913  -12.3046  -48.8179 H         1 UNK         0.0800 
    134 H134        0.7535  -15.6868  -48.1472 H         1 UNK         0.0800 
    135 H135       -0.7050  -15.0410  -48.8465 H         1 UNK         0.0800 
    136 H136       -1.9843  -16.4954  -50.2673 H         1 UNK         0.1150 
    137 H137       -0.3789  -20.2902  -51.4361 H         1 UNK         0.1150 
    138 H138        2.1125  -17.4320  -49.4400 H         1 UNK         0.1150 
    139 H139        2.0350  -20.6794  -51.2620 H         1 UNK         0.0800 
    140 H140        3.0888  -19.4484  -50.6111 H         1 UNK         0.0800 
    141 H141       -0.1908  -20.9068  -48.7241 H         1 UNK         0.0800 
    142 H142        0.4458  -22.1009  -49.8365 H         1 UNK         0.0800 
    143 H143        1.3050  -23.4118  -47.8279 H         1 UNK         0.0600 
    144 H144        0.4054  -21.1709  -46.3334 H         1 UNK         0.3000 
    145 H145        0.1916  -22.8988  -43.1611 H         1 UNK         0.0600 
    146 H146        2.5290  -22.1661  -43.5649 H         1 UNK         0.0600 
    147 H147        1.9621  -20.6916  -44.3348 H         1 UNK         0.0600 
    148 H148        1.6507  -20.9697  -42.6238 H         1 UNK         0.0600 
    149 H149       -0.4751  -20.2211  -43.8598 H         1 UNK         0.3000 
    150 H150       -3.9539  -20.8028  -44.5237 H         1 UNK         0.0600 
    151 H151       -3.7015  -20.6525  -42.0356 H         1 UNK         0.0600 
    152 H152       -4.1558  -19.1074  -42.7378 H         1 UNK         0.0600 
    153 H153       -2.4915  -19.3895  -42.2311 H         1 UNK         0.0600 
    154 H154       -2.5287  -18.3809  -44.5277 H         1 UNK         0.3000 
    155 H155       -1.3222  -18.5269  -47.9245 H         1 UNK         0.0600 
    156 H156       -2.4715  -16.2683  -47.7426 H         1 UNK         0.0600 
    157 H157       -3.5864  -17.6021  -47.9884 H         1 UNK         0.0600 
    158 H158       -3.4160  -16.8914  -46.3936 H         1 UNK         0.0600 
    159 H159       -0.8306  -16.5792  -45.9368 H         1 UNK         0.3000 
    160 H160        2.0809  -18.0905  -44.4902 H         1 UNK         0.0600 
    161 H161        1.7493  -15.4861  -46.0470 H         1 UNK         0.0600 
    162 H162        2.6932  -16.8407  -46.6565 H         1 UNK         0.0600 
    163 H163        3.1522  -16.0602  -45.1579 H         1 UNK         0.0600 
    164 H164        0.5210  -15.6691  -44.0514 H         1 UNK         0.3000 
    165 H165       -1.5347  -17.0372  -41.4978 H         1 UNK         0.0600 
    166 H166       -0.5821  -15.1906  -40.1624 H         1 UNK         0.0600 
    167 H167        0.5757  -16.5077  -40.2814 H         1 UNK         0.0600 
    168 H168        0.7884  -15.0627  -41.2605 H         1 UNK         0.0600 
    169 H169       -1.1480  -14.4019  -42.6455 H         1 UNK         0.3000 
    170 H170       -3.5271  -14.8108  -45.2592 H         1 UNK         0.0600 
    171 H171       -5.0519  -14.5565  -43.2936 H         1 UNK         0.0600 
    172 H172       -3.9661  -13.3602  -42.5961 H         1 UNK         0.0600 
    173 H173       -4.7997  -13.0250  -44.1147 H         1 UNK         0.0600 
    174 H174       -2.3595  -12.4537  -44.2718 H         1 UNK         0.3000 
    175 H175       -0.0362  -12.2317  -46.7199 H         1 UNK         0.0600 
    176 H176       -1.0377  -10.8920  -44.1468 H         1 UNK         0.0600 
    177 H177       -0.2498  -10.0993  -45.5025 H         1 UNK         0.0600 
    178 H178       -1.8336  -10.8162  -45.7202 H         1 UNK         0.0600 
    179 H179        1.9064  -12.2200  -45.6181 H         1 UNK         0.3000 
    180 H180        2.9915  -11.7827  -42.5827 H         1 UNK         0.0600 
    181 H181        3.0661  -14.7750  -43.2208 H         1 UNK         0.0600 
    182 H182        2.7875  -14.0143  -41.6590 H         1 UNK         0.0600 
    183 H183        4.3688  -13.9128  -42.4043 H         1 UNK         0.0600 
    184 H184        4.0651  -13.1681  -44.9791 H         1 UNK         0.3000 
    185 H185        5.2132  -10.1033  -46.4138 H         1 UNK         0.0600 
    186 H186        6.9720  -11.1019  -44.9930 H         1 UNK         0.0600 
    187 H187        6.5038  -12.7215  -45.4859 H         1 UNK         0.0600 
    188 H188        7.1709  -11.5972  -46.6669 H         1 UNK         0.0600 
    189 H189        4.3261  -11.2197  -48.0709 H         1 UNK         0.3000 
    190 H190       -2.0457  -22.2347  -47.1880 H         1 UNK         0.3000 
    191 H191       -3.3818  -24.1405  -48.7939 H         1 UNK         0.0600 
    192 H192       -4.4664  -22.0986  -47.9277 H         1 UNK         0.0600 
    193 H193       -4.3195  -22.6824  -46.2702 H         1 UNK         0.0600 
    194 H194       -5.3687  -23.5150  -47.4138 H         1 UNK         0.0600 
    195 H195       -2.1177  -24.4001  -45.4808 H         1 UNK         0.3000 
    196 H196       -3.3383  -26.9951  -44.9653 H         1 UNK         0.0600 
    197 H197       -1.9559  -26.8867  -42.8874 H         1 UNK         0.0600 
    198 H198       -2.9175  -25.4332  -43.1122 H         1 UNK         0.0600 
    199 H199       -1.1928  -25.4083  -43.4624 H         1 UNK         0.0600 
    200 H200        0.0594  -25.8550  -45.5065 H         1 UNK         0.3000 
    201 H201        1.0530  -28.5646  -45.3654 H         1 UNK         0.0600 
    202 H202        2.2587  -26.6301  -44.3796 H         1 UNK         0.0600 
    203 H203        2.4931  -25.9354  -45.9823 H         1 UNK         0.0600 
    204 H204        3.2578  -27.4624  -45.5617 H         1 UNK         0.0600 
    205 H205        0.7122  -26.1718  -48.0335 H         1 UNK         0.3000 
    206 H206        1.9800  -28.0682  -49.9472 H         1 UNK         0.0600 
    207 H207        2.8601  -25.7257  -49.7935 H         1 UNK         0.0600 
    208 H208        2.2019  -26.0915  -51.3794 H         1 UNK         0.0600 
    209 H209        1.2798  -25.1021  -50.2615 H         1 UNK         0.0600 
    210 H210       -1.0951  -27.1221  -48.8965 H         1 UNK         0.3000 
    211 H211       -3.1988  -27.3560  -49.5587 H         1 UNK         0.0600 
    212 H212       -2.2263  -29.2783  -51.7312 H         1 UNK         0.0600 
    213 H213       -3.8627  -29.1322  -51.1085 H         1 UNK         0.0600 
    214 H214       -2.5836  -29.7280  -50.0639 H         1 UNK         0.0600 
    215 H215       -1.7575  -25.1306  -50.4171 H         1 UNK         0.3000 
    216 H216       -2.1081  -24.4847  -53.1621 H         1 UNK         0.0600 
    217 H217       -1.7995  -22.6375  -50.7348 H         1 UNK         0.0600 
    218 H218       -1.5200  -22.1909  -52.4116 H         1 UNK         0.0600 
    219 H219       -0.4692  -23.3703  -51.6416 H         1 UNK         0.0600 
    220 H220       -3.5095  -22.9837  -54.1788 H         1 UNK         0.3000 
    221 H221       -5.9502  -22.0896  -52.8276 H         1 UNK         0.0600 
    222 H222       -5.9757  -23.7856  -55.3909 H         1 UNK         0.0600 
    223 H223       -6.6168  -24.2824  -53.8256 H         1 UNK         0.0600 
    224 H224       -7.3650  -22.9537  -54.6997 H         1 UNK         0.0600 
    225 H225       -6.5972  -20.1405  -53.6175 H         1 UNK         0.3000 
    226 H226       -6.1221  -18.8437  -55.9998 H         1 UNK         0.0600 
    227 H227       -3.6590  -18.7862  -55.3630 H         1 UNK         0.0600 
    228 H228       -4.3511  -17.1860  -55.2773 H         1 UNK         0.0600 
    229 H229       -4.0847  -18.0971  -53.8003 H         1 UNK         0.0600 
    230 H230       -6.5196  -16.3425  -55.4637 H         1 UNK         0.3000 
    231 H231       -8.9184  -16.0967  -54.0265 H         1 UNK         0.0600 
    232 H232       -8.6065  -13.6475  -54.4350 H         1 UNK         0.0600 
    233 H233       -8.2605  -14.5889  -55.8761 H         1 UNK         0.0600 
    234 H234       -6.9370  -13.9315  -54.9124 H         1 UNK         0.0600 
    235 H235       -5.6020  -15.6080  -52.9057 H         1 UNK         0.3000 
    236 H236       -6.3468  -14.4052  -50.3526 H         1 UNK         0.0600 
    237 H237       -4.2095  -13.8117  -51.3935 H         1 UNK         0.0600 
    238 H238       -3.8774  -14.6808  -49.9037 H         1 UNK         0.0600 
    239 H239       -3.7083  -15.4985  -51.4549 H         1 UNK         0.0600 
    240 H240       -5.9629  -17.6699  -51.5694 H         1 UNK         0.3000 
    241 H241       -5.7142  -18.8489  -48.8554 H         1 UNK         0.0600 
    242 H242       -8.1390  -18.6064  -51.5300 H         1 UNK         0.3800 
    243 H243       -9.3867  -19.3901  -50.5879 H         1 UNK         0.3800 
    244 H244       -5.5174  -21.0388  -50.2943 H         1 UNK         0.0800 
    245 H245       -5.2690  -19.9760  -51.6534 H         1 UNK         0.0800 
    246 H246       -2.6395  -19.4586  -52.2955 H         1 UNK         0.0800 
    247 H247       -3.3395  -18.0249  -51.5618 H         1 UNK         0.0800 
@<TRIPOS>BOND
     1    1    2 1    
     2    1  127 1    
     3    1  128 1    
     4    1  129 1    
     5    2    3 2    
     6    2    4 am   BACKBONE|DICT|INTERRES
     7    4    5 1    
     8    4  130 1    
     9    5    6 1    
    10    5   65 1    
    11    5  131 1    
    12    6    7 1    
    13    6  132 1    
    14    6  133 1    
    15    7    8 1    
    16    8    9 1    
    17    8  134 1    
    18    8  135 1    
    19    9   10 ar   
    20    9   14 ar   
    21   10   11 ar   
    22   10  136 1    
    23   11   12 ar   
    24   11  126 1    
    25   12   13 ar   
    26   12  137 1    
    27   13   14 ar   
    28   13   15 1    
    29   14  138 1    
    30   15   16 1    
    31   15  139 1    
    32   15  140 1    
    33   16   17 1    
    34   17   18 1    
    35   17  141 1    
    36   17  142 1    
    37   18   19 1    
    38   18   67 1    
    39   18  143 1    
    40   19   20 am   BACKBONE|DICT|INTERRES
    41   19  144 1    
    42   20   21 2    
    43   20   22 1    
    44   22   23 1    
    45   22   24 1    
    46   22  145 1    
    47   23  146 1    
    48   23  147 1    
    49   23  148 1    
    50   24   25 am   BACKBONE|DICT|INTERRES
    51   24  149 1    
    52   25   26 2    
    53   25   27 1    
    54   27   28 1    
    55   27   29 1    
    56   27  150 1    
    57   28  151 1    
    58   28  152 1    
    59   28  153 1    
    60   29   30 am   BACKBONE|DICT|INTERRES
    61   29  154 1    
    62   30   31 2    
    63   30   32 1    
    64   32   33 1    
    65   32   34 1    
    66   32  155 1    
    67   33  156 1    
    68   33  157 1    
    69   33  158 1    
    70   34   35 am   BACKBONE|DICT|INTERRES
    71   34  159 1    
    72   35   36 2    
    73   35   37 1    
    74   37   38 1    
    75   37   39 1    
    76   37  160 1    
    77   38  161 1    
    78   38  162 1    
    79   38  163 1    
    80   39   40 am   BACKBONE|DICT|INTERRES
    81   39  164 1    
    82   40   41 2    
    83   40   42 1    
    84   42   43 1    
    85   42   44 1    
    86   42  165 1    
    87   43  166 1    
    88   43  167 1    
    89   43  168 1    
    90   44   45 am   BACKBONE|DICT|INTERRES
    91   44  169 1    
    92   45   46 2    
    93   45   47 1    
    94   47   48 1    
    95   47   49 1    
    96   47  170 1    
    97   48  171 1    
    98   48  172 1    
    99   48  173 1    
   100   49   50 am   BACKBONE|DICT|INTERRES
   101   49  174 1    
   102   50   51 2    
   103   50   52 1    
   104   52   53 1    
   105   52   54 1    
   106   52  175 1    
   107   53  176 1    
   108   53  177 1    
   109   53  178 1    
   110   54   55 am   BACKBONE|DICT|INTERRES
   111   54  179 1    
   112   55   56 2    
   113   55   57 1    
   114   57   58 1    
   115   57   59 1    
   116   57  180 1    
   117   58  181 1    
   118   58  182 1    
   119   58  183 1    
   120   59   60 am   BACKBONE|DICT|INTERRES
   121   59  184 1    
   122   60   61 2    
   123   60   62 1    
   124   62   63 1    
   125   62   64 1    
   126   62  185 1    
   127   63  186 1    
   128   63  187 1    
   129   63  188 1    
   130   64   65 am   BACKBONE|DICT|INTERRES
   131   64  189 1    
   132   65   66 2    
   133   67   68 2    
   134   67   69 am   BACKBONE|DICT|INTERRES
   135   69   70 1    
   136   69  190 1    
   137   70   71 1    
   138   70   72 1    
   139   70  191 1    
   140   71  192 1    
   141   71  193 1    
   142   71  194 1    
   143   72   73 2    
   144   72   74 am   BACKBONE|DICT|INTERRES
   145   74   75 1    
   146   74  195 1    
   147   75   76 1    
   148   75   77 1    
   149   75  196 1    
   150   76  197 1    
   151   76  198 1    
   152   76  199 1    
   153   77   78 2    
   154   77   79 am   BACKBONE|DICT|INTERRES
   155   79   80 1    
   156   79  200 1    
   157   80   81 1    
   158   80   82 1    
   159   80  201 1    
   160   81  202 1    
   161   81  203 1    
   162   81  204 1    
   163   82   83 2    
   164   82   84 am   BACKBONE|DICT|INTERRES
   165   84   85 1    
   166   84  205 1    
   167   85   86 1    
   168   85   87 1    
   169   85  206 1    
   170   86  207 1    
   171   86  208 1    
   172   86  209 1    
   173   87   88 2    
   174   87   89 am   BACKBONE|DICT|INTERRES
   175   89   90 1    
   176   89  210 1    
   177   90   91 1    
   178   90   92 1    
   179   90  211 1    
   180   91  212 1    
   181   91  213 1    
   182   91  214 1    
   183   92   93 2    
   184   92   94 am   BACKBONE|DICT|INTERRES
   185   94   95 1    
   186   94  215 1    
   187   95   96 1    
   188   95   97 1    
   189   95  216 1    
   190   96  217 1    
   191   96  218 1    
   192   96  219 1    
   193   97   98 2    
   194   97   99 am   BACKBONE|DICT|INTERRES
   195   99  100 1    
   196   99  220 1    
   197  100  101 1    
   198  100  102 1    
   199  100  221 1    
   200  101  222 1    
   201  101  223 1    
   202  101  224 1    
   203  102  103 2    
   204  102  104 am   BACKBONE|DICT|INTERRES
   205  104  105 1    
   206  104  225 1    
   207  105  106 1    
   208  105  107 1    
   209  105  226 1    
   210  106  227 1    
   211  106  228 1    
   212  106  229 1    
   213  107  108 2    
   214  107  109 am   BACKBONE|DICT|INTERRES
   215  109  110 1    
   216  109  230 1    
   217  110  111 1    
   218  110  112 1    
   219  110  231 1    
   220  111  232 1    
   221  111  233 1    
   222  111  234 1    
   223  112  113 2    
   224  112  114 am   BACKBONE|DICT|INTERRES
   225  114  115 1    
   226  114  235 1    
   227  115  116 1    
   228  115  117 1    
   229  115  236 1    
   230  116  237 1    
   231  116  238 1    
   232  116  239 1    
   233  117  118 2    
   234  117  119 am   BACKBONE|DICT|INTERRES
   235  119  120 1    
   236  119  240 1    
   237  120  121 1    
   238  120  124 1    
   239  120  241 1    
   240  121  122 am   BACKBONE|DICT|INTERRES
   241  121  123 2    
   242  122  242 1    
   243  122  243 1    
   244  124  125 1    
   245  124  244 1    
   246  124  245 1    
   247  125  126 1    
   248  126  246 1    
   249  126  247 1    
@<TRIPOS>SUBSTRUCTURE
     1 UNK         1 GROUP             0       ****    0 ROOT    
