@<TRIPOS>MOLECULE
3R540
247   249    1
SMALL
USER_CHARGES


@<TRIPOS>ATOM
      1 CA          7.7078  -11.5703  -47.0721 C.3       0 UNK        -0.1800 
      2 C           6.3911  -11.5359  -46.3090 C.2       0 UNK         0.5000 
      3 O           6.3514  -11.0561  -45.1757 O.2       0 UNK        -0.5000 
      4 N           5.3174  -12.0483  -46.9217 N.am      1 UNK        -0.5000 
      5 CA          3.9623  -12.0659  -46.3685 C.3       1 UNK         0.1400 
      6 C6          3.0466  -13.0623  -47.1191 C.3       23 UNK        -0.0398 
      7 S7          3.5288  -14.7983  -46.8334 S.3       23 UNK        -0.2404 
      8 C8          4.0950  -15.3404  -48.4789 C.3       23 UNK        -0.0205 
      9 C9          3.4328  -16.6520  -48.8674 C.ar      23 UNK        -0.0193 
     10 C10         2.1131  -16.6520  -49.3230 C.ar      23 UNK        -0.1150 
     11 C11         1.4660  -17.8438  -49.6581 C.ar      23 UNK        -0.0193 
     12 C12         2.1739  -19.0476  -49.5475 C.ar      23 UNK        -0.1150 
     13 C13         3.4929  -19.0690  -49.0797 C.ar      23 UNK        -0.0193 
     14 C14         4.1207  -17.8632  -48.7518 C.ar      23 UNK        -0.1150 
     15 C15         4.2428  -20.3894  -48.9312 C.3       23 UNK        -0.0205 
     16 S16         3.7267  -21.3328  -47.4528 S.3       23 UNK        -0.2404 
     17 C17         2.1347  -22.0096  -48.0232 C.3       23 UNK        -0.0398 
     18 CA          1.6709  -23.2911  -47.2862 C.3       11 UNK         0.1400 
     19 N           1.3789  -23.0310  -45.8730 N.am      11 UNK        -0.5000 
     20 C           0.9861  -23.9342  -44.9628 C.2       10 UNK         0.5000 
     21 O           0.6826  -25.0965  -45.2296 O.2       10 UNK        -0.5000 
     22 CA          0.9062  -23.4495  -43.5074 C.3       10 UNK         0.1400 
     23 CB          2.2661  -22.9297  -43.0095 C.3       10 UNK        -0.1800 
     24 N          -0.0873  -22.3878  -43.4026 N.am      10 UNK        -0.5000 
     25 C          -1.2829  -22.5081  -42.8104 C.2       9 UNK         0.5000 
     26 O          -1.6271  -23.4947  -42.1591 O.2       9 UNK        -0.5000 
     27 CA         -2.2778  -21.3376  -42.9724 C.3       9 UNK         0.1400 
     28 CB         -2.3527  -20.5128  -41.6783 C.3       9 UNK        -0.1800 
     29 N          -1.9719  -20.4355  -44.0851 N.am      9 UNK        -0.5000 
     30 C          -1.9405  -20.7802  -45.3795 C.2       8 UNK         0.5000 
     31 O          -2.2128  -21.9046  -45.7960 O.2       8 UNK        -0.5000 
     32 CA         -1.4481  -19.7099  -46.3716 C.3       8 UNK         0.1400 
     33 CB         -2.6488  -18.9582  -46.9593 C.3       8 UNK        -0.1800 
     34 N          -0.4801  -18.7630  -45.7996 N.am      8 UNK        -0.5000 
     35 C           0.6939  -19.1161  -45.2456 C.2       7 UNK         0.5000 
     36 O           1.0605  -20.2891  -45.1544 O.2       7 UNK        -0.5000 
     37 CA          1.6093  -18.0154  -44.6759 C.3       7 UNK         0.1400 
     38 CB          3.0222  -18.1240  -45.2628 C.3       7 UNK        -0.1800 
     39 N           1.1069  -16.6605  -44.9011 N.am      7 UNK        -0.5000 
     40 C           0.2983  -15.9997  -44.0635 C.2       6 UNK         0.5000 
     41 O          -0.1367  -16.4746  -43.0141 O.2       6 UNK        -0.5000 
     42 CA         -0.1054  -14.5699  -44.4775 C.3       6 UNK         0.1400 
     43 CB          0.9453  -13.5654  -43.9751 C.3       6 UNK        -0.1800 
     44 N          -0.3025  -14.3814  -45.9210 N.am      6 UNK        -0.5000 
     45 C          -1.1402  -15.0858  -46.6967 C.2       5 UNK         0.5000 
     46 O          -1.7897  -16.0457  -46.2861 O.2       5 UNK        -0.5000 
     47 CA         -1.2708  -14.6460  -48.1670 C.3       5 UNK         0.1400 
     48 CB         -2.6576  -14.9629  -48.7558 C.3       5 UNK        -0.1800 
     49 N          -1.0010  -13.2157  -48.3154 N.am      5 UNK        -0.5000 
     50 C          -0.0725  -12.6659  -49.1038 C.2       4 UNK         0.5000 
     51 O           0.6992  -13.3175  -49.8057 O.2       4 UNK        -0.5000 
     52 CA          0.0510  -11.1295  -49.0846 C.3       4 UNK         0.1400 
     53 CB         -0.9174  -10.4810  -50.0918 C.3       4 UNK        -0.1800 
     54 N          -0.0612  -10.5176  -47.7513 N.am      4 UNK        -0.5000 
     55 C          -1.1308  -10.4207  -46.9449 C.2       3 UNK         0.5000 
     56 O          -2.2307  -10.8996  -47.2230 O.2       3 UNK        -0.5000 
     57 CA         -0.9371   -9.7176  -45.5835 C.3       3 UNK         0.1400 
     58 CB         -1.6760  -10.4614  -44.4562 C.3       3 UNK        -0.1800 
     59 N           0.4770   -9.5908  -45.2193 N.am      3 UNK        -0.5000 
     60 C           1.2409   -8.5127  -45.4408 C.2       2 UNK         0.5000 
     61 O           0.8265   -7.4687  -45.9446 O.2       2 UNK        -0.5000 
     62 CA          2.7320   -8.6408  -45.0692 C.3       2 UNK         0.1400 
     63 CB          2.9666   -8.1792  -43.6230 C.3       2 UNK        -0.1800 
     64 N           3.2664   -9.9983  -45.2331 N.am      2 UNK        -0.5000 
     65 C           3.3614  -10.6469  -46.4019 C.2       1 UNK         0.5000 
     66 O           2.9803  -10.1765  -47.4753 O.2       1 UNK        -0.5000 
     67 C           0.4690  -23.8917  -48.0391 C.2       11 UNK         0.5000 
     68 O           0.5515  -25.0007  -48.5696 O.2       11 UNK        -0.5000 
     69 N          -0.6236  -23.1224  -48.0872 N.am      12 UNK        -0.5000 
     70 CA         -1.8076  -23.4330  -48.8808 C.3       12 UNK         0.1400 
     71 CB         -2.6004  -22.1474  -49.1269 C.3       12 UNK        -0.1800 
     72 C          -2.6838  -24.5049  -48.2211 C.2       12 UNK         0.5000 
     73 O          -3.3961  -25.2128  -48.9315 O.2       12 UNK        -0.5000 
     74 N          -2.6043  -24.6153  -46.8896 N.am      13 UNK        -0.5000 
     75 CA         -3.2171  -25.6756  -46.0965 C.3       13 UNK         0.1400 
     76 CB         -3.1056  -25.3259  -44.6065 C.3       13 UNK        -0.1800 
     77 C          -2.5824  -27.0458  -46.3907 C.2       13 UNK         0.5000 
     78 O          -3.3131  -28.0121  -46.6079 O.2       13 UNK        -0.5000 
     79 N          -1.2419  -27.0973  -46.4445 N.am      14 UNK        -0.5000 
     80 CA         -0.4753  -28.2946  -46.8008 C.3       14 UNK         0.1400 
     81 CB          1.0136  -28.0652  -46.5018 C.3       14 UNK        -0.1800 
     82 C          -0.6752  -28.7138  -48.2688 C.2       14 UNK         0.5000 
     83 O          -0.7527  -29.9091  -48.5547 O.2       14 UNK        -0.5000 
     84 N          -0.7869  -27.7243  -49.1659 N.am      15 UNK        -0.5000 
     85 CA         -1.0855  -27.9210  -50.5868 C.3       15 UNK         0.1400 
     86 CB         -0.7320  -26.6340  -51.3481 C.3       15 UNK        -0.1800 
     87 C          -2.5534  -28.3103  -50.8633 C.2       15 UNK         0.5000 
     88 O          -2.8487  -28.7789  -51.9631 O.2       15 UNK        -0.5000 
     89 N          -3.4413  -28.0798  -49.8829 N.am      16 UNK        -0.5000 
     90 CA         -4.9026  -28.2116  -49.9422 C.3       16 UNK         0.1400 
     91 CB         -5.3202  -29.6839  -50.1364 C.3       16 UNK        -0.1800 
     92 C          -5.5460  -27.2531  -50.9704 C.2       16 UNK         0.5000 
     93 O          -6.5601  -27.5868  -51.5861 O.2       16 UNK        -0.5000 
     94 N          -4.9291  -26.0775  -51.1358 N.am      17 UNK        -0.5000 
     95 CA         -5.3272  -25.0257  -52.0684 C.3       17 UNK         0.1400 
     96 CB         -4.0569  -24.4469  -52.7125 C.3       17 UNK        -0.1800 
     97 C          -6.1273  -23.9147  -51.3660 C.2       17 UNK         0.5000 
     98 O          -7.0201  -23.3366  -51.9857 O.2       17 UNK        -0.5000 
     99 N          -5.7988  -23.6570  -50.0895 N.am      18 UNK        -0.5000 
    100 CA        -6.3322  -22.6104  -49.2077 C.3       18 UNK         0.1400 
    101 CB        -7.8545  -22.7714  -49.0149 C.3       18 UNK        -0.1800 
    102 C         -5.9667  -21.1711  -49.6375 C.2       18 UNK         0.5000 
    103 O         -5.4685  -20.9319  -50.7417 O.2       18 UNK        -0.5000 
    104 N         -6.2139  -20.2172  -48.7286 N.am      19 UNK        -0.5000 
    105 CA        -5.8978  -18.7929  -48.8885 C.3       19 UNK         0.1400 
    106 CB        -6.2053  -18.0565  -47.5766 C.3       19 UNK        -0.1800 
    107 C         -6.6180  -18.1141  -50.0683 C.2       19 UNK         0.5000 
    108 O         -6.0871  -17.1531  -50.6243 O.2       19 UNK        -0.5000 
    109 N         -7.7838  -18.6499  -50.4560 N.am      20 UNK        -0.5000 
    110 CA        -8.5599  -18.2214  -51.6204 C.3       20 UNK         0.1400 
    111 CB        -9.8985  -18.9751  -51.6346 C.3       20 UNK        -0.1800 
    112 C         -7.8156  -18.4159  -52.9567 C.2       20 UNK         0.5000 
    113 O         -8.0051  -17.6138  -53.8720 O.2       20 UNK        -0.5000 
    114 N         -6.9764  -19.4578  -53.0400 N.am      21 UNK        -0.5000 
    115 CA        -6.0980  -19.7099  -54.1804 C.3       21 UNK         0.1400 
    116 CB        -5.8804  -21.2216  -54.3294 C.3       21 UNK        -0.1800 
    117 C         -4.7490  -18.9908  -54.0160 C.2       21 UNK         0.5000 
    118 O         -4.2182  -18.4724  -54.9991 O.2       21 UNK        -0.5000 
    119 N         -4.2141  -18.9886  -52.7868 N.am      22 UNK        -0.5000 
    120 CA        -2.9137  -18.3882  -52.4470 C.3       22 UNK         0.1400 
    121 C         -2.8742  -16.8357  -52.5373 C.2       22 UNK         0.5000 
    122 N         -3.9458  -16.1328  -52.1927 N.am      22 UNK        -0.7600 
    123 O         -1.8644  -16.2629  -52.9356 O.2       22 UNK        -0.5000 
    124 C124       -2.4068  -18.8881  -51.0696 C.3       23 UNK        -0.0398 
    125 S125       -0.6093  -19.2065  -51.0398 S.3       23 UNK        -0.2404 
    126 C126       -0.0068  -17.7846  -50.0682 C.3       23 UNK        -0.0205 
    127 H127        8.0858  -10.5578  -47.2135 H         1 UNK         0.0600 
    128 H128        7.5961  -12.0320  -48.0535 H         1 UNK         0.0600 
    129 H129        8.4510  -12.1380  -46.5123 H         1 UNK         0.0600 
    130 H130        5.4117  -12.4139  -47.8578 H         1 UNK         0.3000 
    131 H131        4.0213  -12.3876  -45.3261 H         1 UNK         0.0600 
    132 H132        3.0231  -12.8380  -48.1864 H         1 UNK         0.0800 
    133 H133        2.0180  -12.9596  -46.7756 H         1 UNK         0.0800 
    134 H134        3.8741  -14.5939  -49.2423 H         1 UNK         0.0800 
    135 H135        5.1806  -15.4472  -48.4625 H         1 UNK         0.0800 
    136 H136        1.5863  -15.7129  -49.4002 H         1 UNK         0.1150 
    137 H137        1.6952  -19.9774  -49.8098 H         1 UNK         0.1150 
    138 H138        5.1379  -17.8684  -48.3860 H         1 UNK         0.1150 
    139 H139        4.1102  -20.9944  -49.8291 H         1 UNK         0.0800 
    140 H140        5.3149  -20.2008  -48.8571 H         1 UNK         0.0800 
    141 H141        2.2228  -22.2080  -49.0933 H         1 UNK         0.0800 
    142 H142        1.3875  -21.2228  -47.9114 H         1 UNK         0.0800 
    143 H143        2.4784  -24.0249  -47.3248 H         1 UNK         0.0600 
    144 H144        1.5427  -22.0760  -45.5655 H         1 UNK         0.3000 
    145 H145        0.6288  -24.3058  -42.8891 H         1 UNK         0.0600 
    146 H146        3.0397  -23.6901  -43.1227 H         1 UNK         0.0600 
    147 H147        2.5932  -22.0430  -43.5540 H         1 UNK         0.0600 
    148 H148        2.2192  -22.6690  -41.9522 H         1 UNK         0.0600 
    149 H149        0.1081  -21.5478  -43.9363 H         1 UNK         0.3000 
    150 H150       -3.2607  -21.7743  -43.1606 H         1 UNK         0.0600 
    151 H151       -2.6102  -21.1429  -40.8260 H         1 UNK         0.0600 
    152 H152       -3.1149  -19.7365  -41.7480 H         1 UNK         0.0600 
    153 H153       -1.4003  -20.0304  -41.4545 H         1 UNK         0.0600 
    154 H154       -1.7170  -19.4895  -43.8410 H         1 UNK         0.3000 
    155 H155       -0.9442  -20.2283  -47.1888 H         1 UNK         0.0600 
    156 H156       -3.1661  -18.3730  -46.1984 H         1 UNK         0.0600 
    157 H157       -2.3455  -18.2807  -47.7547 H         1 UNK         0.0600 
    158 H158       -3.3734  -19.6521  -47.3850 H         1 UNK         0.0600 
    159 H159       -0.7405  -17.7830  -45.8260 H         1 UNK         0.3000 
    160 H160        1.6874  -18.1976  -43.6021 H         1 UNK         0.0600 
    161 H161        3.0026  -17.9977  -46.3422 H         1 UNK         0.0600 
    162 H162        3.4666  -19.0982  -45.0548 H         1 UNK         0.0600 
    163 H163        3.6868  -17.3674  -44.8458 H         1 UNK         0.0600 
    164 H164        1.4197  -16.1967  -45.7424 H         1 UNK         0.3000 
    165 H165       -1.0568  -14.3431  -43.9921 H         1 UNK         0.0600 
    166 H166        0.6972  -12.5440  -44.2567 H         1 UNK         0.0600 
    167 H167        1.0159  -13.5926  -42.8870 H         1 UNK         0.0600 
    168 H168        1.9372  -13.7895  -44.3678 H         1 UNK         0.0600 
    169 H169        0.1862  -13.6123  -46.3492 H         1 UNK         0.3000 
    170 H170       -0.5348  -15.2266  -48.7210 H         1 UNK         0.0600 
    171 H171       -2.8734  -16.0310  -48.7165 H         1 UNK         0.0600 
    172 H172       -3.4506  -14.4458  -48.2144 H         1 UNK         0.0600 
    173 H173       -2.7161  -14.6635  -49.8023 H         1 UNK         0.0600 
    174 H174       -1.6022  -12.5811  -47.7942 H         1 UNK         0.3000 
    175 H175        1.0635  -10.9000  -49.4207 H         1 UNK         0.0600 
    176 H176       -1.9602  -10.6898  -49.8519 H         1 UNK         0.0600 
    177 H177       -0.7890   -9.3991  -50.1212 H         1 UNK         0.0600 
    178 H178       -0.7365  -10.8572  -51.0995 H         1 UNK         0.0600 
    179 H179        0.8040  -10.1094  -47.4183 H         1 UNK         0.3000 
    180 H180       -1.3840   -8.7255  -45.6730 H         1 UNK         0.0600 
    181 H181       -1.3744  -11.5062  -44.3900 H         1 UNK         0.0600 
    182 H182       -2.7541  -10.4462  -44.6206 H         1 UNK         0.0600 
    183 H183       -1.4934   -9.9950  -43.4879 H         1 UNK         0.0600 
    184 H184        0.9088  -10.3962  -44.7923 H         1 UNK         0.3000 
    185 H185        3.2930   -7.9799  -45.7333 H         1 UNK         0.0600 
    186 H186        2.6024   -7.1618  -43.4734 H         1 UNK         0.0600 
    187 H187        2.4522   -8.8207  -42.9063 H         1 UNK         0.0600 
    188 H188        4.0283   -8.1820  -43.3754 H         1 UNK         0.0600 
    189 H189        3.6425  -10.4341  -44.4026 H         1 UNK         0.3000 
    190 H190       -0.6572  -22.2793  -47.5350 H         1 UNK         0.3000 
    191 H191       -1.4763  -23.8099  -49.8499 H         1 UNK         0.0600 
    192 H192       -3.2168  -21.8737  -48.2710 H         1 UNK         0.0600 
    193 H193       -3.2569  -22.2701  -49.9871 H         1 UNK         0.0600 
    194 H194       -1.9364  -21.3125  -49.3429 H         1 UNK         0.0600 
    195 H195       -2.0718  -23.9147  -46.3875 H         1 UNK         0.3000 
    196 H196       -4.2758  -25.7276  -46.3593 H         1 UNK         0.0600 
    197 H197       -3.5914  -26.0826  -43.9895 H         1 UNK         0.0600 
    198 H198       -3.5836  -24.3706  -44.3887 H         1 UNK         0.0600 
    199 H199       -2.0652  -25.2592  -44.2863 H         1 UNK         0.0600 
    200 H200       -0.7012  -26.2667  -46.2250 H         1 UNK         0.3000 
    201 H201       -0.8236  -29.1165  -46.1718 H         1 UNK         0.0600 
    202 H202        1.1748  -27.8593  -45.4436 H         1 UNK         0.0600 
    203 H203        1.4137  -27.2250  -47.0707 H         1 UNK         0.0600 
    204 H204        1.6047  -28.9462  -46.7551 H         1 UNK         0.0600 
    205 H205       -0.6316  -26.7711  -48.8576 H         1 UNK         0.3000 
    206 H206       -0.4524  -28.7267  -50.9640 H         1 UNK         0.0600 
    207 H207       -0.8541  -26.7702  -52.4234 H         1 UNK         0.0600 
    208 H208       -1.3737  -25.8052  -51.0508 H         1 UNK         0.0600 
    209 H209        0.3030  -26.3396  -51.1729 H         1 UNK         0.0600 
    210 H210       -3.0864  -27.6791  -49.0251 H         1 UNK         0.3000 
    211 H211       -5.2701  -27.8932  -48.9657 H         1 UNK         0.0600 
    212 H212       -5.0510  -30.0564  -51.1250 H         1 UNK         0.0600 
    213 H213       -6.3988  -29.8014  -50.0265 H         1 UNK         0.0600 
    214 H214       -4.8474  -30.3274  -49.3944 H         1 UNK         0.0600 
    215 H215       -4.1464  -25.8729  -50.5214 H         1 UNK         0.3000 
    216 H216       -5.9509  -25.4451  -52.8606 H         1 UNK         0.0600 
    217 H217       -3.4179  -23.9544  -51.9783 H         1 UNK         0.0600 
    218 H218       -4.3060  -23.7137  -53.4791 H         1 UNK         0.0600 
    219 H219       -3.4695  -25.2289  -53.1943 H         1 UNK         0.0600 
    220 H220       -5.0531  -24.2129  -49.6892 H         1 UNK         0.3000 
    221 H221       -5.8538  -22.7774  -48.2414 H         1 UNK         0.0600 
    222 H222       -8.4110  -22.5114  -49.9158 H         1 UNK         0.0600 
    223 H223       -8.1108  -23.7968  -48.7483 H         1 UNK         0.0600 
    224 H224       -8.2223  -22.1311  -48.2127 H         1 UNK         0.0600 
    225 H225       -6.6266  -20.4814  -47.8456 H         1 UNK         0.3000 
    226 H226       -4.8270  -18.7130  -49.0814 H         1 UNK         0.0600 
    227 H227       -5.6565  -18.4879  -46.7397 H         1 UNK         0.0600 
    228 H228       -5.9189  -17.0058  -47.6431 H         1 UNK         0.0600 
    229 H229       -7.2682  -18.0933  -47.3346 H         1 UNK         0.0600 
    230 H230       -8.1412  -19.4387  -49.9383 H         1 UNK         0.3000 
    231 H231       -8.7667  -17.1549  -51.5099 H         1 UNK         0.0600 
    232 H232      -10.5132  -18.6632  -52.4801 H         1 UNK         0.0600 
    233 H233      -10.4718  -18.7795  -50.7283 H         1 UNK         0.0600 
    234 H234       -9.7524  -20.0532  -51.7148 H         1 UNK         0.0600 
    235 H235       -6.8554  -20.0614  -52.2361 H         1 UNK         0.3000 
    236 H236       -6.5682  -19.3474  -55.0971 H         1 UNK         0.0600 
    237 H237       -6.8257  -21.7462  -54.4694 H         1 UNK         0.0600 
    238 H238       -5.2503  -21.4449  -55.1911 H         1 UNK         0.0600 
    239 H239       -5.3937  -21.6386  -53.4481 H         1 UNK         0.0600 
    240 H240       -4.7031  -19.4751  -52.0451 H         1 UNK         0.3000 
    241 H241       -2.2211  -18.7531  -53.2084 H         1 UNK         0.0600 
    242 H242       -4.7674  -16.5807  -51.7931 H         1 UNK         0.3800 
    243 H243       -3.9204  -15.1295  -52.2697 H         1 UNK         0.3800 
    244 H244       -2.6934  -18.2127  -50.2622 H         1 UNK         0.0800 
    245 H245       -2.8833  -19.8375  -50.8283 H         1 UNK         0.0800 
    246 H246       -0.5968  -17.7044  -49.1562 H         1 UNK         0.0800 
    247 H247       -0.1915  -16.8767  -50.6449 H         1 UNK         0.0800 
@<TRIPOS>BOND
     1    1    2 1    
     2    1  127 1    
     3    1  128 1    
     4    1  129 1    
     5    2    3 2    
     6    2    4 am   BACKBONE|DICT|INTERRES
     7    4    5 1    
     8    4  130 1    
     9    5    6 1    
    10    5   65 1    
    11    5  131 1    
    12    6    7 1    
    13    6  132 1    
    14    6  133 1    
    15    7    8 1    
    16    8    9 1    
    17    8  134 1    
    18    8  135 1    
    19    9   10 ar   
    20    9   14 ar   
    21   10   11 ar   
    22   10  136 1    
    23   11   12 ar   
    24   11  126 1    
    25   12   13 ar   
    26   12  137 1    
    27   13   14 ar   
    28   13   15 1    
    29   14  138 1    
    30   15   16 1    
    31   15  139 1    
    32   15  140 1    
    33   16   17 1    
    34   17   18 1    
    35   17  141 1    
    36   17  142 1    
    37   18   19 1    
    38   18   67 1    
    39   18  143 1    
    40   19   20 am   BACKBONE|DICT|INTERRES
    41   19  144 1    
    42   20   21 2    
    43   20   22 1    
    44   22   23 1    
    45   22   24 1    
    46   22  145 1    
    47   23  146 1    
    48   23  147 1    
    49   23  148 1    
    50   24   25 am   BACKBONE|DICT|INTERRES
    51   24  149 1    
    52   25   26 2    
    53   25   27 1    
    54   27   28 1    
    55   27   29 1    
    56   27  150 1    
    57   28  151 1    
    58   28  152 1    
    59   28  153 1    
    60   29   30 am   BACKBONE|DICT|INTERRES
    61   29  154 1    
    62   30   31 2    
    63   30   32 1    
    64   32   33 1    
    65   32   34 1    
    66   32  155 1    
    67   33  156 1    
    68   33  157 1    
    69   33  158 1    
    70   34   35 am   BACKBONE|DICT|INTERRES
    71   34  159 1    
    72   35   36 2    
    73   35   37 1    
    74   37   38 1    
    75   37   39 1    
    76   37  160 1    
    77   38  161 1    
    78   38  162 1    
    79   38  163 1    
    80   39   40 am   BACKBONE|DICT|INTERRES
    81   39  164 1    
    82   40   41 2    
    83   40   42 1    
    84   42   43 1    
    85   42   44 1    
    86   42  165 1    
    87   43  166 1    
    88   43  167 1    
    89   43  168 1    
    90   44   45 am   BACKBONE|DICT|INTERRES
    91   44  169 1    
    92   45   46 2    
    93   45   47 1    
    94   47   48 1    
    95   47   49 1    
    96   47  170 1    
    97   48  171 1    
    98   48  172 1    
    99   48  173 1    
   100   49   50 am   BACKBONE|DICT|INTERRES
   101   49  174 1    
   102   50   51 2    
   103   50   52 1    
   104   52   53 1    
   105   52   54 1    
   106   52  175 1    
   107   53  176 1    
   108   53  177 1    
   109   53  178 1    
   110   54   55 am   BACKBONE|DICT|INTERRES
   111   54  179 1    
   112   55   56 2    
   113   55   57 1    
   114   57   58 1    
   115   57   59 1    
   116   57  180 1    
   117   58  181 1    
   118   58  182 1    
   119   58  183 1    
   120   59   60 am   BACKBONE|DICT|INTERRES
   121   59  184 1    
   122   60   61 2    
   123   60   62 1    
   124   62   63 1    
   125   62   64 1    
   126   62  185 1    
   127   63  186 1    
   128   63  187 1    
   129   63  188 1    
   130   64   65 am   BACKBONE|DICT|INTERRES
   131   64  189 1    
   132   65   66 2    
   133   67   68 2    
   134   67   69 am   BACKBONE|DICT|INTERRES
   135   69   70 1    
   136   69  190 1    
   137   70   71 1    
   138   70   72 1    
   139   70  191 1    
   140   71  192 1    
   141   71  193 1    
   142   71  194 1    
   143   72   73 2    
   144   72   74 am   BACKBONE|DICT|INTERRES
   145   74   75 1    
   146   74  195 1    
   147   75   76 1    
   148   75   77 1    
   149   75  196 1    
   150   76  197 1    
   151   76  198 1    
   152   76  199 1    
   153   77   78 2    
   154   77   79 am   BACKBONE|DICT|INTERRES
   155   79   80 1    
   156   79  200 1    
   157   80   81 1    
   158   80   82 1    
   159   80  201 1    
   160   81  202 1    
   161   81  203 1    
   162   81  204 1    
   163   82   83 2    
   164   82   84 am   BACKBONE|DICT|INTERRES
   165   84   85 1    
   166   84  205 1    
   167   85   86 1    
   168   85   87 1    
   169   85  206 1    
   170   86  207 1    
   171   86  208 1    
   172   86  209 1    
   173   87   88 2    
   174   87   89 am   BACKBONE|DICT|INTERRES
   175   89   90 1    
   176   89  210 1    
   177   90   91 1    
   178   90   92 1    
   179   90  211 1    
   180   91  212 1    
   181   91  213 1    
   182   91  214 1    
   183   92   93 2    
   184   92   94 am   BACKBONE|DICT|INTERRES
   185   94   95 1    
   186   94  215 1    
   187   95   96 1    
   188   95   97 1    
   189   95  216 1    
   190   96  217 1    
   191   96  218 1    
   192   96  219 1    
   193   97   98 2    
   194   97   99 am   BACKBONE|DICT|INTERRES
   195   99  100 1    
   196   99  220 1    
   197  100  101 1    
   198  100  102 1    
   199  100  221 1    
   200  101  222 1    
   201  101  223 1    
   202  101  224 1    
   203  102  103 2    
   204  102  104 am   BACKBONE|DICT|INTERRES
   205  104  105 1    
   206  104  225 1    
   207  105  106 1    
   208  105  107 1    
   209  105  226 1    
   210  106  227 1    
   211  106  228 1    
   212  106  229 1    
   213  107  108 2    
   214  107  109 am   BACKBONE|DICT|INTERRES
   215  109  110 1    
   216  109  230 1    
   217  110  111 1    
   218  110  112 1    
   219  110  231 1    
   220  111  232 1    
   221  111  233 1    
   222  111  234 1    
   223  112  113 2    
   224  112  114 am   BACKBONE|DICT|INTERRES
   225  114  115 1    
   226  114  235 1    
   227  115  116 1    
   228  115  117 1    
   229  115  236 1    
   230  116  237 1    
   231  116  238 1    
   232  116  239 1    
   233  117  118 2    
   234  117  119 am   BACKBONE|DICT|INTERRES
   235  119  120 1    
   236  119  240 1    
   237  120  121 1    
   238  120  124 1    
   239  120  241 1    
   240  121  122 am   BACKBONE|DICT|INTERRES
   241  121  123 2    
   242  122  242 1    
   243  122  243 1    
   244  124  125 1    
   245  124  244 1    
   246  124  245 1    
   247  125  126 1    
   248  126  246 1    
   249  126  247 1    
@<TRIPOS>SUBSTRUCTURE
     1 UNK         1 GROUP             0       ****    0 ROOT    
