@<TRIPOS>MOLECULE
3R540
247   249    1
SMALL
USER_CHARGES


@<TRIPOS>ATOM
      1 CA         -4.5282  -11.7808  -49.3840 C.3       0 UNK        -0.1800 
      2 C          -3.4496  -12.3744  -48.4903 C.2       0 UNK         0.5000 
      3 O          -2.8385  -11.6545  -47.7001 O.2       0 UNK        -0.5000 
      4 N          -3.2275  -13.6917  -48.5928 N.am      1 UNK        -0.5000 
      5 CA         -2.1999  -14.4431  -47.8519 C.3       1 UNK         0.1400 
      6 C6         -2.0490  -15.8751  -48.4100 C.3       23 UNK        -0.0398 
      7 S7         -0.3609  -16.5452  -48.3646 S.3       23 UNK        -0.2404 
      8 C8         -0.7315  -18.2673  -48.8249 C.3       23 UNK        -0.0205 
      9 C9          0.4228  -18.9123  -49.5719 C.ar      23 UNK        -0.0193 
     10 C10         0.3138  -19.1716  -50.9406 C.ar      23 UNK        -0.1150 
     11 C11         1.3631  -19.7798  -51.6351 C.ar      23 UNK        -0.0193 
     12 C12         2.5348  -20.1184  -50.9489 C.ar      23 UNK        -0.1150 
     13 C13         2.6584  -19.8579  -49.5802 C.ar      23 UNK        -0.0193 
     14 C14         1.5975  -19.2563  -48.8988 C.ar      23 UNK        -0.1150 
     15 C15         3.9467  -20.1909  -48.8382 C.3       23 UNK        -0.0205 
     16 S16         4.2836  -21.9789  -48.7509 S.3       23 UNK        -0.2404 
     17 C17         2.7742  -22.6486  -47.9745 C.3       23 UNK        -0.0398 
     18 CA          3.1036  -23.6964  -46.8811 C.3       11 UNK         0.1400 
     19 N           3.4728  -23.0663  -45.6080 N.am      11 UNK        -0.5000 
     20 C           4.0959  -23.7008  -44.6055 C.2       10 UNK         0.5000 
     21 O           4.5194  -24.8548  -44.6836 O.2       10 UNK        -0.5000 
     22 CA          4.2404  -22.9307  -43.2809 C.3       10 UNK         0.1400 
     23 CB          5.4141  -21.9425  -43.3516 C.3       10 UNK        -0.1800 
     24 N           3.0130  -22.2293  -42.8916 N.am      10 UNK        -0.5000 
     25 C           1.8707  -22.8377  -42.5366 C.2       9 UNK         0.5000 
     26 O           1.7346  -24.0601  -42.4905 O.2       9 UNK        -0.5000 
     27 CA          0.6690  -21.9407  -42.1854 C.3       9 UNK         0.1400 
     28 CB          0.7584  -21.4634  -40.7283 C.3       9 UNK        -0.1800 
     29 N           0.5398  -20.7842  -43.0696 N.am      9 UNK        -0.5000 
     30 C           0.2148  -20.8443  -44.3683 C.2       8 UNK         0.5000 
     31 O          -0.0690  -21.8853  -44.9606 O.2       8 UNK        -0.5000 
     32 CA          0.2798  -19.5251  -45.1578 C.3       8 UNK         0.1400 
     33 CB         -0.9937  -18.6906  -44.9574 C.3       8 UNK        -0.1800 
     34 N           1.4599  -18.7256  -44.8218 N.am      8 UNK        -0.5000 
     35 C           2.7255  -19.1439  -44.9722 C.2       7 UNK         0.5000 
     36 O           3.0339  -20.2328  -45.4555 O.2       7 UNK        -0.5000 
     37 CA          3.8275  -18.2163  -44.4403 C.3       7 UNK         0.1400 
     38 CB          4.1547  -17.1123  -45.4576 C.3       7 UNK        -0.1800 
     39 N           3.4487  -17.6275  -43.1558 N.am      7 UNK        -0.5000 
     40 C           3.4233  -18.3050  -41.9987 C.2       6 UNK         0.5000 
     41 O           3.7611  -19.4832  -41.8933 O.2       6 UNK        -0.5000 
     42 CA          2.8955  -17.5583  -40.7585 C.3       6 UNK         0.1400 
     43 CB          4.0151  -16.7344  -40.1057 C.3       6 UNK        -0.1800 
     44 N           1.7623  -16.6832  -41.0596 N.am      6 UNK        -0.5000 
     45 C           0.5636  -17.1127  -41.4777 C.2       5 UNK         0.5000 
     46 O           0.2703  -18.3014  -41.5968 O.2       5 UNK        -0.5000 
     47 CA         -0.4656  -16.0371  -41.8761 C.3       5 UNK         0.1400 
     48 CB         -1.3408  -15.6623  -40.6714 C.3       5 UNK        -0.1800 
     49 N           0.1106  -14.8178  -42.4532 N.am      5 UNK        -0.5000 
     50 C           0.9306  -14.7670  -43.5138 C.2       4 UNK         0.5000 
     51 O           1.3781  -15.7681  -44.0756 O.2       4 UNK        -0.5000 
     52 CA          1.2764  -13.3615  -44.0328 C.3       4 UNK         0.1400 
     53 CB          2.0658  -13.3913  -45.3543 C.3       4 UNK        -0.1800 
     54 N           0.0325  -12.6270  -44.2377 N.am      4 UNK        -0.5000 
     55 C          -0.2685  -11.4201  -43.7422 C.2       3 UNK         0.5000 
     56 O           0.5089  -10.7527  -43.0590 O.2       3 UNK        -0.5000 
     57 CA         -1.6730  -10.8559  -44.0518 C.3       3 UNK         0.1400 
     58 CB         -1.5820   -9.7405  -45.1044 C.3       3 UNK        -0.1800 
     59 N          -2.6171  -11.8727  -44.5222 N.am      3 UNK        -0.5000 
     60 C          -3.1637  -12.8233  -43.7482 C.2       2 UNK         0.5000 
     61 O          -3.0088  -12.8749  -42.5282 O.2       2 UNK        -0.5000 
     62 CA         -3.9833  -13.9269  -44.4530 C.3       2 UNK         0.1400 
     63 CB         -5.4872  -13.6335  -44.3482 C.3       2 UNK        -0.1800 
     64 N          -3.6344  -14.1123  -45.8647 N.am      2 UNK        -0.5000 
     65 C          -2.4239  -14.4642  -46.3233 C.2       1 UNK         0.5000 
     66 O          -1.4881  -14.7517  -45.5818 O.2       1 UNK        -0.5000 
     67 C           1.9382  -24.6970  -46.7124 C.2       11 UNK         0.5000 
     68 O           1.8535  -25.6517  -47.4851 O.2       11 UNK        -0.5000 
     69 N           1.0795  -24.4643  -45.7079 N.am      12 UNK        -0.5000 
     70 CA         -0.1793  -25.1589  -45.4240 C.3       12 UNK         0.1400 
     71 CB          0.0569  -26.6423  -45.0710 C.3       12 UNK        -0.1800 
     72 C          -1.1978  -24.9414  -46.5606 C.2       12 UNK         0.5000 
     73 O          -1.8031  -25.8951  -47.0542 O.2       12 UNK        -0.5000 
     74 N          -1.3373  -23.6731  -46.9685 N.am      13 UNK        -0.5000 
     75 CA         -2.2170  -23.2310  -48.0467 C.3       13 UNK         0.1400 
     76 CB         -1.8549  -21.7870  -48.4244 C.3       13 UNK        -0.1800 
     77 C          -3.6980  -23.3562  -47.6519 C.2       13 UNK         0.5000 
     78 O          -4.0668  -22.9840  -46.5349 O.2       13 UNK        -0.5000 
     79 N          -4.5146  -23.8811  -48.5720 N.am      14 UNK        -0.5000 
     80 CA         -5.9507  -24.0803  -48.3744 C.3       14 UNK         0.1400 
     81 CB         -6.4038  -25.3150  -49.1662 C.3       14 UNK        -0.1800 
     82 C          -6.7614  -22.8389  -48.7829 C.2       14 UNK         0.5000 
     83 O          -7.8206  -22.5912  -48.2006 O.2       14 UNK        -0.5000 
     84 N          -6.2433  -22.0750  -49.7536 N.am      15 UNK        -0.5000 
     85 CA         -6.7570  -20.7681  -50.1519 C.3       15 UNK         0.1400 
     86 CB         -6.8464  -20.7113  -51.6848 C.3       15 UNK        -0.1800 
     87 C          -5.7967  -19.6844  -49.6472 C.2       15 UNK         0.5000 
     88 O          -4.5955  -19.9365  -49.5237 O.2       15 UNK        -0.5000 
     89 N          -6.3161  -18.4702  -49.4315 N.am      16 UNK        -0.5000 
     90 CA         -5.5429  -17.2842  -49.0508 C.3       16 UNK         0.1400 
     91 CB         -6.4703  -16.2857  -48.3343 C.3       16 UNK        -0.1800 
     92 C          -4.8108  -16.6574  -50.2601 C.2       16 UNK         0.5000 
     93 O          -4.8938  -15.4455  -50.4714 O.2       16 UNK        -0.5000 
     94 N          -4.0899  -17.5017  -51.0115 N.am      17 UNK        -0.5000 
     95 CA         -3.5020  -17.2606  -52.3321 C.3       17 UNK         0.1400 
     96 CB         -2.3812  -16.1981  -52.2803 C.3       17 UNK        -0.1800 
     97 C          -4.5890  -16.9905  -53.3957 C.2       17 UNK         0.5000 
     98 O          -5.7234  -17.4493  -53.2319 O.2       17 UNK        -0.5000 
     99 N          -4.2153  -16.3109  -54.4904 N.am      18 UNK        -0.5000 
    100 CA        -4.9872  -16.0333  -55.7124 C.3       18 UNK         0.1400 
    101 CB        -6.2651  -15.2233  -55.4182 C.3       18 UNK        -0.1800 
    102 C         -5.2879  -17.2989  -56.5411 C.2       18 UNK         0.5000 
    103 O         -4.9448  -17.3495  -57.7231 O.2       18 UNK        -0.5000 
    104 N         -5.8802  -18.3090  -55.8967 N.am      19 UNK        -0.5000 
    105 CA        -5.9890  -19.6781  -56.3880 C.3       19 UNK         0.1400 
    106 CB        -7.1107  -20.3887  -55.6141 C.3       19 UNK        -0.1800 
    107 C         -4.6532  -20.4246  -56.2082 C.2       19 UNK         0.5000 
    108 O         -3.8226  -20.0294  -55.3864 O.2       19 UNK        -0.5000 
    109 N         -4.4891  -21.5203  -56.9576 N.am      20 UNK        -0.5000 
    110 CA        -3.2894  -22.3641  -56.9631 C.3       20 UNK         0.1400 
    111 CB        -3.2623  -23.1590  -58.2794 C.3       20 UNK        -0.1800 
    112 C         -3.1708  -23.3132  -55.7502 C.2       20 UNK         0.5000 
    113 O         -2.1856  -24.0478  -55.6590 O.2       20 UNK        -0.5000 
    114 N         -4.1615  -23.3057  -54.8466 N.am      21 UNK        -0.5000 
    115 CA        -4.2691  -24.1599  -53.6590 C.3       21 UNK         0.1400 
    116 CB        -5.7420  -24.2006  -53.2205 C.3       21 UNK        -0.1800 
    117 C         -3.3095  -23.7544  -52.5137 C.2       21 UNK         0.5000 
    118 O         -3.7330  -23.5822  -51.3669 O.2       21 UNK        -0.5000 
    119 N         -2.0251  -23.6242  -52.8569 N.am      22 UNK        -0.5000 
    120 CA        -0.9000  -23.3066  -51.9650 C.3       22 UNK         0.1400 
    121 C         -0.4070  -24.5077  -51.1059 C.2       22 UNK         0.5000 
    122 N         -0.9186  -25.7200  -51.2818 N.am      22 UNK        -0.7600 
    123 O          0.4514  -24.3316  -50.2499 O.2       22 UNK        -0.5000 
    124 C124        0.2802  -22.6841  -52.7555 C.3       23 UNK        -0.0398 
    125 S125       -0.1736  -21.1097  -53.5617 S.3       23 UNK        -0.2404 
    126 C126        1.2426  -20.0430  -53.1314 C.3       23 UNK        -0.0205 
    127 H127       -4.9942  -12.5393  -50.0139 H         1 UNK         0.0600 
    128 H128       -4.0989  -11.0167  -50.0319 H         1 UNK         0.0600 
    129 H129       -5.3058  -11.3178  -48.7766 H         1 UNK         0.0600 
    130 H130       -3.7749  -14.2243  -49.2624 H         1 UNK         0.3000 
    131 H131       -1.2605  -13.9114  -48.0188 H         1 UNK         0.0600 
    132 H132       -2.7318  -16.5711  -47.9214 H         1 UNK         0.0800 
    133 H133       -2.3091  -15.8720  -49.4642 H         1 UNK         0.0800 
    134 H134       -1.6319  -18.3034  -49.4404 H         1 UNK         0.0800 
    135 H135       -0.9604  -18.8402  -47.9275 H         1 UNK         0.0800 
    136 H136       -0.5899  -18.9043  -51.4700 H         1 UNK         0.1150 
    137 H137        3.3571  -20.5796  -51.4777 H         1 UNK         0.1150 
    138 H138        1.6937  -19.0359  -47.8464 H         1 UNK         0.1150 
    139 H139        4.7802  -19.7042  -49.3459 H         1 UNK         0.0800 
    140 H140        3.9324  -19.7818  -47.8287 H         1 UNK         0.0800 
    141 H141        2.1608  -21.8449  -47.5643 H         1 UNK         0.0800 
    142 H142        2.1891  -23.0873  -48.7836 H         1 UNK         0.0800 
    143 H143        3.9567  -24.2874  -47.2220 H         1 UNK         0.0600 
    144 H144        3.2140  -22.0890  -45.4883 H         1 UNK         0.3000 
    145 H145        4.4660  -23.6596  -42.4996 H         1 UNK         0.0600 
    146 H146        5.5807  -21.4577  -42.3898 H         1 UNK         0.0600 
    147 H147        5.2430  -21.1652  -44.0959 H         1 UNK         0.0600 
    148 H148        6.3389  -22.4544  -43.6203 H         1 UNK         0.0600 
    149 H149        3.0635  -21.2176  -42.8535 H         1 UNK         0.3000 
    150 H150       -0.2357  -22.5436  -42.2890 H         1 UNK         0.0600 
    151 H151        0.8420  -22.3082  -40.0435 H         1 UNK         0.0600 
    152 H152       -0.1307  -20.9005  -40.4436 H         1 UNK         0.0600 
    153 H153        1.6252  -20.8215  -40.5674 H         1 UNK         0.0600 
    154 H154        0.6932  -19.8728  -42.6473 H         1 UNK         0.3000 
    155 H155        0.3493  -19.7895  -46.2126 H         1 UNK         0.0600 
    156 H156       -1.8683  -19.2235  -45.3324 H         1 UNK         0.0600 
    157 H157       -0.9359  -17.7407  -45.4899 H         1 UNK         0.0600 
    158 H158       -1.1717  -18.4735  -43.9051 H         1 UNK         0.0600 
    159 H159        1.3014  -17.7975  -44.4431 H         1 UNK         0.3000 
    160 H160        4.7305  -18.8118  -44.2928 H         1 UNK         0.0600 
    161 H161        3.2811  -16.5082  -45.7026 H         1 UNK         0.0600 
    162 H162        4.5208  -17.5435  -46.3901 H         1 UNK         0.0600 
    163 H163        4.9300  -16.4449  -45.0811 H         1 UNK         0.0600 
    164 H164        3.0486  -16.6982  -43.1901 H         1 UNK         0.3000 
    165 H165        2.5599  -18.3082  -40.0389 H         1 UNK         0.0600 
    166 H166        3.6735  -16.2668  -39.1821 H         1 UNK         0.0600 
    167 H167        4.8673  -17.3667  -39.8527 H         1 UNK         0.0600 
    168 H168        4.3758  -15.9468  -40.7684 H         1 UNK         0.0600 
    169 H169        1.9195  -15.6885  -40.9936 H         1 UNK         0.3000 
    170 H170       -1.1119  -16.4726  -42.6398 H         1 UNK         0.0600 
    171 H171       -0.7610  -15.1671  -39.8916 H         1 UNK         0.0600 
    172 H172       -2.1507  -14.9942  -40.9640 H         1 UNK         0.0600 
    173 H173       -1.7981  -16.5485  -40.2290 H         1 UNK         0.0600 
    174 H174       -0.2246  -13.9448  -42.0721 H         1 UNK         0.3000 
    175 H175        1.8920  -12.8805  -43.2703 H         1 UNK         0.0600 
    176 H176        1.5082  -13.9005  -46.1420 H         1 UNK         0.0600 
    177 H177        2.2910  -12.3829  -45.7012 H         1 UNK         0.0600 
    178 H178        3.0156  -13.9132  -45.2317 H         1 UNK         0.0600 
    179 H179       -0.6797  -13.1454  -44.7431 H         1 UNK         0.3000 
    180 H180       -2.0640  -10.4229  -43.1288 H         1 UNK         0.0600 
    181 H181       -2.5611   -9.3049  -45.3048 H         1 UNK         0.0600 
    182 H182       -1.1806  -10.1115  -46.0483 H         1 UNK         0.0600 
    183 H183       -0.9308   -8.9339  -44.7652 H         1 UNK         0.0600 
    184 H184       -2.7901  -11.8944  -45.5209 H         1 UNK         0.3000 
    185 H185       -3.7775  -14.8655  -43.9340 H         1 UNK         0.0600 
    186 H186       -5.7547  -12.7146  -44.8716 H         1 UNK         0.0600 
    187 H187       -6.0787  -14.4461  -44.7705 H         1 UNK         0.0600 
    188 H188       -5.7914  -13.5190  -43.3069 H         1 UNK         0.0600 
    189 H189       -4.3435  -13.8684  -46.5400 H         1 UNK         0.3000 
    190 H190        1.2277  -23.6289  -45.1565 H         1 UNK         0.3000 
    191 H191       -0.5984  -24.6773  -44.5392 H         1 UNK         0.0600 
    192 H192       -0.8673  -27.1107  -44.7311 H         1 UNK         0.0600 
    193 H193        0.7870  -26.7423  -44.2676 H         1 UNK         0.0600 
    194 H194        0.4159  -27.2160  -45.9255 H         1 UNK         0.0600 
    195 H195       -0.8503  -22.9511  -46.4473 H         1 UNK         0.3000 
    196 H196       -2.0356  -23.8711  -48.9099 H         1 UNK         0.0600 
    197 H197       -2.4380  -21.4539  -49.2831 H         1 UNK         0.0600 
    198 H198       -0.8023  -21.7006  -48.6964 H         1 UNK         0.0600 
    199 H199       -2.0499  -21.0959  -47.6034 H         1 UNK         0.0600 
    200 H200       -4.1498  -24.0870  -49.4976 H         1 UNK         0.3000 
    201 H201       -6.1502  -24.2734  -47.3180 H         1 UNK         0.0600 
    202 H202       -5.8776  -26.2102  -48.8340 H         1 UNK         0.0600 
    203 H203       -6.2210  -25.1959  -50.2324 H         1 UNK         0.0600 
    204 H204       -7.4712  -25.4956  -49.0328 H         1 UNK         0.0600 
    205 H205       -5.3354  -22.3233  -50.1304 H         1 UNK         0.3000 
    206 H206       -7.7490  -20.5889  -49.7319 H         1 UNK         0.0600 
    207 H207       -7.5358  -21.4646  -52.0660 H         1 UNK         0.0600 
    208 H208       -7.2116  -19.7396  -52.0211 H         1 UNK         0.0600 
    209 H209       -5.8735  -20.8726  -52.1523 H         1 UNK         0.0600 
    210 H210       -7.3002  -18.3220  -49.6043 H         1 UNK         0.3000 
    211 H211       -4.7791  -17.5893  -48.3336 H         1 UNK         0.0600 
    212 H212       -7.2571  -15.9216  -48.9962 H         1 UNK         0.0600 
    213 H213       -5.9137  -15.4190  -47.9759 H         1 UNK         0.0600 
    214 H214       -6.9462  -16.7426  -47.4664 H         1 UNK         0.0600 
    215 H215       -4.0996  -18.4732  -50.7157 H         1 UNK         0.3000 
    216 H216       -3.0391  -18.2045  -52.6247 H         1 UNK         0.0600 
    217 H217       -1.8617  -16.1166  -53.2351 H         1 UNK         0.0600 
    218 H218       -1.6226  -16.4681  -51.5466 H         1 UNK         0.0600 
    219 H219       -2.7627  -15.2088  -52.0267 H         1 UNK         0.0600 
    220 H220       -3.2536  -16.0042  -54.5291 H         1 UNK         0.3000 
    221 H221       -4.3430  -15.4031  -56.3278 H         1 UNK         0.0600 
    222 H222       -6.9887  -15.7901  -54.8322 H         1 UNK         0.0600 
    223 H223       -6.0339  -14.3094  -54.8710 H         1 UNK         0.0600 
    224 H224       -6.7588  -14.9313  -56.3457 H         1 UNK         0.0600 
    225 H225       -6.0495  -18.1712  -54.9033 H         1 UNK         0.3000 
    226 H226       -6.2452  -19.6592  -57.4494 H         1 UNK         0.0600 
    227 H227       -8.0609  -19.8672  -55.7312 H         1 UNK         0.0600 
    228 H228       -7.2553  -21.4084  -55.9728 H         1 UNK         0.0600 
    229 H229       -6.8894  -20.4428  -54.5482 H         1 UNK         0.0600 
    230 H230       -5.2262  -21.7941  -57.5919 H         1 UNK         0.3000 
    231 H231       -2.4111  -21.7153  -56.9430 H         1 UNK         0.0600 
    232 H232       -2.3558  -23.7606  -58.3584 H         1 UNK         0.0600 
    233 H233       -3.2814  -22.4937  -59.1428 H         1 UNK         0.0600 
    234 H234       -4.1135  -23.8366  -58.3572 H         1 UNK         0.0600 
    235 H235       -4.9094  -22.6440  -54.9861 H         1 UNK         0.3000 
    236 H236       -3.9917  -25.1745  -53.9524 H         1 UNK         0.0600 
    237 H237       -6.0756  -23.2383  -52.8353 H         1 UNK         0.0600 
    238 H238       -6.3954  -24.4760  -54.0486 H         1 UNK         0.0600 
    239 H239       -5.8911  -24.9433  -52.4387 H         1 UNK         0.0600 
    240 H240       -1.7908  -23.7794  -53.8334 H         1 UNK         0.3000 
    241 H241       -1.2485  -22.5580  -51.2516 H         1 UNK         0.0600 
    242 H242       -0.5887  -26.4788  -50.7067 H         1 UNK         0.3800 
    243 H243       -1.6185  -25.8890  -51.9850 H         1 UNK         0.3800 
    244 H244        0.6320  -23.3755  -53.5229 H         1 UNK         0.0800 
    245 H245        1.1312  -22.5102  -52.0951 H         1 UNK         0.0800 
    246 H246        2.1558  -20.4942  -53.5226 H         1 UNK         0.0800 
    247 H247        1.1290  -19.0877  -53.6453 H         1 UNK         0.0800 
@<TRIPOS>BOND
     1    1    2 1    
     2    1  127 1    
     3    1  128 1    
     4    1  129 1    
     5    2    3 2    
     6    2    4 am   BACKBONE|DICT|INTERRES
     7    4    5 1    
     8    4  130 1    
     9    5    6 1    
    10    5   65 1    
    11    5  131 1    
    12    6    7 1    
    13    6  132 1    
    14    6  133 1    
    15    7    8 1    
    16    8    9 1    
    17    8  134 1    
    18    8  135 1    
    19    9   10 ar   
    20    9   14 ar   
    21   10   11 ar   
    22   10  136 1    
    23   11   12 ar   
    24   11  126 1    
    25   12   13 ar   
    26   12  137 1    
    27   13   14 ar   
    28   13   15 1    
    29   14  138 1    
    30   15   16 1    
    31   15  139 1    
    32   15  140 1    
    33   16   17 1    
    34   17   18 1    
    35   17  141 1    
    36   17  142 1    
    37   18   19 1    
    38   18   67 1    
    39   18  143 1    
    40   19   20 am   BACKBONE|DICT|INTERRES
    41   19  144 1    
    42   20   21 2    
    43   20   22 1    
    44   22   23 1    
    45   22   24 1    
    46   22  145 1    
    47   23  146 1    
    48   23  147 1    
    49   23  148 1    
    50   24   25 am   BACKBONE|DICT|INTERRES
    51   24  149 1    
    52   25   26 2    
    53   25   27 1    
    54   27   28 1    
    55   27   29 1    
    56   27  150 1    
    57   28  151 1    
    58   28  152 1    
    59   28  153 1    
    60   29   30 am   BACKBONE|DICT|INTERRES
    61   29  154 1    
    62   30   31 2    
    63   30   32 1    
    64   32   33 1    
    65   32   34 1    
    66   32  155 1    
    67   33  156 1    
    68   33  157 1    
    69   33  158 1    
    70   34   35 am   BACKBONE|DICT|INTERRES
    71   34  159 1    
    72   35   36 2    
    73   35   37 1    
    74   37   38 1    
    75   37   39 1    
    76   37  160 1    
    77   38  161 1    
    78   38  162 1    
    79   38  163 1    
    80   39   40 am   BACKBONE|DICT|INTERRES
    81   39  164 1    
    82   40   41 2    
    83   40   42 1    
    84   42   43 1    
    85   42   44 1    
    86   42  165 1    
    87   43  166 1    
    88   43  167 1    
    89   43  168 1    
    90   44   45 am   BACKBONE|DICT|INTERRES
    91   44  169 1    
    92   45   46 2    
    93   45   47 1    
    94   47   48 1    
    95   47   49 1    
    96   47  170 1    
    97   48  171 1    
    98   48  172 1    
    99   48  173 1    
   100   49   50 am   BACKBONE|DICT|INTERRES
   101   49  174 1    
   102   50   51 2    
   103   50   52 1    
   104   52   53 1    
   105   52   54 1    
   106   52  175 1    
   107   53  176 1    
   108   53  177 1    
   109   53  178 1    
   110   54   55 am   BACKBONE|DICT|INTERRES
   111   54  179 1    
   112   55   56 2    
   113   55   57 1    
   114   57   58 1    
   115   57   59 1    
   116   57  180 1    
   117   58  181 1    
   118   58  182 1    
   119   58  183 1    
   120   59   60 am   BACKBONE|DICT|INTERRES
   121   59  184 1    
   122   60   61 2    
   123   60   62 1    
   124   62   63 1    
   125   62   64 1    
   126   62  185 1    
   127   63  186 1    
   128   63  187 1    
   129   63  188 1    
   130   64   65 am   BACKBONE|DICT|INTERRES
   131   64  189 1    
   132   65   66 2    
   133   67   68 2    
   134   67   69 am   BACKBONE|DICT|INTERRES
   135   69   70 1    
   136   69  190 1    
   137   70   71 1    
   138   70   72 1    
   139   70  191 1    
   140   71  192 1    
   141   71  193 1    
   142   71  194 1    
   143   72   73 2    
   144   72   74 am   BACKBONE|DICT|INTERRES
   145   74   75 1    
   146   74  195 1    
   147   75   76 1    
   148   75   77 1    
   149   75  196 1    
   150   76  197 1    
   151   76  198 1    
   152   76  199 1    
   153   77   78 2    
   154   77   79 am   BACKBONE|DICT|INTERRES
   155   79   80 1    
   156   79  200 1    
   157   80   81 1    
   158   80   82 1    
   159   80  201 1    
   160   81  202 1    
   161   81  203 1    
   162   81  204 1    
   163   82   83 2    
   164   82   84 am   BACKBONE|DICT|INTERRES
   165   84   85 1    
   166   84  205 1    
   167   85   86 1    
   168   85   87 1    
   169   85  206 1    
   170   86  207 1    
   171   86  208 1    
   172   86  209 1    
   173   87   88 2    
   174   87   89 am   BACKBONE|DICT|INTERRES
   175   89   90 1    
   176   89  210 1    
   177   90   91 1    
   178   90   92 1    
   179   90  211 1    
   180   91  212 1    
   181   91  213 1    
   182   91  214 1    
   183   92   93 2    
   184   92   94 am   BACKBONE|DICT|INTERRES
   185   94   95 1    
   186   94  215 1    
   187   95   96 1    
   188   95   97 1    
   189   95  216 1    
   190   96  217 1    
   191   96  218 1    
   192   96  219 1    
   193   97   98 2    
   194   97   99 am   BACKBONE|DICT|INTERRES
   195   99  100 1    
   196   99  220 1    
   197  100  101 1    
   198  100  102 1    
   199  100  221 1    
   200  101  222 1    
   201  101  223 1    
   202  101  224 1    
   203  102  103 2    
   204  102  104 am   BACKBONE|DICT|INTERRES
   205  104  105 1    
   206  104  225 1    
   207  105  106 1    
   208  105  107 1    
   209  105  226 1    
   210  106  227 1    
   211  106  228 1    
   212  106  229 1    
   213  107  108 2    
   214  107  109 am   BACKBONE|DICT|INTERRES
   215  109  110 1    
   216  109  230 1    
   217  110  111 1    
   218  110  112 1    
   219  110  231 1    
   220  111  232 1    
   221  111  233 1    
   222  111  234 1    
   223  112  113 2    
   224  112  114 am   BACKBONE|DICT|INTERRES
   225  114  115 1    
   226  114  235 1    
   227  115  116 1    
   228  115  117 1    
   229  115  236 1    
   230  116  237 1    
   231  116  238 1    
   232  116  239 1    
   233  117  118 2    
   234  117  119 am   BACKBONE|DICT|INTERRES
   235  119  120 1    
   236  119  240 1    
   237  120  121 1    
   238  120  124 1    
   239  120  241 1    
   240  121  122 am   BACKBONE|DICT|INTERRES
   241  121  123 2    
   242  122  242 1    
   243  122  243 1    
   244  124  125 1    
   245  124  244 1    
   246  124  245 1    
   247  125  126 1    
   248  126  246 1    
   249  126  247 1    
@<TRIPOS>SUBSTRUCTURE
     1 UNK         1 GROUP             0       ****    0 ROOT    
