@<TRIPOS>MOLECULE
3R540
247   249    1
SMALL
USER_CHARGES


@<TRIPOS>ATOM
      1 CA         -2.5624  -14.5389  -43.3245 C.3       0 UNK        -0.1800 
      2 C          -2.5720  -13.6397  -44.5529 C.2       0 UNK         0.5000 
      3 O          -2.2852  -12.4478  -44.4419 O.2       0 UNK        -0.5000 
      4 N          -2.9064  -14.2028  -45.7206 N.am      1 UNK        -0.5000 
      5 CA         -2.8821  -13.5314  -47.0205 C.3       1 UNK         0.1400 
      6 C6         -3.6412  -14.3602  -48.0851 C.3       23 UNK        -0.0398 
      7 S7         -3.7784  -13.5134  -49.6970 S.3       23 UNK        -0.2404 
      8 C8         -2.8877  -14.6743  -50.7816 C.3       23 UNK        -0.0205 
      9 C9         -3.7854  -15.8264  -51.2067 C.ar      23 UNK        -0.0193 
     10 C10        -4.6981  -15.6393  -52.2486 C.ar      23 UNK        -0.1150 
     11 C11        -5.5425  -16.6766  -52.6502 C.ar      23 UNK        -0.0193 
     12 C12        -5.4712  -17.9096  -51.9987 C.ar      23 UNK        -0.1150 
     13 C13        -4.5598  -18.1134  -50.9600 C.ar      23 UNK        -0.0193 
     14 C14        -3.7130  -17.0701  -50.5694 C.ar      23 UNK        -0.1150 
     15 C15        -4.4779  -19.4778  -50.2951 C.3       23 UNK        -0.0205 
     16 S16        -5.8234  -19.7631  -49.1037 S.3       23 UNK        -0.2404 
     17 C17        -5.1881  -18.8534  -47.6602 C.3       23 UNK        -0.0398 
     18 CA         -4.1318  -19.6872  -46.8673 C.3       11 UNK         0.1400 
     19 N          -2.7867  -19.1112  -46.8877 N.am      11 UNK        -0.5000 
     20 C          -2.4213  -17.8696  -46.5370 C.2       10 UNK         0.5000 
     21 O          -3.2067  -17.0232  -46.1096 O.2       10 UNK        -0.5000 
     22 CA         -0.9257  -17.5132  -46.6711 C.3       10 UNK         0.1400 
     23 CB         -0.3976  -16.8756  -45.3740 C.3       10 UNK        -0.1800 
     24 N          -0.1154  -18.6890  -46.9963 N.am      10 UNK        -0.5000 
     25 C           0.0899  -19.1672  -48.2323 C.2       9 UNK         0.5000 
     26 O          -0.2865  -18.5898  -49.2506 O.2       9 UNK        -0.5000 
     27 CA          0.7863  -20.5388  -48.3579 C.3       9 UNK         0.1400 
     28 CB          2.1925  -20.3818  -48.9549 C.3       9 UNK        -0.1800 
     29 N           0.8868  -21.2671  -47.0902 N.am      9 UNK        -0.5000 
     30 C          -0.1343  -21.8416  -46.4377 C.2       8 UNK         0.5000 
     31 O          -1.3034  -21.8178  -46.8276 O.2       8 UNK        -0.5000 
     32 CA          0.2088  -22.4533  -45.0644 C.3       8 UNK         0.1400 
     33 CB          0.8626  -23.8340  -45.2193 C.3       8 UNK        -0.1800 
     34 N           1.0820  -21.5958  -44.2544 N.am      8 UNK        -0.5000 
     35 C           0.7920  -20.3345  -43.9117 C.2       7 UNK         0.5000 
     36 O          -0.2503  -19.7722  -44.2553 O.2       7 UNK        -0.5000 
     37 CA          1.8664  -19.5611  -43.1212 C.3       7 UNK         0.1400 
     38 CB          3.0279  -19.1669  -44.0484 C.3       7 UNK        -0.1800 
     39 N           1.3192  -18.3411  -42.5300 N.am      7 UNK        -0.5000 
     40 C           0.4562  -18.3080  -41.5076 C.2       6 UNK         0.5000 
     41 O           0.1662  -19.2880  -40.8187 O.2       6 UNK        -0.5000 
     42 CA         -0.1793  -16.9331  -41.2373 C.3       6 UNK         0.1400 
     43 CB         -1.2104  -16.9362  -40.0890 C.3       6 UNK        -0.1800 
     44 N           0.8315  -15.8883  -41.0552 N.am      6 UNK        -0.5000 
     45 C           1.7011  -15.7597  -40.0391 C.2       5 UNK         0.5000 
     46 O           1.7838  -16.5527  -39.1005 O.2       5 UNK        -0.5000 
     47 CA          2.6447  -14.5350  -40.0602 C.3       5 UNK         0.1400 
     48 CB          4.0821  -14.9738  -40.3825 C.3       5 UNK        -0.1800 
     49 N           2.2515  -13.4990  -41.0172 N.am      5 UNK        -0.5000 
     50 C           1.1392  -12.7537  -40.9576 C.2       4 UNK         0.5000 
     51 O           0.3798  -12.7437  -39.9885 O.2       4 UNK        -0.5000 
     52 CA          0.7917  -11.9058  -42.2012 C.3       4 UNK         0.1400 
     53 CB          0.9651  -10.4092  -41.8992 C.3       4 UNK        -0.1800 
     54 N           1.5492  -12.2275  -43.4182 N.am      4 UNK        -0.5000 
     55 C           1.5887  -13.4082  -44.0507 C.2       3 UNK         0.5000 
     56 O           1.0244  -14.4257  -43.6427 O.2       3 UNK        -0.5000 
     57 CA          2.3910  -13.4329  -45.3631 C.3       3 UNK         0.1400 
     58 CB          2.9132  -14.8346  -45.7192 C.3       3 UNK        -0.1800 
     59 N           1.5497  -12.9498  -46.4502 N.am      3 UNK        -0.5000 
     60 C           1.3187  -11.6679  -46.7487 C.2       2 UNK         0.5000 
     61 O           1.8863  -10.7266  -46.1925 O.2       2 UNK        -0.5000 
     62 CA          0.2531  -11.3874  -47.8262 C.3       2 UNK         0.1400 
     63 CB          0.7353  -11.8046  -49.2296 C.3       2 UNK        -0.1800 
     64 N          -1.0638  -11.9586  -47.5113 N.am      2 UNK        -0.5000 
     65 C          -1.4214  -13.2484  -47.4293 C.2       1 UNK         0.5000 
     66 O          -0.6604  -14.1941  -47.6441 O.2       1 UNK        -0.5000 
     67 C          -4.5839  -20.1154  -45.4541 C.2       11 UNK         0.5000 
     68 O          -5.7652  -20.4011  -45.2548 O.2       11 UNK        -0.5000 
     69 N          -3.6409  -20.2047  -44.5033 N.am      12 UNK        -0.5000 
     70 CA         -3.9051  -20.6500  -43.1340 C.3       12 UNK         0.1400 
     71 CB         -2.7989  -20.1240  -42.2094 C.3       12 UNK        -0.1800 
     72 C          -4.0277  -22.1817  -43.0076 C.2       12 UNK         0.5000 
     73 O          -4.6103  -22.6519  -42.0295 O.2       12 UNK        -0.5000 
     74 N          -3.4836  -22.9338  -43.9754 N.am      13 UNK        -0.5000 
     75 CA         -3.4871  -24.3940  -43.9841 C.3       13 UNK         0.1400 
     76 CB         -2.3385  -24.9397  -43.1141 C.3       13 UNK        -0.1800 
     77 C          -3.4163  -24.9034  -45.4298 C.2       13 UNK         0.5000 
     78 O          -2.3233  -25.0432  -45.9823 O.2       13 UNK        -0.5000 
     79 N          -4.5948  -25.1507  -46.0204 N.am      14 UNK        -0.5000 
     80 CA         -4.8248  -25.8433  -47.2987 C.3       14 UNK         0.1400 
     81 CB         -4.5029  -27.3442  -47.1396 C.3       14 UNK        -0.1800 
     82 C          -4.1051  -25.2290  -48.5192 C.2       14 UNK         0.5000 
     83 O          -3.7952  -25.9477  -49.4725 O.2       14 UNK        -0.5000 
     84 N          -3.8125  -23.9204  -48.4558 N.am      15 UNK        -0.5000 
     85 CA         -3.0746  -23.1346  -49.4534 C.3       15 UNK         0.1400 
     86 CB         -3.9170  -23.0074  -50.7407 C.3       15 UNK        -0.1800 
     87 C          -1.6538  -23.6724  -49.7415 C.2       15 UNK         0.5000 
     88 O          -1.1367  -23.4532  -50.8388 O.2       15 UNK        -0.5000 
     89 N          -1.0728  -24.4132  -48.7822 N.am      16 UNK        -0.5000 
     90 CA          0.1636  -25.1952  -48.9060 C.3       16 UNK         0.1400 
     91 CB          1.3944  -24.2673  -48.9819 C.3       16 UNK        -0.1800 
     92 C           0.1054  -26.2280  -50.0552 C.2       16 UNK         0.5000 
     93 O           1.0913  -26.4143  -50.7681 O.2       16 UNK        -0.5000 
     94 N          -1.0697  -26.8542  -50.2298 N.am      17 UNK        -0.5000 
     95 CA         -1.4360  -27.7570  -51.3272 C.3       17 UNK         0.1400 
     96 CB         -0.5792  -29.0408  -51.3165 C.3       17 UNK        -0.1800 
     97 C          -1.4447  -27.0285  -52.6881 C.2       17 UNK         0.5000 
     98 O          -0.9242  -27.5440  -53.6788 O.2       17 UNK        -0.5000 
     99 N          -2.0414  -25.8273  -52.6873 N.am      18 UNK        -0.5000 
    100 CA        -2.1816  -24.8912  -53.8085 C.3       18 UNK         0.1400 
    101 CB        -3.0479  -25.4959  -54.9331 C.3       18 UNK        -0.1800 
    102 C         -0.8405  -24.3163  -54.3157 C.2       18 UNK         0.5000 
    103 O         -0.7248  -23.9788  -55.4951 O.2       18 UNK        -0.5000 
    104 N          0.1372  -24.1784  -53.4098 N.am      19 UNK        -0.5000 
    105 CA         1.4087  -23.4906  -53.6541 C.3       19 UNK         0.1400 
    106 CB         2.5098  -24.1412  -52.8043 C.3       19 UNK        -0.1800 
    107 C          1.3154  -21.9743  -53.3789 C.2       19 UNK         0.5000 
    108 O          2.2473  -21.2414  -53.7144 O.2       19 UNK        -0.5000 
    109 N          0.1994  -21.5314  -52.7817 N.am      20 UNK        -0.5000 
    110 CA        -0.1875  -20.1351  -52.5762 C.3       20 UNK         0.1400 
    111 CB        -1.5017  -20.1248  -51.7848 C.3       20 UNK        -0.1800 
    112 C         -0.3725  -19.3428  -53.8887 C.2       20 UNK         0.5000 
    113 O         -0.3726  -19.9218  -54.9776 O.2       20 UNK        -0.5000 
    114 N         -0.5865  -18.0265  -53.7513 N.am      21 UNK        -0.5000 
    115 CA        -0.7601  -17.0573  -54.8412 C.3       21 UNK         0.1400 
    116 CB        -1.0321  -15.6724  -54.2335 C.3       21 UNK        -0.1800 
    117 C         -1.8559  -17.4100  -55.8697 C.2       21 UNK         0.5000 
    118 O         -1.6841  -17.1150  -57.0534 O.2       21 UNK        -0.5000 
    119 N         -2.9383  -18.0476  -55.4074 N.am      22 UNK        -0.5000 
    120 CA        -4.0322  -18.5647  -56.2485 C.3       22 UNK         0.1400 
    121 C         -3.8653  -20.0637  -56.6438 C.2       22 UNK         0.5000 
    122 N         -2.7657  -20.7340  -56.3207 N.am      22 UNK        -0.7600 
    123 O         -4.7494  -20.6346  -57.2769 O.2       22 UNK        -0.5000 
    124 C124       -5.4237  -18.2925  -55.6200 C.3       23 UNK        -0.0398 
    125 S125       -5.7593  -16.5084  -55.4139 S.3       23 UNK        -0.2404 
    126 C126       -6.5441  -16.4546  -53.7726 C.3       23 UNK        -0.0205 
    127 H127       -1.6037  -14.4609  -42.8125 H         1 UNK         0.0600 
    128 H128       -2.7249  -15.5847  -43.5870 H         1 UNK         0.0600 
    129 H129       -3.3452  -14.2349  -42.6300 H         1 UNK         0.0600 
    130 H130       -3.1012  -15.2015  -45.7535 H         1 UNK         0.3000 
    131 H131       -3.4067  -12.5800  -46.9083 H         1 UNK         0.0600 
    132 H132       -4.6537  -14.5681  -47.7365 H         1 UNK         0.0800 
    133 H133       -3.1685  -15.3336  -48.2162 H         1 UNK         0.0800 
    134 H134       -1.9861  -15.0399  -50.2868 H         1 UNK         0.0800 
    135 H135       -2.5482  -14.1344  -51.6666 H         1 UNK         0.0800 
    136 H136       -4.7559  -14.6807  -52.7451 H         1 UNK         0.1150 
    137 H137       -6.1266  -18.7156  -52.2977 H         1 UNK         0.1150 
    138 H138       -2.9993  -17.2273  -49.7727 H         1 UNK         0.1150 
    139 H139       -4.5341  -20.2414  -51.0699 H         1 UNK         0.0800 
    140 H140       -3.5158  -19.6116  -49.7994 H         1 UNK         0.0800 
    141 H141       -6.0403  -18.5698  -47.0408 H         1 UNK         0.0800 
    142 H142       -4.7832  -17.9065  -48.0155 H         1 UNK         0.0800 
    143 H143       -3.9996  -20.6429  -47.3755 H         1 UNK         0.0600 
    144 H144       -2.0549  -19.7543  -47.1610 H         1 UNK         0.3000 
    145 H145       -0.8260  -16.7864  -47.4785 H         1 UNK         0.0600 
    146 H146       -0.8801  -17.2871  -44.4878 H         1 UNK         0.0600 
    147 H147        0.6743  -17.0200  -45.2558 H         1 UNK         0.0600 
    148 H148       -0.5828  -15.8028  -45.3708 H         1 UNK         0.0600 
    149 H149        0.1693  -19.2463  -46.2001 H         1 UNK         0.3000 
    150 H150        0.1917  -21.1419  -49.0470 H         1 UNK         0.0600 
    151 H151        2.1535  -19.8800  -49.9226 H         1 UNK         0.0600 
    152 H152        2.6641  -21.3516  -49.1149 H         1 UNK         0.0600 
    153 H153        2.8419  -19.7938  -48.3052 H         1 UNK         0.0600 
    154 H154        1.8044  -21.3112  -46.6718 H         1 UNK         0.3000 
    155 H155       -0.7287  -22.5741  -44.5212 H         1 UNK         0.0600 
    156 H156        0.2547  -24.4906  -45.8412 H         1 UNK         0.0600 
    157 H157        0.9796  -24.3240  -44.2528 H         1 UNK         0.0600 
    158 H158        1.8496  -23.7664  -45.6776 H         1 UNK         0.0600 
    159 H159        1.9553  -22.0006  -43.9486 H         1 UNK         0.3000 
    160 H160        2.2441  -20.2027  -42.3226 H         1 UNK         0.0600 
    161 H161        3.7943  -18.6135  -43.5053 H         1 UNK         0.0600 
    162 H162        2.6904  -18.5431  -44.8774 H         1 UNK         0.0600 
    163 H163        3.5101  -20.0469  -44.4756 H         1 UNK         0.0600 
    164 H164        1.4902  -17.4840  -43.0342 H         1 UNK         0.3000 
    165 H165       -0.7207  -16.6709  -42.1464 H         1 UNK         0.0600 
    166 H166       -0.7684  -17.2403  -39.1401 H         1 UNK         0.0600 
    167 H167       -1.6503  -15.9481  -39.9538 H         1 UNK         0.0600 
    168 H168       -2.0256  -17.6282  -40.3021 H         1 UNK         0.0600 
    169 H169        0.8902  -15.2132  -41.8119 H         1 UNK         0.3000 
    170 H170        2.6322  -14.0953  -39.0609 H         1 UNK         0.0600 
    171 H171        4.1540  -15.4139  -41.3781 H         1 UNK         0.0600 
    172 H172        4.7727  -14.1315  -40.3355 H         1 UNK         0.0600 
    173 H173        4.4337  -15.7195  -39.6682 H         1 UNK         0.0600 
    174 H174        2.8105  -13.4302  -41.8542 H         1 UNK         0.3000 
    175 H175       -0.2619  -12.0888  -42.4209 H         1 UNK         0.0600 
    176 H176        2.0080  -10.1585  -41.7010 H         1 UNK         0.0600 
    177 H177        0.6239   -9.7963  -42.7338 H         1 UNK         0.0600 
    178 H178        0.3840  -10.1143  -41.0243 H         1 UNK         0.0600 
    179 H179        2.0163  -11.4473  -43.8610 H         1 UNK         0.3000 
    180 H180        3.2570  -12.7779  -45.2458 H         1 UNK         0.0600 
    181 H181        2.1073  -15.4986  -46.0257 H         1 UNK         0.0600 
    182 H182        3.4245  -15.2957  -44.8730 H         1 UNK         0.0600 
    183 H183        3.6257  -14.7854  -46.5426 H         1 UNK         0.0600 
    184 H184        0.9607  -13.6394  -46.9114 H         1 UNK         0.3000 
    185 H185        0.1065  -10.3062  -47.8454 H         1 UNK         0.0600 
    186 H186        0.9279  -12.8753  -49.3001 H         1 UNK         0.0600 
    187 H187       -0.0017  -11.5478  -49.9905 H         1 UNK         0.0600 
    188 H188        1.6624  -11.2916  -49.4882 H         1 UNK         0.0600 
    189 H189       -1.7636  -11.2717  -47.2663 H         1 UNK         0.3000 
    190 H190       -2.6853  -19.9582  -44.7263 H         1 UNK         0.3000 
    191 H191       -4.8498  -20.2128  -42.8036 H         1 UNK         0.0600 
    192 H192       -1.8532  -20.6369  -42.3828 H         1 UNK         0.0600 
    193 H193       -2.6349  -19.0555  -42.3497 H         1 UNK         0.0600 
    194 H194       -3.0607  -20.2794  -41.1623 H         1 UNK         0.0600 
    195 H195       -3.0442  -22.4811  -44.7648 H         1 UNK         0.3000 
    196 H196       -4.4254  -24.7546  -43.5564 H         1 UNK         0.0600 
    197 H197       -2.4562  -24.6435  -42.0717 H         1 UNK         0.0600 
    198 H198       -1.3663  -24.5853  -43.4523 H         1 UNK         0.0600 
    199 H199       -2.3157  -26.0297  -43.1401 H         1 UNK         0.0600 
    200 H200       -5.4339  -24.9394  -45.4976 H         1 UNK         0.3000 
    201 H201       -5.8916  -25.7544  -47.5078 H         1 UNK         0.0600 
    202 H202       -4.7969  -27.9086  -48.0255 H         1 UNK         0.0600 
    203 H203       -5.0383  -27.7752  -46.2936 H         1 UNK         0.0600 
    204 H204       -3.4368  -27.5125  -46.9823 H         1 UNK         0.0600 
    205 H205       -4.0747  -23.4296  -47.6140 H         1 UNK         0.3000 
    206 H206       -2.9417  -22.1358  -49.0372 H         1 UNK         0.0600 
    207 H207       -4.9014  -22.5927  -50.5249 H         1 UNK         0.0600 
    208 H208       -4.0667  -23.9706  -51.2278 H         1 UNK         0.0600 
    209 H209       -3.4400  -22.3529  -51.4679 H         1 UNK         0.0600 
    210 H210       -1.5765  -24.5301  -47.9084 H         1 UNK         0.3000 
    211 H211        0.2519  -25.7826  -47.9912 H         1 UNK         0.0600 
    212 H212        1.5263  -23.7198  -48.0533 H         1 UNK         0.0600 
    213 H213        2.3148  -24.8295  -49.1427 H         1 UNK         0.0600 
    214 H214        1.3061  -23.5357  -49.7834 H         1 UNK         0.0600 
    215 H215       -1.8436  -26.5868  -49.6306 H         1 UNK         0.3000 
    216 H216       -2.4684  -28.0557  -51.1389 H         1 UNK         0.0600 
    217 H217       -0.9558  -29.7636  -52.0410 H         1 UNK         0.0600 
    218 H218        0.4621  -28.8413  -51.5699 H         1 UNK         0.0600 
    219 H219       -0.6011  -29.5209  -50.3383 H         1 UNK         0.0600 
    220 H220       -2.4055  -25.4975  -51.8041 H         1 UNK         0.3000 
    221 H221       -2.7279  -24.0354  -53.4103 H         1 UNK         0.0600 
    222 H222       -2.5391  -26.3148  -55.4421 H         1 UNK         0.0600 
    223 H223       -3.9915  -25.8769  -54.5426 H         1 UNK         0.0600 
    224 H224       -3.2907  -24.7454  -55.6863 H         1 UNK         0.0600 
    225 H225       -0.0594  -24.4375  -52.4502 H         1 UNK         0.3000 
    226 H226        1.6876  -23.6106  -54.7030 H         1 UNK         0.0600 
    227 H227        2.5884  -25.2087  -53.0113 H         1 UNK         0.0600 
    228 H228        3.4824  -23.6958  -53.0161 H         1 UNK         0.0600 
    229 H229        2.3209  -24.0216  -51.7396 H         1 UNK         0.0600 
    230 H230       -0.4704  -22.2265  -52.4781 H         1 UNK         0.3000 
    231 H231        0.5926  -19.6505  -51.9862 H         1 UNK         0.0600 
    232 H232       -1.7772  -19.1095  -51.5007 H         1 UNK         0.0600 
    233 H233       -1.4191  -20.7012  -50.8644 H         1 UNK         0.0600 
    234 H234       -2.3228  -20.5350  -52.3729 H         1 UNK         0.0600 
    235 H235       -0.5957  -17.6400  -52.8186 H         1 UNK         0.3000 
    236 H236        0.1873  -17.0125  -55.3819 H         1 UNK         0.0600 
    237 H237       -1.9591  -15.6644  -53.6595 H         1 UNK         0.0600 
    238 H238       -0.2229  -15.3613  -53.5725 H         1 UNK         0.0600 
    239 H239       -1.1236  -14.9144  -55.0125 H         1 UNK         0.0600 
    240 H240       -2.9972  -18.2494  -54.4208 H         1 UNK         0.3000 
    241 H241       -4.0184  -18.0323  -57.2011 H         1 UNK         0.0600 
    242 H242       -1.9849  -20.2897  -55.8445 H         1 UNK         0.3800 
    243 H243       -2.6806  -21.6979  -56.6003 H         1 UNK         0.3800 
    244 H244       -6.2184  -18.6931  -56.2516 H         1 UNK         0.0800 
    245 H245       -5.5097  -18.8091  -54.6645 H         1 UNK         0.0800 
    246 H246       -7.3489  -17.1901  -53.7279 H         1 UNK         0.0800 
    247 H247       -7.0172  -15.4802  -53.6424 H         1 UNK         0.0800 
@<TRIPOS>BOND
     1    1    2 1    
     2    1  127 1    
     3    1  128 1    
     4    1  129 1    
     5    2    3 2    
     6    2    4 am   BACKBONE|DICT|INTERRES
     7    4    5 1    
     8    4  130 1    
     9    5    6 1    
    10    5   65 1    
    11    5  131 1    
    12    6    7 1    
    13    6  132 1    
    14    6  133 1    
    15    7    8 1    
    16    8    9 1    
    17    8  134 1    
    18    8  135 1    
    19    9   10 ar   
    20    9   14 ar   
    21   10   11 ar   
    22   10  136 1    
    23   11   12 ar   
    24   11  126 1    
    25   12   13 ar   
    26   12  137 1    
    27   13   14 ar   
    28   13   15 1    
    29   14  138 1    
    30   15   16 1    
    31   15  139 1    
    32   15  140 1    
    33   16   17 1    
    34   17   18 1    
    35   17  141 1    
    36   17  142 1    
    37   18   19 1    
    38   18   67 1    
    39   18  143 1    
    40   19   20 am   BACKBONE|DICT|INTERRES
    41   19  144 1    
    42   20   21 2    
    43   20   22 1    
    44   22   23 1    
    45   22   24 1    
    46   22  145 1    
    47   23  146 1    
    48   23  147 1    
    49   23  148 1    
    50   24   25 am   BACKBONE|DICT|INTERRES
    51   24  149 1    
    52   25   26 2    
    53   25   27 1    
    54   27   28 1    
    55   27   29 1    
    56   27  150 1    
    57   28  151 1    
    58   28  152 1    
    59   28  153 1    
    60   29   30 am   BACKBONE|DICT|INTERRES
    61   29  154 1    
    62   30   31 2    
    63   30   32 1    
    64   32   33 1    
    65   32   34 1    
    66   32  155 1    
    67   33  156 1    
    68   33  157 1    
    69   33  158 1    
    70   34   35 am   BACKBONE|DICT|INTERRES
    71   34  159 1    
    72   35   36 2    
    73   35   37 1    
    74   37   38 1    
    75   37   39 1    
    76   37  160 1    
    77   38  161 1    
    78   38  162 1    
    79   38  163 1    
    80   39   40 am   BACKBONE|DICT|INTERRES
    81   39  164 1    
    82   40   41 2    
    83   40   42 1    
    84   42   43 1    
    85   42   44 1    
    86   42  165 1    
    87   43  166 1    
    88   43  167 1    
    89   43  168 1    
    90   44   45 am   BACKBONE|DICT|INTERRES
    91   44  169 1    
    92   45   46 2    
    93   45   47 1    
    94   47   48 1    
    95   47   49 1    
    96   47  170 1    
    97   48  171 1    
    98   48  172 1    
    99   48  173 1    
   100   49   50 am   BACKBONE|DICT|INTERRES
   101   49  174 1    
   102   50   51 2    
   103   50   52 1    
   104   52   53 1    
   105   52   54 1    
   106   52  175 1    
   107   53  176 1    
   108   53  177 1    
   109   53  178 1    
   110   54   55 am   BACKBONE|DICT|INTERRES
   111   54  179 1    
   112   55   56 2    
   113   55   57 1    
   114   57   58 1    
   115   57   59 1    
   116   57  180 1    
   117   58  181 1    
   118   58  182 1    
   119   58  183 1    
   120   59   60 am   BACKBONE|DICT|INTERRES
   121   59  184 1    
   122   60   61 2    
   123   60   62 1    
   124   62   63 1    
   125   62   64 1    
   126   62  185 1    
   127   63  186 1    
   128   63  187 1    
   129   63  188 1    
   130   64   65 am   BACKBONE|DICT|INTERRES
   131   64  189 1    
   132   65   66 2    
   133   67   68 2    
   134   67   69 am   BACKBONE|DICT|INTERRES
   135   69   70 1    
   136   69  190 1    
   137   70   71 1    
   138   70   72 1    
   139   70  191 1    
   140   71  192 1    
   141   71  193 1    
   142   71  194 1    
   143   72   73 2    
   144   72   74 am   BACKBONE|DICT|INTERRES
   145   74   75 1    
   146   74  195 1    
   147   75   76 1    
   148   75   77 1    
   149   75  196 1    
   150   76  197 1    
   151   76  198 1    
   152   76  199 1    
   153   77   78 2    
   154   77   79 am   BACKBONE|DICT|INTERRES
   155   79   80 1    
   156   79  200 1    
   157   80   81 1    
   158   80   82 1    
   159   80  201 1    
   160   81  202 1    
   161   81  203 1    
   162   81  204 1    
   163   82   83 2    
   164   82   84 am   BACKBONE|DICT|INTERRES
   165   84   85 1    
   166   84  205 1    
   167   85   86 1    
   168   85   87 1    
   169   85  206 1    
   170   86  207 1    
   171   86  208 1    
   172   86  209 1    
   173   87   88 2    
   174   87   89 am   BACKBONE|DICT|INTERRES
   175   89   90 1    
   176   89  210 1    
   177   90   91 1    
   178   90   92 1    
   179   90  211 1    
   180   91  212 1    
   181   91  213 1    
   182   91  214 1    
   183   92   93 2    
   184   92   94 am   BACKBONE|DICT|INTERRES
   185   94   95 1    
   186   94  215 1    
   187   95   96 1    
   188   95   97 1    
   189   95  216 1    
   190   96  217 1    
   191   96  218 1    
   192   96  219 1    
   193   97   98 2    
   194   97   99 am   BACKBONE|DICT|INTERRES
   195   99  100 1    
   196   99  220 1    
   197  100  101 1    
   198  100  102 1    
   199  100  221 1    
   200  101  222 1    
   201  101  223 1    
   202  101  224 1    
   203  102  103 2    
   204  102  104 am   BACKBONE|DICT|INTERRES
   205  104  105 1    
   206  104  225 1    
   207  105  106 1    
   208  105  107 1    
   209  105  226 1    
   210  106  227 1    
   211  106  228 1    
   212  106  229 1    
   213  107  108 2    
   214  107  109 am   BACKBONE|DICT|INTERRES
   215  109  110 1    
   216  109  230 1    
   217  110  111 1    
   218  110  112 1    
   219  110  231 1    
   220  111  232 1    
   221  111  233 1    
   222  111  234 1    
   223  112  113 2    
   224  112  114 am   BACKBONE|DICT|INTERRES
   225  114  115 1    
   226  114  235 1    
   227  115  116 1    
   228  115  117 1    
   229  115  236 1    
   230  116  237 1    
   231  116  238 1    
   232  116  239 1    
   233  117  118 2    
   234  117  119 am   BACKBONE|DICT|INTERRES
   235  119  120 1    
   236  119  240 1    
   237  120  121 1    
   238  120  124 1    
   239  120  241 1    
   240  121  122 am   BACKBONE|DICT|INTERRES
   241  121  123 2    
   242  122  242 1    
   243  122  243 1    
   244  124  125 1    
   245  124  244 1    
   246  124  245 1    
   247  125  126 1    
   248  126  246 1    
   249  126  247 1    
@<TRIPOS>SUBSTRUCTURE
     1 UNK         1 GROUP             0       ****    0 ROOT    
