@<TRIPOS>MOLECULE
3R540
247   249    1
SMALL
USER_CHARGES


@<TRIPOS>ATOM
      1 CA         -1.1096   -9.5421  -48.3965 C.3       0 UNK        -0.1800 
      2 C          -0.7486  -10.6109  -47.3765 C.2       0 UNK         0.5000 
      3 O           0.0038  -10.3374  -46.4417 O.2       0 UNK        -0.5000 
      4 N          -1.2992  -11.8217  -47.5328 N.am      1 UNK        -0.5000 
      5 CA         -1.0516  -12.9979  -46.6840 C.3       1 UNK         0.1400 
      6 C6         -1.6002  -14.2974  -47.3206 C.3       23 UNK        -0.0398 
      7 S7         -3.3842  -14.2379  -47.7194 S.3       23 UNK        -0.2404 
      8 C8         -3.3833  -14.6361  -49.4978 C.3       23 UNK        -0.0205 
      9 C9         -2.9312  -16.0666  -49.7512 C.ar      23 UNK        -0.0193 
     10 C10        -1.6743  -16.3275  -50.3031 C.ar      23 UNK        -0.1150 
     11 C11        -1.2459  -17.6428  -50.5005 C.ar      23 UNK        -0.0193 
     12 C12        -2.0914  -18.6964  -50.1475 C.ar      23 UNK        -0.1150 
     13 C13        -3.3653  -18.4549  -49.6161 C.ar      23 UNK        -0.0193 
     14 C14        -3.7733  -17.1324  -49.4253 C.ar      23 UNK        -0.1150 
     15 C15        -4.3436  -19.5712  -49.2426 C.3       23 UNK        -0.0205 
     16 S16        -3.6608  -21.2636  -49.1799 S.3       23 UNK        -0.2404 
     17 C17        -2.5195  -21.1167  -47.7678 C.3       23 UNK        -0.0398 
     18 CA         -1.6190  -22.3675  -47.6221 C.3       11 UNK         0.1400 
     19 N          -0.2555  -22.0215  -47.2135 N.am      11 UNK        -0.5000 
     20 C           0.7678  -22.8855  -47.1591 C.2       10 UNK         0.5000 
     21 O           0.6863  -24.0672  -47.4908 O.2       10 UNK        -0.5000 
     22 CA          2.0876  -22.3568  -46.5689 C.3       10 UNK         0.1400 
     23 CB          2.8968  -21.5938  -47.6283 C.3       10 UNK        -0.1800 
     24 N           1.8697  -21.5069  -45.3964 N.am      10 UNK        -0.5000 
     25 C           1.3135  -21.9306  -44.2515 C.2       9 UNK         0.5000 
     26 O           1.0031  -23.1026  -44.0386 O.2       9 UNK        -0.5000 
     27 CA          0.9976  -20.8630  -43.1883 C.3       9 UNK         0.1400 
     28 CB          2.2462  -20.5330  -42.3583 C.3       9 UNK        -0.1800 
     29 N           0.4468  -19.6354  -43.7652 N.am      9 UNK        -0.5000 
     30 C          -0.7170  -19.5555  -44.4267 C.2       8 UNK         0.5000 
     31 O          -1.4794  -20.5086  -44.5840 O.2       8 UNK        -0.5000 
     32 CA         -1.0615  -18.1994  -45.0693 C.3       8 UNK         0.1400 
     33 CB         -1.6831  -17.2392  -44.0445 C.3       8 UNK        -0.1800 
     34 N           0.1067  -17.5746  -45.6890 N.am      8 UNK        -0.5000 
     35 C           0.7296  -18.0577  -46.7733 C.2       7 UNK         0.5000 
     36 O           0.3541  -19.0532  -47.3919 O.2       7 UNK        -0.5000 
     37 CA          2.0203  -17.3387  -47.2001 C.3       7 UNK         0.1400 
     38 CB          1.7024  -16.0851  -48.0279 C.3       7 UNK        -0.1800 
     39 N           2.8442  -16.9696  -46.0484 N.am      7 UNK        -0.5000 
     40 C           3.5111  -17.8521  -45.2890 C.2       6 UNK         0.5000 
     41 O           3.5240  -19.0627  -45.5092 O.2       6 UNK        -0.5000 
     42 CA          4.2559  -17.3048  -44.0540 C.3       6 UNK         0.1400 
     43 CB          5.6891  -16.8999  -44.4281 C.3       6 UNK        -0.1800 
     44 N           3.5839  -16.1662  -43.4270 N.am      6 UNK        -0.5000 
     45 C           2.3462  -16.1907  -42.9141 C.2       5 UNK         0.5000 
     46 O           1.6665  -17.2131  -42.8341 O.2       5 UNK        -0.5000 
     47 CA          1.7411  -14.8475  -42.4610 C.3       5 UNK         0.1400 
     48 CB          1.8544  -14.6946  -40.9375 C.3       5 UNK        -0.1800 
     49 N           2.3089  -13.6557  -43.1021 N.am      5 UNK        -0.5000 
     50 C           2.3751  -13.4174  -44.4189 C.2       4 UNK         0.5000 
     51 O           2.0557  -14.2389  -45.2796 O.2       4 UNK        -0.5000 
     52 CA          2.8632  -12.0154  -44.8267 C.3       4 UNK         0.1400 
     53 CB          3.1258  -11.8971  -46.3388 C.3       4 UNK        -0.1800 
     54 N           1.8820  -11.0058  -44.4370 N.am      4 UNK        -0.5000 
     55 C           1.7448  -10.4835  -43.2109 C.2       3 UNK         0.5000 
     56 O           2.4749  -10.7722  -42.2616 O.2       3 UNK        -0.5000 
     57 CA          0.5708   -9.5141  -43.0069 C.3       3 UNK         0.1400 
     58 CB          0.8412   -8.1680  -43.6979 C.3       3 UNK        -0.1800 
     59 N          -0.6594  -10.0967  -43.5395 N.am      3 UNK        -0.5000 
     60 C          -1.5610  -10.7739  -42.8142 C.2       2 UNK         0.5000 
     61 O          -1.4972  -10.9071  -41.5916 O.2       2 UNK        -0.5000 
     62 CA         -2.7302  -11.4231  -43.5836 C.3       2 UNK         0.1400 
     63 CB         -3.9228  -10.4586  -43.6674 C.3       2 UNK        -0.1800 
     64 N          -2.3537  -11.8357  -44.9358 N.am      2 UNK        -0.5000 
     65 C          -1.5106  -12.8397  -45.2155 C.2       1 UNK         0.5000 
     66 O          -1.0724  -13.6088  -44.3609 O.2       1 UNK        -0.5000 
     67 C          -2.2598  -23.4047  -46.6775 C.2       11 UNK         0.5000 
     68 O          -2.8548  -24.3734  -47.1476 O.2       11 UNK        -0.5000 
     69 N          -2.0979  -23.2051  -45.3618 N.am      12 UNK        -0.5000 
     70 CA         -2.5589  -24.1220  -44.3192 C.3       12 UNK         0.1400 
     71 CB         -2.3669  -23.4784  -42.9381 C.3       12 UNK        -0.1800 
     72 C          -1.8685  -25.4960  -44.3945 C.2       12 UNK         0.5000 
     73 O          -2.5479  -26.5177  -44.2939 O.2       12 UNK        -0.5000 
     74 N          -0.5488  -25.5020  -44.6327 N.am      13 UNK        -0.5000 
     75 CA          0.2533  -26.7083  -44.8582 C.3       13 UNK         0.1400 
     76 CB          1.7428  -26.3348  -44.8905 C.3       13 UNK        -0.1800 
     77 C          -0.1493  -27.4741  -46.1354 C.2       13 UNK         0.5000 
     78 O          -0.1098  -28.7047  -46.1434 O.2       13 UNK        -0.5000 
     79 N          -0.5716  -26.7382  -47.1724 N.am      14 UNK        -0.5000 
     80 CA         -1.1276  -27.2679  -48.4200 C.3       14 UNK         0.1400 
     81 CB         -0.9893  -26.1998  -49.5184 C.3       14 UNK        -0.1800 
     82 C          -2.5940  -27.7411  -48.2977 C.2       14 UNK         0.5000 
     83 O          -3.1262  -28.2749  -49.2714 O.2       14 UNK        -0.5000 
     84 N          -3.2159  -27.5452  -47.1240 N.am      15 UNK        -0.5000 
     85 CA         -4.6084  -27.8548  -46.7821 C.3       15 UNK         0.1400 
     86 CB         -4.8884  -29.3700  -46.8769 C.3       15 UNK        -0.1800 
     87 C          -5.6242  -26.9879  -47.5569 C.2       15 UNK         0.5000 
     88 O          -6.6836  -27.4818  -47.9484 O.2       15 UNK        -0.5000 
     89 N          -5.2770  -25.7030  -47.7216 N.am      16 UNK        -0.5000 
     90 CA         -5.9828  -24.6263  -48.4212 C.3       16 UNK         0.1400 
     91 CB         -7.4307  -24.4575  -47.9193 C.3       16 UNK        -0.1800 
     92 C          -5.9182  -24.7505  -49.9547 C.2       16 UNK         0.5000 
     93 O          -5.8359  -25.8492  -50.5074 O.2       16 UNK        -0.5000 
     94 N          -5.9643  -23.5925  -50.6162 N.am      17 UNK        -0.5000 
     95 CA         -5.8709  -23.4053  -52.0586 C.3       17 UNK         0.1400 
     96 CB         -4.4209  -23.6457  -52.5242 C.3       17 UNK        -0.1800 
     97 C          -6.3158  -21.9711  -52.3835 C.2       17 UNK         0.5000 
     98 O          -6.6132  -21.1946  -51.4707 O.2       17 UNK        -0.5000 
     99 N          -6.3299  -21.6315  -53.6771 N.am      18 UNK        -0.5000 
    100 CA        -6.4574  -20.2551  -54.1520 C.3       18 UNK         0.1400 
    101 CB        -6.7672  -20.2736  -55.6569 C.3       18 UNK        -0.1800 
    102 C         -5.1548  -19.4786  -53.8906 C.2       18 UNK         0.5000 
    103 O         -4.0716  -20.0589  -53.9975 O.2       18 UNK        -0.5000 
    104 N         -5.2709  -18.1724  -53.6226 N.am      19 UNK        -0.5000 
    105 CA        -4.1472  -17.2676  -53.3436 C.3       19 UNK         0.1400 
    106 CB        -4.7068  -15.9216  -52.8579 C.3       19 UNK        -0.1800 
    107 C         -3.1815  -17.0566  -54.5302 C.2       19 UNK         0.5000 
    108 O         -2.0722  -16.5640  -54.3297 O.2       19 UNK        -0.5000 
    109 N         -3.6144  -17.4269  -55.7422 N.am      20 UNK        -0.5000 
    110 CA        -2.7917  -17.4443  -56.9507 C.3       20 UNK         0.1400 
    111 CB        -3.7147  -17.2934  -58.1705 C.3       20 UNK        -0.1800 
    112 C         -1.9414  -18.7256  -57.0803 C.2       20 UNK         0.5000 
    113 O         -0.9817  -18.7248  -57.8526 O.2       20 UNK        -0.5000 
    114 N         -2.3136  -19.7940  -56.3608 N.am      21 UNK        -0.5000 
    115 CA        -1.6794  -21.1110  -56.4278 C.3       21 UNK         0.1400 
    116 CB        -2.7665  -22.1775  -56.6454 C.3       21 UNK        -0.1800 
    117 C         -0.8775  -21.4138  -55.1531 C.2       21 UNK         0.5000 
    118 O          0.2624  -21.8689  -55.2483 O.2       21 UNK        -0.5000 
    119 N         -1.4927  -21.1616  -53.9910 N.am      22 UNK        -0.5000 
    120 CA        -0.9524  -21.3589  -52.6339 C.3       22 UNK         0.1400 
    121 C         -0.7188  -22.8408  -52.2051 C.2       22 UNK         0.5000 
    122 N         -1.1065  -23.8379  -52.9902 N.am      22 UNK        -0.7600 
    123 O         -0.2002  -23.0941  -51.1225 O.2       22 UNK        -0.5000 
    124 C124        0.2941  -20.4802  -52.3247 C.3       23 UNK        -0.0398 
    125 S125        0.0808  -18.7055  -52.7091 S.3       23 UNK        -0.2404 
    126 C126        0.1405  -17.9228  -51.0644 C.3       23 UNK        -0.0205 
    127 H127       -1.7957   -9.9201  -49.1547 H         1 UNK         0.0600 
    128 H128       -0.2098   -9.1858  -48.8978 H         1 UNK         0.0600 
    129 H129       -1.5826   -8.6951  -47.8997 H         1 UNK         0.0600 
    130 H130       -1.9384  -11.9756  -48.2997 H         1 UNK         0.3000 
    131 H131        0.0323  -13.1102  -46.6332 H         1 UNK         0.0600 
    132 H132       -1.0368  -14.4979  -48.2312 H         1 UNK         0.0800 
    133 H133       -1.4159  -15.1579  -46.6753 H         1 UNK         0.0800 
    134 H134       -2.7521  -13.9255  -50.0335 H         1 UNK         0.0800 
    135 H135       -4.3927  -14.5042  -49.8899 H         1 UNK         0.0800 
    136 H136       -1.0229  -15.5060  -50.5657 H         1 UNK         0.1150 
    137 H137       -1.7379  -19.7041  -50.2837 H         1 UNK         0.1150 
    138 H138       -4.7494  -16.9275  -49.0081 H         1 UNK         0.1150 
    139 H139       -4.7946  -19.3483  -48.2745 H         1 UNK         0.0800 
    140 H140       -5.1558  -19.5600  -49.9696 H         1 UNK         0.0800 
    141 H141       -3.0890  -20.9043  -46.8607 H         1 UNK         0.0800 
    142 H142       -1.9049  -20.2331  -47.9289 H         1 UNK         0.0800 
    143 H143       -1.5179  -22.8433  -48.6003 H         1 UNK         0.0600 
    144 H144       -0.0868  -21.0545  -46.9595 H         1 UNK         0.3000 
    145 H145        2.6772  -23.2186  -46.2497 H         1 UNK         0.0600 
    146 H146        3.8662  -21.2855  -47.2366 H         1 UNK         0.0600 
    147 H147        3.0825  -22.2201  -48.5017 H         1 UNK         0.0600 
    148 H148        2.3755  -20.7004  -47.9713 H         1 UNK         0.0600 
    149 H149        2.1605  -20.5377  -45.4754 H         1 UNK         0.3000 
    150 H150        0.2441  -21.2771  -42.5154 H         1 UNK         0.0600 
    151 H151        2.6354  -21.4267  -41.8690 H         1 UNK         0.0600 
    152 H152        2.0217  -19.8054  -41.5781 H         1 UNK         0.0600 
    153 H153        3.0444  -20.1253  -42.9777 H         1 UNK         0.0600 
    154 H154        0.9834  -18.7838  -43.6211 H         1 UNK         0.3000 
    155 H155       -1.8013  -18.3814  -45.8521 H         1 UNK         0.0600 
    156 H156       -0.9858  -16.9891  -43.2450 H         1 UNK         0.0600 
    157 H157       -2.5659  -17.6826  -43.5824 H         1 UNK         0.0600 
    158 H158       -1.9982  -16.3084  -44.5161 H         1 UNK         0.0600 
    159 H159        0.5069  -16.7781  -45.2146 H         1 UNK         0.3000 
    160 H160        2.5922  -18.0245  -47.8289 H         1 UNK         0.0600 
    161 H161        1.1565  -15.3447  -47.4455 H         1 UNK         0.0600 
    162 H162        1.0885  -16.3315  -48.8923 H         1 UNK         0.0600 
    163 H163        2.6136  -15.6140  -48.3965 H         1 UNK         0.0600 
    164 H164        2.8216  -15.9924  -45.7719 H         1 UNK         0.3000 
    165 H165        4.3093  -18.1065  -43.3154 H         1 UNK         0.0600 
    166 H166        6.2539  -16.5891  -43.5490 H         1 UNK         0.0600 
    167 H167        6.2256  -17.7361  -44.8787 H         1 UNK         0.0600 
    168 H168        5.7011  -16.0775  -45.1445 H         1 UNK         0.0600 
    169 H169        4.0663  -15.2806  -43.4568 H         1 UNK         0.3000 
    170 H170        0.6814  -14.8766  -42.7204 H         1 UNK         0.0600 
    171 H171        1.4140  -15.5503  -40.4238 H         1 UNK         0.0600 
    172 H172        2.8945  -14.6181  -40.6182 H         1 UNK         0.0600 
    173 H173        1.3293  -13.8041  -40.5909 H         1 UNK         0.0600 
    174 H174        2.5610  -12.8930  -42.4841 H         1 UNK         0.3000 
    175 H175        3.8054  -11.8252  -44.3085 H         1 UNK         0.0600 
    176 H176        2.2205  -12.0627  -46.9233 H         1 UNK         0.0600 
    177 H177        3.5100  -10.9096  -46.5945 H         1 UNK         0.0600 
    178 H178        3.8657  -12.6288  -46.6653 H         1 UNK         0.0600 
    179 H179        1.2204  -10.7303  -45.1601 H         1 UNK         0.3000 
    180 H180        0.4678   -9.3263  -41.9360 H         1 UNK         0.0600 
    181 H181        0.9469   -8.2771  -44.7780 H         1 UNK         0.0600 
    182 H182        1.7590   -7.7145  -43.3218 H         1 UNK         0.0600 
    183 H183        0.0306   -7.4631  -43.5124 H         1 UNK         0.0600 
    184 H184       -0.7573  -10.0830  -44.5480 H         1 UNK         0.3000 
    185 H185       -3.0441  -12.3097  -43.0286 H         1 UNK         0.0600 
    186 H186       -3.6732   -9.5561  -44.2269 H         1 UNK         0.0600 
    187 H187       -4.7778  -10.9298  -44.1527 H         1 UNK         0.0600 
    188 H188       -4.2448  -10.1494  -42.6721 H         1 UNK         0.0600 
    189 H189       -2.6833  -11.2631  -45.6988 H         1 UNK         0.3000 
    190 H190       -1.6454  -22.3492  -45.0513 H         1 UNK         0.3000 
    191 H191       -3.6286  -24.2807  -44.4710 H         1 UNK         0.0600 
    192 H192       -1.3156  -23.2936  -42.7192 H         1 UNK         0.0600 
    193 H193       -2.7567  -24.1242  -42.1504 H         1 UNK         0.0600 
    194 H194       -2.8941  -22.5265  -42.8703 H         1 UNK         0.0600 
    195 H195       -0.0533  -24.6147  -44.6532 H         1 UNK         0.3000 
    196 H196        0.0908  -27.3763  -44.0099 H         1 UNK         0.0600 
    197 H197        2.3652  -27.2217  -45.0152 H         1 UNK         0.0600 
    198 H198        2.0480  -25.8502  -43.9629 H         1 UNK         0.0600 
    199 H199        1.9705  -25.6560  -45.7123 H         1 UNK         0.0600 
    200 H200       -0.5053  -25.7279  -47.1061 H         1 UNK         0.3000 
    201 H201       -0.5351  -28.1346  -48.7194 H         1 UNK         0.0600 
    202 H202        0.0481  -25.8871  -49.6393 H         1 UNK         0.0600 
    203 H203       -1.5794  -25.3109  -49.2960 H         1 UNK         0.0600 
    204 H204       -1.3266  -26.5806  -50.4830 H         1 UNK         0.0600 
    205 H205       -2.6903  -27.0898  -46.3879 H         1 UNK         0.3000 
    206 H206       -4.7230  -27.5749  -45.7341 H         1 UNK         0.0600 
    207 H207       -4.1510  -29.9429  -46.3146 H         1 UNK         0.0600 
    208 H208       -5.8685  -29.6107  -46.4638 H         1 UNK         0.0600 
    209 H209       -4.8754  -29.7240  -47.9078 H         1 UNK         0.0600 
    210 H210       -4.3496  -25.4292  -47.4023 H         1 UNK         0.3000 
    211 H211       -5.4386  -23.7196  -48.1515 H         1 UNK         0.0600 
    212 H212       -8.0695  -25.2860  -48.2256 H         1 UNK         0.0600 
    213 H213       -7.8749  -23.5454  -48.3194 H         1 UNK         0.0600 
    214 H214       -7.4672  -24.3861  -46.8323 H         1 UNK         0.0600 
    215 H215       -6.0777  -22.7201  -50.1126 H         1 UNK         0.3000 
    216 H216       -6.5474  -24.1014  -52.5580 H         1 UNK         0.0600 
    217 H217       -4.3204  -23.5314  -53.6037 H         1 UNK         0.0600 
    218 H218       -4.0784  -24.6506  -52.2780 H         1 UNK         0.0600 
    219 H219       -3.7379  -22.9374  -52.0542 H         1 UNK         0.0600 
    220 H220       -6.0534  -22.3162  -54.3648 H         1 UNK         0.3000 
    221 H221       -7.2814  -19.7691  -53.6251 H         1 UNK         0.0600 
    222 H222       -5.9640  -20.7400  -56.2296 H         1 UNK         0.0600 
    223 H223       -7.6870  -20.8214  -55.8628 H         1 UNK         0.0600 
    224 H224       -6.9007  -19.2620  -56.0422 H         1 UNK         0.0600 
    225 H225       -6.1930  -17.7634  -53.5734 H         1 UNK         0.3000 
    226 H226       -3.5609  -17.7070  -52.5345 H         1 UNK         0.0600 
    227 H227       -5.3143  -16.0478  -51.9615 H         1 UNK         0.0600 
    228 H228       -3.9004  -15.2317  -52.6057 H         1 UNK         0.0600 
    229 H229       -5.3229  -15.4431  -53.6199 H         1 UNK         0.0600 
    230 H230       -4.5517  -17.7904  -55.8238 H         1 UNK         0.3000 
    231 H231       -2.1081  -16.5928  -56.9345 H         1 UNK         0.0600 
    232 H232       -4.2844  -16.3652  -58.1217 H         1 UNK         0.0600 
    233 H233       -4.4230  -18.1197  -58.2446 H         1 UNK         0.0600 
    234 H234       -3.1387  -17.2708  -59.0965 H         1 UNK         0.0600 
    235 H235       -3.0642  -19.6941  -55.6876 H         1 UNK         0.3000 
    236 H236       -0.9895  -21.1628  -57.2726 H         1 UNK         0.0600 
    237 H237       -2.3308  -23.1762  -56.6946 H         1 UNK         0.0600 
    238 H238       -3.5034  -22.1781  -55.8413 H         1 UNK         0.0600 
    239 H239       -3.2976  -22.0089  -57.5823 H         1 UNK         0.0600 
    240 H240       -2.4396  -20.7884  -54.0160 H         1 UNK         0.3000 
    241 H241       -1.7617  -21.0267  -51.9870 H         1 UNK         0.0600 
    242 H242       -1.5223  -23.6517  -53.8870 H         1 UNK         0.3800 
    243 H243       -0.9510  -24.7869  -52.6921 H         1 UNK         0.3800 
    244 H244        0.5751  -20.5857  -51.2760 H         1 UNK         0.0800 
    245 H245        1.1527  -20.8386  -52.8941 H         1 UNK         0.0800 
    246 H246        0.7075  -18.5307  -50.3584 H         1 UNK         0.0800 
    247 H247        0.6968  -16.9905  -51.1685 H         1 UNK         0.0800 
@<TRIPOS>BOND
     1    1    2 1    
     2    1  127 1    
     3    1  128 1    
     4    1  129 1    
     5    2    3 2    
     6    2    4 am   BACKBONE|DICT|INTERRES
     7    4    5 1    
     8    4  130 1    
     9    5    6 1    
    10    5   65 1    
    11    5  131 1    
    12    6    7 1    
    13    6  132 1    
    14    6  133 1    
    15    7    8 1    
    16    8    9 1    
    17    8  134 1    
    18    8  135 1    
    19    9   10 ar   
    20    9   14 ar   
    21   10   11 ar   
    22   10  136 1    
    23   11   12 ar   
    24   11  126 1    
    25   12   13 ar   
    26   12  137 1    
    27   13   14 ar   
    28   13   15 1    
    29   14  138 1    
    30   15   16 1    
    31   15  139 1    
    32   15  140 1    
    33   16   17 1    
    34   17   18 1    
    35   17  141 1    
    36   17  142 1    
    37   18   19 1    
    38   18   67 1    
    39   18  143 1    
    40   19   20 am   BACKBONE|DICT|INTERRES
    41   19  144 1    
    42   20   21 2    
    43   20   22 1    
    44   22   23 1    
    45   22   24 1    
    46   22  145 1    
    47   23  146 1    
    48   23  147 1    
    49   23  148 1    
    50   24   25 am   BACKBONE|DICT|INTERRES
    51   24  149 1    
    52   25   26 2    
    53   25   27 1    
    54   27   28 1    
    55   27   29 1    
    56   27  150 1    
    57   28  151 1    
    58   28  152 1    
    59   28  153 1    
    60   29   30 am   BACKBONE|DICT|INTERRES
    61   29  154 1    
    62   30   31 2    
    63   30   32 1    
    64   32   33 1    
    65   32   34 1    
    66   32  155 1    
    67   33  156 1    
    68   33  157 1    
    69   33  158 1    
    70   34   35 am   BACKBONE|DICT|INTERRES
    71   34  159 1    
    72   35   36 2    
    73   35   37 1    
    74   37   38 1    
    75   37   39 1    
    76   37  160 1    
    77   38  161 1    
    78   38  162 1    
    79   38  163 1    
    80   39   40 am   BACKBONE|DICT|INTERRES
    81   39  164 1    
    82   40   41 2    
    83   40   42 1    
    84   42   43 1    
    85   42   44 1    
    86   42  165 1    
    87   43  166 1    
    88   43  167 1    
    89   43  168 1    
    90   44   45 am   BACKBONE|DICT|INTERRES
    91   44  169 1    
    92   45   46 2    
    93   45   47 1    
    94   47   48 1    
    95   47   49 1    
    96   47  170 1    
    97   48  171 1    
    98   48  172 1    
    99   48  173 1    
   100   49   50 am   BACKBONE|DICT|INTERRES
   101   49  174 1    
   102   50   51 2    
   103   50   52 1    
   104   52   53 1    
   105   52   54 1    
   106   52  175 1    
   107   53  176 1    
   108   53  177 1    
   109   53  178 1    
   110   54   55 am   BACKBONE|DICT|INTERRES
   111   54  179 1    
   112   55   56 2    
   113   55   57 1    
   114   57   58 1    
   115   57   59 1    
   116   57  180 1    
   117   58  181 1    
   118   58  182 1    
   119   58  183 1    
   120   59   60 am   BACKBONE|DICT|INTERRES
   121   59  184 1    
   122   60   61 2    
   123   60   62 1    
   124   62   63 1    
   125   62   64 1    
   126   62  185 1    
   127   63  186 1    
   128   63  187 1    
   129   63  188 1    
   130   64   65 am   BACKBONE|DICT|INTERRES
   131   64  189 1    
   132   65   66 2    
   133   67   68 2    
   134   67   69 am   BACKBONE|DICT|INTERRES
   135   69   70 1    
   136   69  190 1    
   137   70   71 1    
   138   70   72 1    
   139   70  191 1    
   140   71  192 1    
   141   71  193 1    
   142   71  194 1    
   143   72   73 2    
   144   72   74 am   BACKBONE|DICT|INTERRES
   145   74   75 1    
   146   74  195 1    
   147   75   76 1    
   148   75   77 1    
   149   75  196 1    
   150   76  197 1    
   151   76  198 1    
   152   76  199 1    
   153   77   78 2    
   154   77   79 am   BACKBONE|DICT|INTERRES
   155   79   80 1    
   156   79  200 1    
   157   80   81 1    
   158   80   82 1    
   159   80  201 1    
   160   81  202 1    
   161   81  203 1    
   162   81  204 1    
   163   82   83 2    
   164   82   84 am   BACKBONE|DICT|INTERRES
   165   84   85 1    
   166   84  205 1    
   167   85   86 1    
   168   85   87 1    
   169   85  206 1    
   170   86  207 1    
   171   86  208 1    
   172   86  209 1    
   173   87   88 2    
   174   87   89 am   BACKBONE|DICT|INTERRES
   175   89   90 1    
   176   89  210 1    
   177   90   91 1    
   178   90   92 1    
   179   90  211 1    
   180   91  212 1    
   181   91  213 1    
   182   91  214 1    
   183   92   93 2    
   184   92   94 am   BACKBONE|DICT|INTERRES
   185   94   95 1    
   186   94  215 1    
   187   95   96 1    
   188   95   97 1    
   189   95  216 1    
   190   96  217 1    
   191   96  218 1    
   192   96  219 1    
   193   97   98 2    
   194   97   99 am   BACKBONE|DICT|INTERRES
   195   99  100 1    
   196   99  220 1    
   197  100  101 1    
   198  100  102 1    
   199  100  221 1    
   200  101  222 1    
   201  101  223 1    
   202  101  224 1    
   203  102  103 2    
   204  102  104 am   BACKBONE|DICT|INTERRES
   205  104  105 1    
   206  104  225 1    
   207  105  106 1    
   208  105  107 1    
   209  105  226 1    
   210  106  227 1    
   211  106  228 1    
   212  106  229 1    
   213  107  108 2    
   214  107  109 am   BACKBONE|DICT|INTERRES
   215  109  110 1    
   216  109  230 1    
   217  110  111 1    
   218  110  112 1    
   219  110  231 1    
   220  111  232 1    
   221  111  233 1    
   222  111  234 1    
   223  112  113 2    
   224  112  114 am   BACKBONE|DICT|INTERRES
   225  114  115 1    
   226  114  235 1    
   227  115  116 1    
   228  115  117 1    
   229  115  236 1    
   230  116  237 1    
   231  116  238 1    
   232  116  239 1    
   233  117  118 2    
   234  117  119 am   BACKBONE|DICT|INTERRES
   235  119  120 1    
   236  119  240 1    
   237  120  121 1    
   238  120  124 1    
   239  120  241 1    
   240  121  122 am   BACKBONE|DICT|INTERRES
   241  121  123 2    
   242  122  242 1    
   243  122  243 1    
   244  124  125 1    
   245  124  244 1    
   246  124  245 1    
   247  125  126 1    
   248  126  246 1    
   249  126  247 1    
@<TRIPOS>SUBSTRUCTURE
     1 UNK         1 GROUP             0       ****    0 ROOT    
