@<TRIPOS>MOLECULE
3R540
247   249    1
SMALL
USER_CHARGES


@<TRIPOS>ATOM
      1 CA          1.8109  -16.9471  -40.1793 C.3       0 UNK        -0.1800 
      2 C           0.9358  -15.9569  -40.9310 C.2       0 UNK         0.5000 
      3 O           0.3530  -15.0671  -40.3103 O.2       0 UNK        -0.5000 
      4 N           0.8610  -16.0829  -42.2630 N.am      1 UNK        -0.5000 
      5 CA          0.2533  -15.0835  -43.1453 C.3       1 UNK         0.1400 
      6 C6         -0.1896  -15.6864  -44.5031 C.3       23 UNK        -0.0398 
      7 S7         -1.1835  -14.4947  -45.4769 S.3       23 UNK        -0.2404 
      8 C8         -2.6300  -15.4862  -45.9886 C.3       23 UNK        -0.0205 
      9 C9         -2.4795  -16.2456  -47.3105 C.ar      23 UNK        -0.0193 
     10 C10        -3.6399  -16.7013  -47.9475 C.ar      23 UNK        -0.1150 
     11 C11        -3.5736  -17.3717  -49.1722 C.ar      23 UNK        -0.0193 
     12 C12        -2.3295  -17.5835  -49.7666 C.ar      23 UNK        -0.1150 
     13 C13        -1.1570  -17.1630  -49.1364 C.ar      23 UNK        -0.0193 
     14 C14        -1.2363  -16.5003  -47.9087 C.ar      23 UNK        -0.1150 
     15 C15         0.1923  -17.4180  -49.7927 C.3       23 UNK        -0.0205 
     16 S16         1.0300  -18.8877  -49.1156 S.3       23 UNK        -0.2404 
     17 C17        -0.1379  -20.2334  -49.5212 C.3       23 UNK        -0.0398 
     18 CA         -0.7465  -20.9088  -48.2673 C.3       11 UNK         0.1400 
     19 N          -1.2619  -19.9606  -47.2672 N.am      11 UNK        -0.5000 
     20 C          -1.6361  -20.3271  -46.0348 C.2       10 UNK         0.5000 
     21 O          -1.5574  -21.4865  -45.6220 O.2       10 UNK        -0.5000 
     22 CA         -2.2903  -19.2589  -45.1585 C.3       10 UNK         0.1400 
     23 CB         -3.8099  -19.2297  -45.4137 C.3       10 UNK        -0.1800 
     24 N          -2.0121  -19.5801  -43.7667 N.am      10 UNK        -0.5000 
     25 C          -2.2327  -18.8060  -42.7017 C.2       9 UNK         0.5000 
     26 O          -2.7165  -17.6759  -42.7636 O.2       9 UNK        -0.5000 
     27 CA         -1.8260  -19.3820  -41.3312 C.3       9 UNK         0.1400 
     28 CB         -2.6770  -20.6112  -40.9528 C.3       9 UNK        -0.1800 
     29 N          -0.3873  -19.6561  -41.2144 N.am      9 UNK        -0.5000 
     30 C           0.3485  -20.5512  -41.8867 C.2       8 UNK         0.5000 
     31 O          -0.1091  -21.3690  -42.6874 O.2       8 UNK        -0.5000 
     32 CA          1.8632  -20.5290  -41.6235 C.3       8 UNK         0.1400 
     33 CB          2.2902  -21.7528  -40.7992 C.3       8 UNK        -0.1800 
     34 N           2.5904  -20.5233  -42.8890 N.am      8 UNK        -0.5000 
     35 C           2.6678  -19.4849  -43.7305 C.2       7 UNK         0.5000 
     36 O           2.2595  -18.3459  -43.4796 O.2       7 UNK        -0.5000 
     37 CA          3.2558  -19.8079  -45.1079 C.3       7 UNK         0.1400 
     38 CB          2.1628  -20.4095  -46.0090 C.3       7 UNK        -0.1800 
     39 N           3.8120  -18.6109  -45.7350 N.am      7 UNK        -0.5000 
     40 C           4.6946  -18.6379  -46.7430 C.2       6 UNK         0.5000 
     41 O           5.1808  -19.6795  -47.1866 O.2       6 UNK        -0.5000 
     42 CA          5.1091  -17.3036  -47.3865 C.3       6 UNK         0.1400 
     43 CB          4.3655  -17.1043  -48.7170 C.3       6 UNK        -0.1800 
     44 N           4.8447  -16.1389  -46.5439 N.am      6 UNK        -0.5000 
     45 C           5.7790  -15.4408  -45.8847 C.2       5 UNK         0.5000 
     46 O           6.9500  -15.8074  -45.7708 O.2       5 UNK        -0.5000 
     47 CA          5.3254  -14.0980  -45.2668 C.3       5 UNK         0.1400 
     48 CB          6.4617  -13.0590  -45.1781 C.3       5 UNK        -0.1800 
     49 N           4.1451  -13.5291  -45.9295 N.am      5 UNK        -0.5000 
     50 C           4.0184  -13.1250  -47.2035 C.2       4 UNK         0.5000 
     51 O           4.9452  -13.0823  -48.0125 O.2       4 UNK        -0.5000 
     52 CA          2.6012  -12.7394  -47.6583 C.3       4 UNK         0.1400 
     53 CB          1.8040  -14.0028  -48.0253 C.3       4 UNK        -0.1800 
     54 N           1.8794  -12.0118  -46.6145 N.am      4 UNK        -0.5000 
     55 C           1.6747  -10.6878  -46.6092 C.2       3 UNK         0.5000 
     56 O           2.0662   -9.9294  -47.4974 O.2       3 UNK        -0.5000 
     57 CA          0.8941  -10.1034  -45.4142 C.3       3 UNK         0.1400 
     58 CB         -0.6062  -10.0358  -45.7388 C.3       3 UNK        -0.1800 
     59 N           1.0759  -10.8640  -44.1779 N.am      3 UNK        -0.5000 
     60 C           2.2152  -10.9215  -43.4746 C.2       2 UNK         0.5000 
     61 O           3.2217  -10.2681  -43.7503 O.2       2 UNK        -0.5000 
     62 CA          2.2466  -11.8880  -42.2723 C.3       2 UNK         0.1400 
     63 CB          2.0079  -11.1236  -40.9616 C.3       2 UNK        -0.1800 
     64 N           1.2941  -13.0022  -42.3510 N.am      2 UNK        -0.5000 
     65 C           1.2581  -13.9275  -43.3187 C.2       1 UNK         0.5000 
     66 O           1.9982  -13.9078  -44.3016 O.2       1 UNK        -0.5000 
     67 C          -1.8257  -21.9388  -48.6656 C.2       11 UNK         0.5000 
     68 O          -1.4982  -23.0864  -48.9582 O.2       11 UNK        -0.5000 
     69 N          -3.0995  -21.5217  -48.5992 N.am      12 UNK        -0.5000 
     70 CA         -4.2786  -22.3683  -48.7700 C.3       12 UNK         0.1400 
     71 CB         -5.5273  -21.4754  -48.8163 C.3       12 UNK        -0.1800 
     72 C          -4.4354  -23.4452  -47.6790 C.2       12 UNK         0.5000 
     73 O          -5.0008  -24.5015  -47.9588 O.2       12 UNK        -0.5000 
     74 N          -3.9418  -23.1623  -46.4654 N.am      13 UNK        -0.5000 
     75 CA         -3.9305  -24.1013  -45.3454 C.3       13 UNK         0.1400 
     76 CB         -3.9679  -23.3227  -44.0195 C.3       13 UNK        -0.1800 
     77 C          -2.7015  -25.0236  -45.4075 C.2       13 UNK         0.5000 
     78 O          -2.8228  -26.2127  -45.1115 O.2       13 UNK        -0.5000 
     79 N          -1.5459  -24.4620  -45.7915 N.am      14 UNK        -0.5000 
     80 CA         -0.2789  -25.1804  -45.9288 C.3       14 UNK         0.1400 
     81 CB          0.8677  -24.1670  -46.0575 C.3       14 UNK        -0.1800 
     82 C          -0.2728  -26.1759  -47.1051 C.2       14 UNK         0.5000 
     83 O           0.2034  -27.3002  -46.9404 O.2       14 UNK        -0.5000 
     84 N          -0.8040  -25.7495  -48.2574 N.am      15 UNK        -0.5000 
     85 CA         -0.9784  -26.5575  -49.4599 C.3       15 UNK         0.1400 
     86 CB         -0.3548  -25.8186  -50.6632 C.3       15 UNK        -0.1800 
     87 C          -2.4771  -26.8661  -49.6225 C.2       15 UNK         0.5000 
     88 O          -3.0027  -27.7007  -48.8842 O.2       15 UNK        -0.5000 
     89 N          -3.1383  -26.2003  -50.5737 N.am      16 UNK        -0.5000 
     90 CA         -4.5640  -26.3042  -50.8570 C.3       16 UNK         0.1400 
     91 CB         -4.8185  -27.4615  -51.8375 C.3       16 UNK        -0.1800 
     92 C          -5.0196  -24.9726  -51.4604 C.2       16 UNK         0.5000 
     93 O          -4.2153  -24.2924  -52.1035 O.2       16 UNK        -0.5000 
     94 N          -6.2975  -24.6236  -51.2702 N.am      17 UNK        -0.5000 
     95 CA         -6.8905  -23.3645  -51.7329 C.3       17 UNK         0.1400 
     96 CB         -8.3302  -23.2533  -51.2113 C.3       17 UNK        -0.1800 
     97 C          -6.8466  -23.1822  -53.2598 C.2       17 UNK         0.5000 
     98 O          -6.5976  -22.0719  -53.7287 O.2       17 UNK        -0.5000 
     99 N          -7.0383  -24.2825  -53.9995 N.am      18 UNK        -0.5000 
    100 CA        -6.9571  -24.3241  -55.4605 C.3       18 UNK         0.1400 
    101 CB        -7.5592  -25.6474  -55.9571 C.3       18 UNK        -0.1800 
    102 C         -5.5216  -24.1517  -55.9942 C.2       18 UNK         0.5000 
    103 O         -5.3480  -23.6398  -57.1005 O.2       18 UNK        -0.5000 
    104 N         -4.5248  -24.5776  -55.2056 N.am      19 UNK        -0.5000 
    105 CA        -3.1051  -24.4162  -55.5156 C.3       19 UNK         0.1400 
    106 CB        -2.2897  -25.4815  -54.7639 C.3       19 UNK        -0.1800 
    107 C         -2.6148  -23.0007  -55.1673 C.2       19 UNK         0.5000 
    108 O         -1.8533  -22.4146  -55.9372 O.2       19 UNK        -0.5000 
    109 N         -3.0645  -22.4827  -54.0161 N.am      20 UNK        -0.5000 
    110 CA        -2.7428  -21.1506  -53.5109 C.3       20 UNK         0.1400 
    111 CB        -3.1917  -21.0534  -52.0476 C.3       20 UNK        -0.1800 
    112 C         -3.3672  -20.0312  -54.3614 C.2       20 UNK         0.5000 
    113 O         -2.6484  -19.1283  -54.7904 O.2       20 UNK        -0.5000 
    114 N         -4.6846  -20.1340  -54.5996 N.am      21 UNK        -0.5000 
    115 CA        -5.5061  -19.2833  -55.4676 C.3       21 UNK         0.1400 
    116 CB        -5.2058  -19.6095  -56.9451 C.3       21 UNK        -0.1800 
    117 C         -5.4125  -17.7722  -55.1535 C.2       21 UNK         0.5000 
    118 O         -5.3362  -16.9564  -56.0748 O.2       21 UNK        -0.5000 
    119 N         -5.4078  -17.4213  -53.8589 N.am      22 UNK        -0.5000 
    120 CA        -5.2771  -16.0315  -53.3821 C.3       22 UNK         0.1400 
    121 C         -6.5391  -15.1336  -53.5641 C.2       22 UNK         0.5000 
    122 N         -7.6967  -15.6743  -53.9255 N.am      22 UNK        -0.7600 
    123 O         -6.4611  -13.9204  -53.3895 O.2       22 UNK        -0.5000 
    124 C124       -4.6947  -15.9556  -51.9460 C.3       23 UNK        -0.0398 
    125 S125       -5.8108  -16.5620  -50.6286 S.3       23 UNK        -0.2404 
    126 C126       -4.8387  -17.8862  -49.8465 C.3       23 UNK        -0.0205 
    127 H127        2.5380  -17.4139  -40.8431 H         1 UNK         0.0600 
    128 H128        1.2019  -17.7187  -39.7108 H         1 UNK         0.0600 
    129 H129        2.3663  -16.4329  -39.3948 H         1 UNK         0.0600 
    130 H130        1.3774  -16.8290  -42.7246 H         1 UNK         0.3000 
    131 H131       -0.6420  -14.6883  -42.6596 H         1 UNK         0.0600 
    132 H132        0.6657  -16.0179  -45.0945 H         1 UNK         0.0800 
    133 H133       -0.7838  -16.5783  -44.3163 H         1 UNK         0.0800 
    134 H134       -2.9125  -16.1755  -45.1927 H         1 UNK         0.0800 
    135 H135       -3.4659  -14.7925  -46.0894 H         1 UNK         0.0800 
    136 H136       -4.6051  -16.5261  -47.4927 H         1 UNK         0.1150 
    137 H137       -2.2719  -18.0790  -50.7241 H         1 UNK         0.1150 
    138 H138       -0.3208  -16.1768  -47.4372 H         1 UNK         0.1150 
    139 H139        0.0788  -17.5337  -50.8718 H         1 UNK         0.0800 
    140 H140        0.8362  -16.5494  -49.6492 H         1 UNK         0.0800 
    141 H141        0.4094  -20.9755  -50.1050 H         1 UNK         0.0800 
    142 H142       -0.9144  -19.8617  -50.1867 H         1 UNK         0.0800 
    143 H143        0.0579  -21.4674  -47.7861 H         1 UNK         0.0600 
    144 H144       -1.3332  -18.9947  -47.5581 H         1 UNK         0.3000 
    145 H145       -1.8450  -18.2954  -45.4003 H         1 UNK         0.0600 
    146 H146       -4.2881  -18.4069  -44.8827 H         1 UNK         0.0600 
    147 H147       -4.0334  -19.0991  -46.4724 H         1 UNK         0.0600 
    148 H148       -4.2874  -20.1560  -45.0917 H         1 UNK         0.0600 
    149 H149       -1.5405  -20.4727  -43.6243 H         1 UNK         0.3000 
    150 H150       -2.0380  -18.6064  -40.5934 H         1 UNK         0.0600 
    151 H151       -2.5320  -21.4449  -41.6399 H         1 UNK         0.0600 
    152 H152       -3.7393  -20.3645  -40.9650 H         1 UNK         0.0600 
    153 H153       -2.4364  -20.9610  -39.9490 H         1 UNK         0.0600 
    154 H154        0.0982  -19.0413  -40.5790 H         1 UNK         0.3000 
    155 H155        2.1283  -19.6338  -41.0631 H         1 UNK         0.0600 
    156 H156        2.0611  -22.6869  -41.3142 H         1 UNK         0.0600 
    157 H157        1.7755  -21.7737  -39.8378 H         1 UNK         0.0600 
    158 H158        3.3608  -21.7364  -40.5941 H         1 UNK         0.0600 
    159 H159        2.9142  -21.4249  -43.2069 H         1 UNK         0.3000 
    160 H160        4.0541  -20.5401  -44.9681 H         1 UNK         0.0600 
    161 H161        1.3842  -19.6761  -46.2175 H         1 UNK         0.0600 
    162 H162        1.6829  -21.2669  -45.5372 H         1 UNK         0.0600 
    163 H163        2.5679  -20.7492  -46.9620 H         1 UNK         0.0600 
    164 H164        3.4830  -17.7319  -45.3603 H         1 UNK         0.3000 
    165 H165        6.1760  -17.3725  -47.6096 H         1 UNK         0.0600 
    166 H166        4.5149  -17.9534  -49.3854 H         1 UNK         0.0600 
    167 H167        3.2922  -16.9922  -48.5630 H         1 UNK         0.0600 
    168 H168        4.7220  -16.2147  -49.2368 H         1 UNK         0.0600 
    169 H169        3.9098  -15.7618  -46.5742 H         1 UNK         0.3000 
    170 H170        5.0122  -14.3288  -44.2476 H         1 UNK         0.0600 
    171 H171        7.2757  -13.4216  -44.5496 H         1 UNK         0.0600 
    172 H172        6.8823  -12.8328  -46.1582 H         1 UNK         0.0600 
    173 H173        6.1068  -12.1254  -44.7411 H         1 UNK         0.0600 
    174 H174        3.3016  -13.5568  -45.3568 H         1 UNK         0.3000 
    175 H175        2.6930  -12.1275  -48.5581 H         1 UNK         0.0600 
    176 H176        1.6820  -14.6680  -47.1698 H         1 UNK         0.0600 
    177 H177        0.8090  -13.7482  -48.3909 H         1 UNK         0.0600 
    178 H178        2.3055  -14.5659  -48.8133 H         1 UNK         0.0600 
    179 H179        1.5640  -12.5561  -45.8210 H         1 UNK         0.3000 
    180 H180        1.2550   -9.0864  -45.2467 H         1 UNK         0.0600 
    181 H181       -1.0284  -11.0290  -45.8988 H         1 UNK         0.0600 
    182 H182       -0.7841   -9.4539  -46.6442 H         1 UNK         0.0600 
    183 H183       -1.1638   -9.5588  -44.9326 H         1 UNK         0.0600 
    184 H184        0.2968  -11.4274  -43.8712 H         1 UNK         0.3000 
    185 H185        3.2487  -12.3202  -42.2374 H         1 UNK         0.0600 
    186 H186        2.1276  -11.7763  -40.0965 H         1 UNK         0.0600 
    187 H187        2.7200  -10.3048  -40.8498 H         1 UNK         0.0600 
    188 H188        1.0056  -10.6952  -40.9238 H         1 UNK         0.0600 
    189 H189        0.6892  -13.1334  -41.5502 H         1 UNK         0.3000 
    190 H190       -3.2699  -20.5602  -48.3480 H         1 UNK         0.3000 
    191 H191       -4.1822  -22.8814  -49.7263 H         1 UNK         0.0600 
    192 H192       -5.5078  -20.8164  -49.6833 H         1 UNK         0.0600 
    193 H193       -6.4363  -22.0740  -48.8859 H         1 UNK         0.0600 
    194 H194       -5.6145  -20.8570  -47.9221 H         1 UNK         0.0600 
    195 H195       -3.4389  -22.2969  -46.3264 H         1 UNK         0.3000 
    196 H196       -4.8250  -24.7264  -45.3896 H         1 UNK         0.0600 
    197 H197       -4.0223  -24.0058  -43.1711 H         1 UNK         0.0600 
    198 H198       -4.8402  -22.6711  -43.9685 H         1 UNK         0.0600 
    199 H199       -3.0806  -22.7049  -43.8810 H         1 UNK         0.0600 
    200 H200       -1.5218  -23.4590  -45.9418 H         1 UNK         0.3000 
    201 H201       -0.1183  -25.7508  -45.0115 H         1 UNK         0.0600 
    202 H202        1.8323  -24.6732  -46.1108 H         1 UNK         0.0600 
    203 H203        0.7674  -23.5568  -46.9548 H         1 UNK         0.0600 
    204 H204        0.8962  -23.4998  -45.1958 H         1 UNK         0.0600 
    205 H205       -1.1623  -24.7990  -48.3153 H         1 UNK         0.3000 
    206 H206       -0.4660  -27.5164  -49.3603 H         1 UNK         0.0600 
    207 H207        0.7169  -25.6823  -50.5185 H         1 UNK         0.0600 
    208 H208       -0.4839  -26.3890  -51.5840 H         1 UNK         0.0600 
    209 H209       -0.7901  -24.8312  -50.8188 H         1 UNK         0.0600 
    210 H210       -2.6631  -25.4832  -51.1069 H         1 UNK         0.3000 
    211 H211       -5.1133  -26.4750  -49.9288 H         1 UNK         0.0600 
    212 H212       -4.2803  -27.3193  -52.7757 H         1 UNK         0.0600 
    213 H213       -5.8793  -27.5491  -52.0752 H         1 UNK         0.0600 
    214 H214       -4.5024  -28.4144  -51.4130 H         1 UNK         0.0600 
    215 H215       -6.8976  -25.2333  -50.7332 H         1 UNK         0.3000 
    216 H216       -6.3093  -22.5486  -51.3028 H         1 UNK         0.0600 
    217 H217       -8.7852  -22.3108  -51.5190 H         1 UNK         0.0600 
    218 H218       -8.3593  -23.2859  -50.1221 H         1 UNK         0.0600 
    219 H219       -8.9591  -24.0606  -51.5885 H         1 UNK         0.0600 
    220 H220       -7.2358  -25.1526  -53.5275 H         1 UNK         0.3000 
    221 H221       -7.5579  -23.5038  -55.8595 H         1 UNK         0.0600 
    222 H222       -7.0098  -26.5087  -55.5747 H         1 UNK         0.0600 
    223 H223       -8.5999  -25.7478  -55.6486 H         1 UNK         0.0600 
    224 H224       -7.5378  -25.7017  -57.0464 H         1 UNK         0.0600 
    225 H225       -4.7503  -24.9397  -54.2906 H         1 UNK         0.3000 
    226 H226       -2.9540  -24.5725  -56.5860 H         1 UNK         0.0600 
    227 H227       -1.2306  -25.4063  -55.0132 H         1 UNK         0.0600 
    228 H228       -2.3771  -25.3776  -53.6824 H         1 UNK         0.0600 
    229 H229       -2.6153  -26.4871  -55.0303 H         1 UNK         0.0600 
    230 H230       -3.6383  -23.0678  -53.4154 H         1 UNK         0.3000 
    231 H231       -1.6577  -21.0312  -53.5407 H         1 UNK         0.0600 
    232 H232       -4.2686  -21.1861  -51.9414 H         1 UNK         0.0600 
    233 H233       -2.9320  -20.0860  -51.6223 H         1 UNK         0.0600 
    234 H234       -2.7015  -21.8197  -51.4490 H         1 UNK         0.0600 
    235 H235       -5.1885  -20.9176  -54.1907 H         1 UNK         0.3000 
    236 H236       -6.5418  -19.5662  -55.2749 H         1 UNK         0.0600 
    237 H237       -5.3226  -20.6753  -57.1432 H         1 UNK         0.0600 
    238 H238       -5.8870  -19.0805  -57.6126 H         1 UNK         0.0600 
    239 H239       -4.1888  -19.3282  -57.2204 H         1 UNK         0.0600 
    240 H240       -5.4928  -18.1370  -53.1529 H         1 UNK         0.3000 
    241 H241       -4.5243  -15.5655  -54.0214 H         1 UNK         0.0600 
    242 H242       -7.7749  -16.6679  -54.0691 H         1 UNK         0.3800 
    243 H243       -8.5047  -15.0840  -54.0468 H         1 UNK         0.3800 
    244 H244       -3.7548  -16.5054  -51.9174 H         1 UNK         0.0800 
    245 H245       -4.4299  -14.9246  -51.7056 H         1 UNK         0.0800 
    246 H246       -4.6023  -18.6442  -50.5936 H         1 UNK         0.0800 
    247 H247       -5.4638  -18.3776  -49.1000 H         1 UNK         0.0800 
@<TRIPOS>BOND
     1    1    2 1    
     2    1  127 1    
     3    1  128 1    
     4    1  129 1    
     5    2    3 2    
     6    2    4 am   BACKBONE|DICT|INTERRES
     7    4    5 1    
     8    4  130 1    
     9    5    6 1    
    10    5   65 1    
    11    5  131 1    
    12    6    7 1    
    13    6  132 1    
    14    6  133 1    
    15    7    8 1    
    16    8    9 1    
    17    8  134 1    
    18    8  135 1    
    19    9   10 ar   
    20    9   14 ar   
    21   10   11 ar   
    22   10  136 1    
    23   11   12 ar   
    24   11  126 1    
    25   12   13 ar   
    26   12  137 1    
    27   13   14 ar   
    28   13   15 1    
    29   14  138 1    
    30   15   16 1    
    31   15  139 1    
    32   15  140 1    
    33   16   17 1    
    34   17   18 1    
    35   17  141 1    
    36   17  142 1    
    37   18   19 1    
    38   18   67 1    
    39   18  143 1    
    40   19   20 am   BACKBONE|DICT|INTERRES
    41   19  144 1    
    42   20   21 2    
    43   20   22 1    
    44   22   23 1    
    45   22   24 1    
    46   22  145 1    
    47   23  146 1    
    48   23  147 1    
    49   23  148 1    
    50   24   25 am   BACKBONE|DICT|INTERRES
    51   24  149 1    
    52   25   26 2    
    53   25   27 1    
    54   27   28 1    
    55   27   29 1    
    56   27  150 1    
    57   28  151 1    
    58   28  152 1    
    59   28  153 1    
    60   29   30 am   BACKBONE|DICT|INTERRES
    61   29  154 1    
    62   30   31 2    
    63   30   32 1    
    64   32   33 1    
    65   32   34 1    
    66   32  155 1    
    67   33  156 1    
    68   33  157 1    
    69   33  158 1    
    70   34   35 am   BACKBONE|DICT|INTERRES
    71   34  159 1    
    72   35   36 2    
    73   35   37 1    
    74   37   38 1    
    75   37   39 1    
    76   37  160 1    
    77   38  161 1    
    78   38  162 1    
    79   38  163 1    
    80   39   40 am   BACKBONE|DICT|INTERRES
    81   39  164 1    
    82   40   41 2    
    83   40   42 1    
    84   42   43 1    
    85   42   44 1    
    86   42  165 1    
    87   43  166 1    
    88   43  167 1    
    89   43  168 1    
    90   44   45 am   BACKBONE|DICT|INTERRES
    91   44  169 1    
    92   45   46 2    
    93   45   47 1    
    94   47   48 1    
    95   47   49 1    
    96   47  170 1    
    97   48  171 1    
    98   48  172 1    
    99   48  173 1    
   100   49   50 am   BACKBONE|DICT|INTERRES
   101   49  174 1    
   102   50   51 2    
   103   50   52 1    
   104   52   53 1    
   105   52   54 1    
   106   52  175 1    
   107   53  176 1    
   108   53  177 1    
   109   53  178 1    
   110   54   55 am   BACKBONE|DICT|INTERRES
   111   54  179 1    
   112   55   56 2    
   113   55   57 1    
   114   57   58 1    
   115   57   59 1    
   116   57  180 1    
   117   58  181 1    
   118   58  182 1    
   119   58  183 1    
   120   59   60 am   BACKBONE|DICT|INTERRES
   121   59  184 1    
   122   60   61 2    
   123   60   62 1    
   124   62   63 1    
   125   62   64 1    
   126   62  185 1    
   127   63  186 1    
   128   63  187 1    
   129   63  188 1    
   130   64   65 am   BACKBONE|DICT|INTERRES
   131   64  189 1    
   132   65   66 2    
   133   67   68 2    
   134   67   69 am   BACKBONE|DICT|INTERRES
   135   69   70 1    
   136   69  190 1    
   137   70   71 1    
   138   70   72 1    
   139   70  191 1    
   140   71  192 1    
   141   71  193 1    
   142   71  194 1    
   143   72   73 2    
   144   72   74 am   BACKBONE|DICT|INTERRES
   145   74   75 1    
   146   74  195 1    
   147   75   76 1    
   148   75   77 1    
   149   75  196 1    
   150   76  197 1    
   151   76  198 1    
   152   76  199 1    
   153   77   78 2    
   154   77   79 am   BACKBONE|DICT|INTERRES
   155   79   80 1    
   156   79  200 1    
   157   80   81 1    
   158   80   82 1    
   159   80  201 1    
   160   81  202 1    
   161   81  203 1    
   162   81  204 1    
   163   82   83 2    
   164   82   84 am   BACKBONE|DICT|INTERRES
   165   84   85 1    
   166   84  205 1    
   167   85   86 1    
   168   85   87 1    
   169   85  206 1    
   170   86  207 1    
   171   86  208 1    
   172   86  209 1    
   173   87   88 2    
   174   87   89 am   BACKBONE|DICT|INTERRES
   175   89   90 1    
   176   89  210 1    
   177   90   91 1    
   178   90   92 1    
   179   90  211 1    
   180   91  212 1    
   181   91  213 1    
   182   91  214 1    
   183   92   93 2    
   184   92   94 am   BACKBONE|DICT|INTERRES
   185   94   95 1    
   186   94  215 1    
   187   95   96 1    
   188   95   97 1    
   189   95  216 1    
   190   96  217 1    
   191   96  218 1    
   192   96  219 1    
   193   97   98 2    
   194   97   99 am   BACKBONE|DICT|INTERRES
   195   99  100 1    
   196   99  220 1    
   197  100  101 1    
   198  100  102 1    
   199  100  221 1    
   200  101  222 1    
   201  101  223 1    
   202  101  224 1    
   203  102  103 2    
   204  102  104 am   BACKBONE|DICT|INTERRES
   205  104  105 1    
   206  104  225 1    
   207  105  106 1    
   208  105  107 1    
   209  105  226 1    
   210  106  227 1    
   211  106  228 1    
   212  106  229 1    
   213  107  108 2    
   214  107  109 am   BACKBONE|DICT|INTERRES
   215  109  110 1    
   216  109  230 1    
   217  110  111 1    
   218  110  112 1    
   219  110  231 1    
   220  111  232 1    
   221  111  233 1    
   222  111  234 1    
   223  112  113 2    
   224  112  114 am   BACKBONE|DICT|INTERRES
   225  114  115 1    
   226  114  235 1    
   227  115  116 1    
   228  115  117 1    
   229  115  236 1    
   230  116  237 1    
   231  116  238 1    
   232  116  239 1    
   233  117  118 2    
   234  117  119 am   BACKBONE|DICT|INTERRES
   235  119  120 1    
   236  119  240 1    
   237  120  121 1    
   238  120  124 1    
   239  120  241 1    
   240  121  122 am   BACKBONE|DICT|INTERRES
   241  121  123 2    
   242  122  242 1    
   243  122  243 1    
   244  124  125 1    
   245  124  244 1    
   246  124  245 1    
   247  125  126 1    
   248  126  246 1    
   249  126  247 1    
@<TRIPOS>SUBSTRUCTURE
     1 UNK         1 GROUP             0       ****    0 ROOT    
