@<TRIPOS>MOLECULE
3R540
247   249    1
SMALL
USER_CHARGES


@<TRIPOS>ATOM
      1 CA          3.3395  -16.0198  -48.2059 C.3       0 UNK        -0.1800 
      2 C           2.0295  -15.4651  -47.6673 C.2       0 UNK         0.5000 
      3 O           1.9196  -15.2010  -46.4733 O.2       0 UNK        -0.5000 
      4 N           1.0390  -15.2653  -48.5449 N.am      1 UNK        -0.5000 
      5 CA         -0.3290  -14.8283  -48.2194 C.3       1 UNK         0.1400 
      6 C6         -1.2635  -14.8919  -49.4550 C.3       23 UNK        -0.0398 
      7 S7         -1.3127  -16.5514  -50.2119 S.3       23 UNK        -0.2404 
      8 C8         -0.0875  -16.3576  -51.5517 C.3       23 UNK        -0.0205 
      9 C9          0.6403  -17.6625  -51.8309 C.ar      23 UNK        -0.0193 
     10 C10         0.5947  -18.2451  -53.0991 C.ar      23 UNK        -0.1150 
     11 C11         1.2387  -19.4615  -53.3439 C.ar      23 UNK        -0.0193 
     12 C12         1.9404  -20.0873  -52.3069 C.ar      23 UNK        -0.1150 
     13 C13         2.0000  -19.5156  -51.0313 C.ar      23 UNK        -0.0193 
     14 C14         1.3642  -18.2886  -50.8129 C.ar      23 UNK        -0.1150 
     15 C15         2.7546  -20.2482  -49.9187 C.3       23 UNK        -0.0205 
     16 S16         2.2134  -19.8648  -48.2115 S.3       23 UNK        -0.2404 
     17 C17         0.4847  -20.4505  -48.2283 C.3       23 UNK        -0.0398 
     18 CA          0.3116  -21.7996  -47.4952 C.3       11 UNK         0.1400 
     19 N           0.6499  -21.7267  -46.0704 N.am      11 UNK        -0.5000 
     20 C           0.8415  -22.7989  -45.2876 C.2       10 UNK         0.5000 
     21 O           0.7934  -23.9577  -45.6973 O.2       10 UNK        -0.5000 
     22 CA          1.0692  -22.5404  -43.7863 C.3       10 UNK         0.1400 
     23 CB          2.5533  -22.2694  -43.5019 C.3       10 UNK        -0.1800 
     24 N           0.2605  -21.4347  -43.2718 N.am      10 UNK        -0.5000 
     25 C          -1.0802  -21.4131  -43.2653 C.2       9 UNK         0.5000 
     26 O          -1.7747  -22.3559  -43.6406 O.2       9 UNK        -0.5000 
     27 CA         -1.7705  -20.1145  -42.8106 C.3       9 UNK         0.1400 
     28 CB         -2.2094  -20.2213  -41.3447 C.3       9 UNK        -0.1800 
     29 N          -0.9411  -18.9219  -42.9901 N.am      9 UNK        -0.5000 
     30 C          -0.5634  -18.4267  -44.1776 C.2       8 UNK         0.5000 
     31 O          -0.8670  -18.9369  -45.2572 O.2       8 UNK        -0.5000 
     32 CA          0.3240  -17.1702  -44.1440 C.3       8 UNK         0.1400 
     33 CB         -0.5401  -15.9023  -44.1892 C.3       8 UNK        -0.1800 
     34 N           1.1955  -17.1310  -42.9653 N.am      8 UNK        -0.5000 
     35 C           2.2706  -17.9177  -42.8152 C.2       7 UNK         0.5000 
     36 O           2.6481  -18.7243  -43.6647 O.2       7 UNK        -0.5000 
     37 CA          3.0210  -17.8266  -41.4747 C.3       7 UNK         0.1400 
     38 CB          3.7853  -16.4997  -41.3461 C.3       7 UNK        -0.1800 
     39 N           2.1357  -18.0007  -40.3228 N.am      7 UNK        -0.5000 
     40 C           1.4807  -19.1278  -40.0130 C.2       6 UNK         0.5000 
     41 O           1.5461  -20.1571  -40.6839 O.2       6 UNK        -0.5000 
     42 CA          0.5628  -19.0997  -38.7733 C.3       6 UNK         0.1400 
     43 CB          1.3594  -19.3045  -37.4698 C.3       6 UNK        -0.1800 
     44 N          -0.3072  -17.9153  -38.7267 N.am      6 UNK        -0.5000 
     45 C           0.0389  -16.6445  -38.4858 C.2       5 UNK         0.5000 
     46 O           1.1659  -16.2921  -38.1283 O.2       5 UNK        -0.5000 
     47 CA         -1.0560  -15.5870  -38.7335 C.3       5 UNK         0.1400 
     48 CB         -1.8757  -15.3514  -37.4560 C.3       5 UNK        -0.1800 
     49 N          -0.5033  -14.3082  -39.1872 N.am      5 UNK        -0.5000 
     50 C           0.2812  -14.1387  -40.2611 C.2       4 UNK         0.5000 
     51 O           0.5424  -15.0413  -41.0635 O.2       4 UNK        -0.5000 
     52 CA          0.8957  -12.7311  -40.4235 C.3       4 UNK         0.1400 
     53 CB          1.7648  -12.3644  -39.2067 C.3       4 UNK        -0.1800 
     54 N           1.7280  -12.6132  -41.6197 N.am      4 UNK        -0.5000 
     55 C           1.2748  -12.5606  -42.8767 C.2       3 UNK         0.5000 
     56 O           0.0769  -12.5229  -43.1701 O.2       3 UNK        -0.5000 
     57 CA          2.3652  -12.5547  -43.9688 C.3       3 UNK         0.1400 
     58 CB          3.2094  -13.8407  -43.9165 C.3       3 UNK        -0.1800 
     59 N           1.8177  -12.3999  -45.3172 N.am      3 UNK        -0.5000 
     60 C           1.3448  -11.2486  -45.8179 C.2       2 UNK         0.5000 
     61 O           1.3607  -10.1849  -45.1953 O.2       2 UNK        -0.5000 
     62 CA          0.7893  -11.2564  -47.2582 C.3       2 UNK         0.1400 
     63 CB          1.7027  -10.4458  -48.1924 C.3       2 UNK        -0.1800 
     64 N           0.6320  -12.5979  -47.8195 N.am      2 UNK        -0.5000 
     65 C          -0.3952  -13.4233  -47.5773 C.2       1 UNK         0.5000 
     66 O          -1.3651  -13.1192  -46.8828 O.2       1 UNK        -0.5000 
     67 C          -1.1132  -22.3481  -47.6982 C.2       11 UNK         0.5000 
     68 O          -1.3205  -23.1790  -48.5809 O.2       11 UNK        -0.5000 
     69 N          -2.0628  -21.9189  -46.8543 N.am      12 UNK        -0.5000 
     70 CA         -3.4400  -22.4154  -46.8598 C.3       12 UNK         0.1400 
     71 CB         -4.3147  -21.5453  -45.9454 C.3       12 UNK        -0.1800 
     72 C          -3.5269  -23.9042  -46.4740 C.2       12 UNK         0.5000 
     73 O          -4.2229  -24.6634  -47.1478 O.2       12 UNK        -0.5000 
     74 N          -2.7710  -24.3070  -45.4426 N.am      13 UNK        -0.5000 
     75 CA         -2.6316  -25.6935  -44.9882 C.3       13 UNK         0.1400 
     76 CB         -1.8298  -25.7204  -43.6785 C.3       13 UNK        -0.1800 
     77 C          -1.9840  -26.6162  -46.0397 C.2       13 UNK         0.5000 
     78 O          -2.3661  -27.7821  -46.1430 O.2       13 UNK        -0.5000 
     79 N          -1.0478  -26.0686  -46.8264 N.am      14 UNK        -0.5000 
     80 CA         -0.4074  -26.7295  -47.9659 C.3       14 UNK         0.1400 
     81 CB          0.9182  -26.0127  -48.2721 C.3       14 UNK        -0.1800 
     82 C          -1.2943  -26.7901  -49.2291 C.2       14 UNK         0.5000 
     83 O          -0.8719  -27.3874  -50.2201 O.2       14 UNK        -0.5000 
     84 N          -2.4855  -26.1720  -49.1841 N.am      15 UNK        -0.5000 
     85 CA         -3.4539  -26.0190  -50.2745 C.3       15 UNK         0.1400 
     86 CB         -4.0150  -27.3847  -50.7234 C.3       15 UNK        -0.1800 
     87 C          -2.9016  -25.1679  -51.4368 C.2       15 UNK         0.5000 
     88 O          -3.1409  -25.4768  -52.6044 O.2       15 UNK        -0.5000 
     89 N          -2.1755  -24.1030  -51.0821 N.am      16 UNK        -0.5000 
     90 CA         -1.5648  -23.1265  -51.9771 C.3       16 UNK         0.1400 
     91 CB         -0.0342  -23.2791  -51.8989 C.3       16 UNK        -0.1800 
     92 C          -2.0448  -21.7143  -51.5919 C.2       16 UNK         0.5000 
     93 O          -1.2468  -20.7832  -51.5216 O.2       16 UNK        -0.5000 
     94 N          -3.3468  -21.5770  -51.3099 N.am      17 UNK        -0.5000 
     95 CA         -3.9878  -20.2957  -51.0187 C.3       17 UNK         0.1400 
     96 CB         -5.3423  -20.5615  -50.3455 C.3       17 UNK        -0.1800 
     97 C          -4.1735  -19.4622  -52.3001 C.2       17 UNK         0.5000 
     98 O          -4.4354  -20.0306  -53.3652 O.2       17 UNK        -0.5000 
     99 N          -4.0683  -18.1330  -52.1692 N.am      18 UNK        -0.5000 
    100 CA        -4.2745  -17.1628  -53.2467 C.3       18 UNK         0.1400 
    101 CB        -4.0179  -15.7429  -52.7196 C.3       18 UNK        -0.1800 
    102 C         -5.6870  -17.2509  -53.8505 C.2       18 UNK         0.5000 
    103 O         -6.6640  -17.3388  -53.1031 O.2       18 UNK        -0.5000 
    104 N         -5.7575  -17.2408  -55.1871 N.am      19 UNK        -0.5000 
    105 CA        -6.9356  -17.3424  -56.0594 C.3       19 UNK         0.1400 
    106 CB        -7.9208  -16.1841  -55.8137 C.3       19 UNK        -0.1800 
    107 C         -7.6558  -18.7057  -56.0161 C.2       19 UNK         0.5000 
    108 O         -8.0809  -19.1933  -57.0638 O.2       19 UNK        -0.5000 
    109 N         -7.7746  -19.3015  -54.8238 N.am      20 UNK        -0.5000 
    110 CA        -8.3823  -20.6090  -54.5805 C.3       20 UNK         0.1400 
    111 CB        -8.5806  -20.7927  -53.0691 C.3       20 UNK        -0.1800 
    112 C         -7.5620  -21.7728  -55.1667 C.2       20 UNK         0.5000 
    113 O         -8.1504  -22.7513  -55.6292 O.2       20 UNK        -0.5000 
    114 N         -6.2306  -21.6395  -55.1489 N.am      21 UNK        -0.5000 
    115 CA        -5.2877  -22.5892  -55.7328 C.3       21 UNK         0.1400 
    116 CB        -4.6533  -23.4385  -54.6213 C.3       21 UNK        -0.1800 
    117 C         -4.2242  -21.8401  -56.5452 C.2       21 UNK         0.5000 
    118 O         -4.0390  -22.1354  -57.7268 O.2       21 UNK        -0.5000 
    119 N         -3.5654  -20.8658  -55.9088 N.am      22 UNK        -0.5000 
    120 CA        -2.5707  -19.9816  -56.5244 C.3       22 UNK         0.1400 
    121 C         -3.2774  -18.7760  -57.1979 C.2       22 UNK         0.5000 
    122 N         -3.8191  -18.9561  -58.3939 N.am      22 UNK        -0.7600 
    123 O         -3.3548  -17.6838  -56.6408 O.2       22 UNK        -0.5000 
    124 C124       -1.4885  -19.5502  -55.5026 C.3       23 UNK        -0.0398 
    125 S125       -0.4089  -20.9434  -55.0269 S.3       23 UNK        -0.2404 
    126 C126        1.1793  -20.0997  -54.7256 C.3       23 UNK        -0.0205 
    127 H127        4.1564  -15.3332  -47.9847 H         1 UNK         0.0600 
    128 H128        3.3042  -16.1728  -49.2847 H         1 UNK         0.0600 
    129 H129        3.5601  -16.9772  -47.7338 H         1 UNK         0.0600 
    130 H130        1.1934  -15.4990  -49.5134 H         1 UNK         0.3000 
    131 H131       -0.7125  -15.5285  -47.4744 H         1 UNK         0.0600 
    132 H132       -2.2855  -14.6382  -49.1670 H         1 UNK         0.0800 
    133 H133       -0.9725  -14.1556  -50.2064 H         1 UNK         0.0800 
    134 H134       -0.5969  -15.9967  -52.4461 H         1 UNK         0.0800 
    135 H135        0.6526  -15.5993  -51.2973 H         1 UNK         0.0800 
    136 H136        0.0480  -17.7576  -53.8927 H         1 UNK         0.1150 
    137 H137        2.4319  -21.0322  -52.4905 H         1 UNK         0.1150 
    138 H138        1.3984  -17.8280  -49.8377 H         1 UNK         0.1150 
    139 H139        2.6706  -21.3261  -50.0664 H         1 UNK         0.0800 
    140 H140        3.8140  -20.0052  -50.0067 H         1 UNK         0.0800 
    141 H141        0.1483  -20.5349  -49.2626 H         1 UNK         0.0800 
    142 H142       -0.1404  -19.6798  -47.7746 H         1 UNK         0.0800 
    143 H143        0.9938  -22.5146  -47.9604 H         1 UNK         0.0600 
    144 H144        0.6819  -20.8038  -45.6592 H         1 UNK         0.3000 
    145 H145        0.7783  -23.4426  -43.2448 H         1 UNK         0.0600 
    146 H146        2.7311  -22.1190  -42.4369 H         1 UNK         0.0600 
    147 H147        3.1703  -23.1106  -43.8201 H         1 UNK         0.0600 
    148 H148        2.9092  -21.3843  -44.0298 H         1 UNK         0.0600 
    149 H149        0.7628  -20.6366  -42.9059 H         1 UNK         0.3000 
    150 H150       -2.6657  -19.9881  -43.4229 H         1 UNK         0.0600 
    151 H151       -2.9250  -21.0342  -41.2142 H         1 UNK         0.0600 
    152 H152       -2.6923  -19.3056  -41.0033 H         1 UNK         0.0600 
    153 H153       -1.3638  -20.4280  -40.6916 H         1 UNK         0.0600 
    154 H154       -0.6269  -18.4483  -42.1572 H         1 UNK         0.3000 
    155 H155        0.9482  -17.1904  -45.0391 H         1 UNK         0.0600 
    156 H156       -1.1325  -15.7820  -43.2815 H         1 UNK         0.0600 
    157 H157        0.0792  -15.0139  -44.3059 H         1 UNK         0.0600 
    158 H158       -1.2293  -15.9250  -45.0339 H         1 UNK         0.0600 
    159 H159        0.9596  -16.4598  -42.2366 H         1 UNK         0.3000 
    160 H160        3.7538  -18.6361  -41.4540 H         1 UNK         0.0600 
    161 H161        4.4031  -16.4882  -40.4481 H         1 UNK         0.0600 
    162 H162        3.1114  -15.6449  -41.2963 H         1 UNK         0.0600 
    163 H163        4.4481  -16.3471  -42.1988 H         1 UNK         0.0600 
    164 H164        2.0030  -17.1981  -39.7160 H         1 UNK         0.3000 
    165 H165       -0.1100  -19.9532  -38.8580 H         1 UNK         0.0600 
    166 H166        0.7048  -19.2787  -36.5987 H         1 UNK         0.0600 
    167 H167        1.8578  -20.2746  -37.4734 H         1 UNK         0.0600 
    168 H168        2.1330  -18.5489  -37.3326 H         1 UNK         0.0600 
    169 H169       -1.2637  -18.0900  -39.0011 H         1 UNK         0.3000 
    170 H170       -1.7223  -15.9524  -39.5176 H         1 UNK         0.0600 
    171 H171       -2.3281  -16.2792  -37.1034 H         1 UNK         0.0600 
    172 H172       -1.2558  -14.9611  -36.6477 H         1 UNK         0.0600 
    173 H173       -2.6859  -14.6431  -37.6308 H         1 UNK         0.0600 
    174 H174       -0.6475  -13.5236  -38.5694 H         1 UNK         0.3000 
    175 H175        0.0763  -12.0134  -40.4992 H         1 UNK         0.0600 
    176 H176        2.2190  -11.3807  -39.3278 H         1 UNK         0.0600 
    177 H177        2.5673  -13.0879  -39.0553 H         1 UNK         0.0600 
    178 H178        1.1774  -12.3309  -38.2887 H         1 UNK         0.0600 
    179 H179        2.7240  -12.6666  -41.4679 H         1 UNK         0.3000 
    180 H180        3.0268  -11.7080  -43.7741 H         1 UNK         0.0600 
    181 H181        2.5846  -14.7336  -43.9486 H         1 UNK         0.0600 
    182 H182        3.8000  -13.8886  -43.0018 H         1 UNK         0.0600 
    183 H183        3.9093  -13.8921  -44.7508 H         1 UNK         0.0600 
    184 H184        1.7378  -13.2504  -45.8640 H         1 UNK         0.3000 
    185 H185       -0.1874  -10.7687  -47.2317 H         1 UNK         0.0600 
    186 H186        2.7003  -10.8819  -48.2572 H         1 UNK         0.0600 
    187 H187        1.2913  -10.3952  -49.2007 H         1 UNK         0.0600 
    188 H188        1.8154   -9.4201  -47.8386 H         1 UNK         0.0600 
    189 H189        1.3904  -12.9393  -48.3918 H         1 UNK         0.3000 
    190 H190       -1.8157  -21.2504  -46.1380 H         1 UNK         0.3000 
    191 H191       -3.8202  -22.3190  -47.8786 H         1 UNK         0.0600 
    192 H192       -4.2804  -20.4981  -46.2467 H         1 UNK         0.0600 
    193 H193       -5.3571  -21.8626  -45.9909 H         1 UNK         0.0600 
    194 H194       -4.0013  -21.6056  -44.9035 H         1 UNK         0.0600 
    195 H195       -2.2695  -23.6031  -44.9049 H         1 UNK         0.3000 
    196 H196       -3.6330  -26.0775  -44.7835 H         1 UNK         0.0600 
    197 H197       -1.7392  -26.7376  -43.2957 H         1 UNK         0.0600 
    198 H198       -2.3155  -25.1236  -42.9062 H         1 UNK         0.0600 
    199 H199       -0.8213  -25.3301  -43.8176 H         1 UNK         0.0600 
    200 H200       -0.7449  -25.1213  -46.6312 H         1 UNK         0.3000 
    201 H201       -0.1772  -27.7590  -47.6844 H         1 UNK         0.0600 
    202 H202        1.5765  -26.0123  -47.4033 H         1 UNK         0.0600 
    203 H203        0.7551  -24.9769  -48.5703 H         1 UNK         0.0600 
    204 H204        1.4554  -26.5058  -49.0830 H         1 UNK         0.0600 
    205 H205       -2.7387  -25.7026  -48.3232 H         1 UNK         0.3000 
    206 H206       -4.2859  -25.4498  -49.8578 H         1 UNK         0.0600 
    207 H207       -4.3979  -27.9513  -49.8746 H         1 UNK         0.0600 
    208 H208       -4.8401  -27.2543  -51.4246 H         1 UNK         0.0600 
    209 H209       -3.2597  -27.9932  -51.2210 H         1 UNK         0.0600 
    210 H210       -2.0109  -23.9215  -50.0927 H         1 UNK         0.3000 
    211 H211       -1.8753  -23.2995  -53.0091 H         1 UNK         0.0600 
    212 H212        0.3431  -23.0427  -50.9031 H         1 UNK         0.0600 
    213 H213        0.4604  -22.6139  -52.6061 H         1 UNK         0.0600 
    214 H214        0.2732  -24.2964  -52.1412 H         1 UNK         0.0600 
    215 H215       -3.9504  -22.3791  -51.4032 H         1 UNK         0.3000 
    216 H216       -3.3585  -19.7359  -50.3229 H         1 UNK         0.0600 
    217 H217       -5.8850  -19.6314  -50.1707 H         1 UNK         0.0600 
    218 H218       -5.2134  -21.0470  -49.3788 H         1 UNK         0.0600 
    219 H219       -5.9757  -21.2030  -50.9580 H         1 UNK         0.0600 
    220 H220       -3.8602  -17.7466  -51.2602 H         1 UNK         0.3000 
    221 H221       -3.5404  -17.3755  -54.0245 H         1 UNK         0.0600 
    222 H222       -4.6541  -15.5087  -51.8652 H         1 UNK         0.0600 
    223 H223       -2.9816  -15.6139  -52.4145 H         1 UNK         0.0600 
    224 H224       -4.2166  -14.9975  -53.4910 H         1 UNK         0.0600 
    225 H225       -4.8740  -17.2298  -55.6946 H         1 UNK         0.3000 
    226 H226       -6.5502  -17.2312  -57.0742 H         1 UNK         0.0600 
    227 H227       -7.4241  -15.2182  -55.9045 H         1 UNK         0.0600 
    228 H228       -8.7308  -16.2032  -56.5438 H         1 UNK         0.0600 
    229 H229       -8.3759  -16.2364  -54.8243 H         1 UNK         0.0600 
    230 H230       -7.4193  -18.7964  -54.0164 H         1 UNK         0.3000 
    231 H231       -9.3639  -20.6206  -55.0587 H         1 UNK         0.0600 
    232 H232       -7.6332  -20.7340  -52.5341 H         1 UNK         0.0600 
    233 H233       -9.0276  -21.7623  -52.8460 H         1 UNK         0.0600 
    234 H234       -9.2420  -20.0275  -52.6626 H         1 UNK         0.0600 
    235 H235       -5.8282  -20.8108  -54.7262 H         1 UNK         0.3000 
    236 H236       -5.8029  -23.2597  -56.4240 H         1 UNK         0.0600 
    237 H237       -5.4036  -24.0428  -54.1114 H         1 UNK         0.0600 
    238 H238       -3.9063  -24.1216  -55.0272 H         1 UNK         0.0600 
    239 H239       -4.1609  -22.8197  -53.8717 H         1 UNK         0.0600 
    240 H240       -3.8005  -20.6567  -54.9411 H         1 UNK         0.3000 
    241 H241       -2.0550  -20.5227  -57.3207 H         1 UNK         0.0600 
    242 H242       -4.2766  -18.1863  -58.8557 H         1 UNK         0.3800 
    243 H243       -3.8020  -19.8651  -58.8337 H         1 UNK         0.3800 
    244 H244       -0.8692  -18.7600  -55.9296 H         1 UNK         0.0800 
    245 H245       -1.9438  -19.1356  -54.6023 H         1 UNK         0.0800 
    246 H246        1.3625  -19.3484  -55.4948 H         1 UNK         0.0800 
    247 H247        1.9802  -20.8331  -54.8293 H         1 UNK         0.0800 
@<TRIPOS>BOND
     1    1    2 1    
     2    1  127 1    
     3    1  128 1    
     4    1  129 1    
     5    2    3 2    
     6    2    4 am   BACKBONE|DICT|INTERRES
     7    4    5 1    
     8    4  130 1    
     9    5    6 1    
    10    5   65 1    
    11    5  131 1    
    12    6    7 1    
    13    6  132 1    
    14    6  133 1    
    15    7    8 1    
    16    8    9 1    
    17    8  134 1    
    18    8  135 1    
    19    9   10 ar   
    20    9   14 ar   
    21   10   11 ar   
    22   10  136 1    
    23   11   12 ar   
    24   11  126 1    
    25   12   13 ar   
    26   12  137 1    
    27   13   14 ar   
    28   13   15 1    
    29   14  138 1    
    30   15   16 1    
    31   15  139 1    
    32   15  140 1    
    33   16   17 1    
    34   17   18 1    
    35   17  141 1    
    36   17  142 1    
    37   18   19 1    
    38   18   67 1    
    39   18  143 1    
    40   19   20 am   BACKBONE|DICT|INTERRES
    41   19  144 1    
    42   20   21 2    
    43   20   22 1    
    44   22   23 1    
    45   22   24 1    
    46   22  145 1    
    47   23  146 1    
    48   23  147 1    
    49   23  148 1    
    50   24   25 am   BACKBONE|DICT|INTERRES
    51   24  149 1    
    52   25   26 2    
    53   25   27 1    
    54   27   28 1    
    55   27   29 1    
    56   27  150 1    
    57   28  151 1    
    58   28  152 1    
    59   28  153 1    
    60   29   30 am   BACKBONE|DICT|INTERRES
    61   29  154 1    
    62   30   31 2    
    63   30   32 1    
    64   32   33 1    
    65   32   34 1    
    66   32  155 1    
    67   33  156 1    
    68   33  157 1    
    69   33  158 1    
    70   34   35 am   BACKBONE|DICT|INTERRES
    71   34  159 1    
    72   35   36 2    
    73   35   37 1    
    74   37   38 1    
    75   37   39 1    
    76   37  160 1    
    77   38  161 1    
    78   38  162 1    
    79   38  163 1    
    80   39   40 am   BACKBONE|DICT|INTERRES
    81   39  164 1    
    82   40   41 2    
    83   40   42 1    
    84   42   43 1    
    85   42   44 1    
    86   42  165 1    
    87   43  166 1    
    88   43  167 1    
    89   43  168 1    
    90   44   45 am   BACKBONE|DICT|INTERRES
    91   44  169 1    
    92   45   46 2    
    93   45   47 1    
    94   47   48 1    
    95   47   49 1    
    96   47  170 1    
    97   48  171 1    
    98   48  172 1    
    99   48  173 1    
   100   49   50 am   BACKBONE|DICT|INTERRES
   101   49  174 1    
   102   50   51 2    
   103   50   52 1    
   104   52   53 1    
   105   52   54 1    
   106   52  175 1    
   107   53  176 1    
   108   53  177 1    
   109   53  178 1    
   110   54   55 am   BACKBONE|DICT|INTERRES
   111   54  179 1    
   112   55   56 2    
   113   55   57 1    
   114   57   58 1    
   115   57   59 1    
   116   57  180 1    
   117   58  181 1    
   118   58  182 1    
   119   58  183 1    
   120   59   60 am   BACKBONE|DICT|INTERRES
   121   59  184 1    
   122   60   61 2    
   123   60   62 1    
   124   62   63 1    
   125   62   64 1    
   126   62  185 1    
   127   63  186 1    
   128   63  187 1    
   129   63  188 1    
   130   64   65 am   BACKBONE|DICT|INTERRES
   131   64  189 1    
   132   65   66 2    
   133   67   68 2    
   134   67   69 am   BACKBONE|DICT|INTERRES
   135   69   70 1    
   136   69  190 1    
   137   70   71 1    
   138   70   72 1    
   139   70  191 1    
   140   71  192 1    
   141   71  193 1    
   142   71  194 1    
   143   72   73 2    
   144   72   74 am   BACKBONE|DICT|INTERRES
   145   74   75 1    
   146   74  195 1    
   147   75   76 1    
   148   75   77 1    
   149   75  196 1    
   150   76  197 1    
   151   76  198 1    
   152   76  199 1    
   153   77   78 2    
   154   77   79 am   BACKBONE|DICT|INTERRES
   155   79   80 1    
   156   79  200 1    
   157   80   81 1    
   158   80   82 1    
   159   80  201 1    
   160   81  202 1    
   161   81  203 1    
   162   81  204 1    
   163   82   83 2    
   164   82   84 am   BACKBONE|DICT|INTERRES
   165   84   85 1    
   166   84  205 1    
   167   85   86 1    
   168   85   87 1    
   169   85  206 1    
   170   86  207 1    
   171   86  208 1    
   172   86  209 1    
   173   87   88 2    
   174   87   89 am   BACKBONE|DICT|INTERRES
   175   89   90 1    
   176   89  210 1    
   177   90   91 1    
   178   90   92 1    
   179   90  211 1    
   180   91  212 1    
   181   91  213 1    
   182   91  214 1    
   183   92   93 2    
   184   92   94 am   BACKBONE|DICT|INTERRES
   185   94   95 1    
   186   94  215 1    
   187   95   96 1    
   188   95   97 1    
   189   95  216 1    
   190   96  217 1    
   191   96  218 1    
   192   96  219 1    
   193   97   98 2    
   194   97   99 am   BACKBONE|DICT|INTERRES
   195   99  100 1    
   196   99  220 1    
   197  100  101 1    
   198  100  102 1    
   199  100  221 1    
   200  101  222 1    
   201  101  223 1    
   202  101  224 1    
   203  102  103 2    
   204  102  104 am   BACKBONE|DICT|INTERRES
   205  104  105 1    
   206  104  225 1    
   207  105  106 1    
   208  105  107 1    
   209  105  226 1    
   210  106  227 1    
   211  106  228 1    
   212  106  229 1    
   213  107  108 2    
   214  107  109 am   BACKBONE|DICT|INTERRES
   215  109  110 1    
   216  109  230 1    
   217  110  111 1    
   218  110  112 1    
   219  110  231 1    
   220  111  232 1    
   221  111  233 1    
   222  111  234 1    
   223  112  113 2    
   224  112  114 am   BACKBONE|DICT|INTERRES
   225  114  115 1    
   226  114  235 1    
   227  115  116 1    
   228  115  117 1    
   229  115  236 1    
   230  116  237 1    
   231  116  238 1    
   232  116  239 1    
   233  117  118 2    
   234  117  119 am   BACKBONE|DICT|INTERRES
   235  119  120 1    
   236  119  240 1    
   237  120  121 1    
   238  120  124 1    
   239  120  241 1    
   240  121  122 am   BACKBONE|DICT|INTERRES
   241  121  123 2    
   242  122  242 1    
   243  122  243 1    
   244  124  125 1    
   245  124  244 1    
   246  124  245 1    
   247  125  126 1    
   248  126  246 1    
   249  126  247 1    
@<TRIPOS>SUBSTRUCTURE
     1 UNK         1 GROUP             0       ****    0 ROOT    
