@<TRIPOS>MOLECULE
3R540
247   249    1
SMALL
USER_CHARGES


@<TRIPOS>ATOM
      1 CA          4.7573  -17.7650  -49.0192 C.3       0 UNK        -0.1800 
      2 C           4.4517  -17.1861  -47.6409 C.2       0 UNK         0.5000 
      3 O           5.1497  -17.5215  -46.6870 O.2       0 UNK        -0.5000 
      4 N           3.4411  -16.3263  -47.4683 N.am      1 UNK        -0.5000 
      5 CA          2.4899  -15.7886  -48.4414 C.3       1 UNK         0.1400 
      6 C6          3.1774  -14.8520  -49.4877 C.3       23 UNK        -0.0398 
      7 S7          2.1425  -14.2325  -50.8661 S.3       23 UNK        -0.2404 
      8 C8          2.0537  -15.6541  -52.0056 C.3       23 UNK        -0.0205 
      9 C9          1.1209  -16.7425  -51.4935 C.ar      23 UNK        -0.0193 
     10 C10        -0.2114  -16.4463  -51.1922 C.ar      23 UNK        -0.1150 
     11 C11        -1.0656  -17.4233  -50.6628 C.ar      23 UNK        -0.0193 
     12 C12        -0.5714  -18.7154  -50.4666 C.ar      23 UNK        -0.1150 
     13 C13         0.7541  -19.0289  -50.7804 C.ar      23 UNK        -0.0193 
     14 C14         1.5911  -18.0430  -51.3061 C.ar      23 UNK        -0.1150 
     15 C15         1.2918  -20.4287  -50.5388 C.3       23 UNK        -0.0205 
     16 S16         2.3517  -20.4987  -49.0582 S.3       23 UNK        -0.2404 
     17 C17         1.1802  -20.1223  -47.7087 C.3       23 UNK        -0.0398 
     18 CA          0.6480  -21.3993  -47.0196 C.3       11 UNK         0.1400 
     19 N           0.1578  -21.1391  -45.6663 N.am      11 UNK        -0.5000 
     20 C          -0.0204  -22.0906  -44.7394 C.2       10 UNK         0.5000 
     21 O           0.2475  -23.2788  -44.9189 O.2       10 UNK        -0.5000 
     22 CA         -0.6482  -21.6485  -43.4060 C.3       10 UNK         0.1400 
     23 CB          0.4304  -21.2204  -42.4012 C.3       10 UNK        -0.1800 
     24 N          -1.6348  -20.5779  -43.5780 N.am      10 UNK        -0.5000 
     25 C          -2.8280  -20.7841  -44.1552 C.2       9 UNK         0.5000 
     26 O          -3.1767  -21.8669  -44.6248 O.2       9 UNK        -0.5000 
     27 CA         -3.7910  -19.5917  -44.2493 C.3       9 UNK         0.1400 
     28 CB         -4.4577  -19.3270  -42.8912 C.3       9 UNK        -0.1800 
     29 N          -3.1890  -18.3536  -44.7351 N.am      9 UNK        -0.5000 
     30 C          -2.5181  -18.1719  -45.8784 C.2       8 UNK         0.5000 
     31 O          -2.1714  -19.0825  -46.6306 O.2       8 UNK        -0.5000 
     32 CA         -2.1822  -16.7160  -46.2456 C.3       8 UNK         0.1400 
     33 CB         -3.4502  -15.9505  -46.6752 C.3       8 UNK        -0.1800 
     34 N          -1.4430  -16.0116  -45.1928 N.am      8 UNK        -0.5000 
     35 C          -1.8572  -15.6455  -43.9700 C.2       7 UNK         0.5000 
     36 O          -3.0160  -15.7739  -43.5692 O.2       7 UNK        -0.5000 
     37 CA         -0.7714  -15.0961  -43.0239 C.3       7 UNK         0.1400 
     38 CB         -1.2088  -15.0831  -41.5448 C.3       7 UNK        -0.1800 
     39 N           0.5140  -15.7871  -43.1654 N.am      7 UNK        -0.5000 
     40 C           0.7582  -17.0997  -43.0189 C.2       6 UNK         0.5000 
     41 O          -0.1166  -17.9361  -42.7834 O.2       6 UNK        -0.5000 
     42 CA          2.2162  -17.5742  -43.1543 C.3       6 UNK         0.1400 
     43 CB          2.4407  -18.2974  -44.4899 C.3       6 UNK        -0.1800 
     44 N           3.1921  -16.4903  -43.0061 N.am      6 UNK        -0.5000 
     45 C           4.3772  -16.6197  -42.3919 C.2       5 UNK         0.5000 
     46 O           4.8022  -17.6846  -41.9413 O.2       5 UNK        -0.5000 
     47 CA          5.2335  -15.3449  -42.2288 C.3       5 UNK         0.1400 
     48 CB          6.2183  -15.2116  -43.4007 C.3       5 UNK        -0.1800 
     49 N           4.4426  -14.1167  -42.1352 N.am      5 UNK        -0.5000 
     50 C           3.5439  -13.8388  -41.1808 C.2       4 UNK         0.5000 
     51 O           3.3878  -14.5325  -40.1754 O.2       4 UNK        -0.5000 
     52 CA          2.6428  -12.5996  -41.3844 C.3       4 UNK         0.1400 
     53 CB          2.9794  -11.5169  -40.3465 C.3       4 UNK        -0.1800 
     54 N           2.6575  -11.9836  -42.7200 N.am      4 UNK        -0.5000 
     55 C           2.3840  -12.5796  -43.8881 C.2       3 UNK         0.5000 
     56 O           2.2245  -13.7964  -44.0155 O.2       3 UNK        -0.5000 
     57 CA          2.3395  -11.6605  -45.1234 C.3       3 UNK         0.1400 
     58 CB          3.7647  -11.3760  -45.6227 C.3       3 UNK        -0.1800 
     59 N           1.5752  -12.2483  -46.2218 N.am      3 UNK        -0.5000 
     60 C           0.2599  -12.5078  -46.2149 C.2       2 UNK         0.5000 
     61 O          -0.5025  -12.1673  -45.3097 O.2       2 UNK        -0.5000 
     62 CA         -0.2953  -13.2898  -47.4236 C.3       2 UNK         0.1400 
     63 CB         -0.9463  -12.3325  -48.4326 C.3       2 UNK        -0.1800 
     64 N           0.7206  -14.0875  -48.1160 N.am      2 UNK        -0.5000 
     65 C           1.3553  -15.1489  -47.6057 C.2       1 UNK         0.5000 
     66 O           1.0855  -15.6143  -46.4945 O.2       1 UNK        -0.5000 
     67 C          -0.4329  -22.1024  -47.8613 C.2       11 UNK         0.5000 
     68 O          -0.1261  -23.0764  -48.5464 O.2       11 UNK        -0.5000 
     69 N          -1.6858  -21.6332  -47.7631 N.am      12 UNK        -0.5000 
     70 CA         -2.8473  -22.2438  -48.4085 C.3       12 UNK         0.1400 
     71 CB         -4.0900  -21.3690  -48.1885 C.3       12 UNK        -0.1800 
     72 C          -3.0914  -23.6878  -47.9358 C.2       12 UNK         0.5000 
     73 O          -3.3553  -24.5525  -48.7697 O.2       12 UNK        -0.5000 
     74 N          -2.9443  -23.9358  -46.6264 N.am      13 UNK        -0.5000 
     75 CA         -3.0020  -25.2662  -46.0194 C.3       13 UNK         0.1400 
     76 CB         -2.9701  -25.1438  -44.4889 C.3       13 UNK        -0.1800 
     77 C          -1.8808  -26.1958  -46.5183 C.2       13 UNK         0.5000 
     78 O          -2.1640  -27.3386  -46.8788 O.2       13 UNK        -0.5000 
     79 N          -0.6427  -25.6821  -46.5848 N.am      14 UNK        -0.5000 
     80 CA          0.5216  -26.3897  -47.1310 C.3       14 UNK         0.1400 
     81 CB          1.7936  -25.5689  -46.8711 C.3       14 UNK        -0.1800 
     82 C           0.3801  -26.7211  -48.6308 C.2       14 UNK         0.5000 
     83 O           0.8421  -27.7746  -49.0693 O.2       14 UNK        -0.5000 
     84 N          -0.3026  -25.8417  -49.3747 N.am      15 UNK        -0.5000 
     85 CA         -0.6828  -26.0121  -50.7777 C.3       15 UNK         0.1400 
     86 CB         -0.9025  -24.6216  -51.3977 C.3       15 UNK        -0.1800 
     87 C          -1.9187  -26.9190  -50.9838 C.2       15 UNK         0.5000 
     88 O          -2.3803  -27.0429  -52.1183 O.2       15 UNK        -0.5000 
     89 N          -2.4333  -27.5327  -49.9066 N.am      16 UNK        -0.5000 
     90 CA         -3.5757  -28.4511  -49.8593 C.3       16 UNK         0.1400 
     91 CB         -3.3064  -29.7252  -50.6884 C.3       16 UNK        -0.1800 
     92 C          -4.9132  -27.7643  -50.2017 C.2       16 UNK         0.5000 
     93 O          -5.7291  -28.3227  -50.9373 O.2       16 UNK        -0.5000 
     94 N          -5.1088  -26.5646  -49.6366 N.am      17 UNK        -0.5000 
     95 CA         -6.2834  -25.6962  -49.7535 C.3       17 UNK         0.1400 
     96 CB         -7.5454  -26.3753  -49.1804 C.3       17 UNK        -0.1800 
     97 C          -6.4723  -25.1436  -51.1792 C.2       17 UNK         0.5000 
     98 O          -7.5999  -25.0745  -51.6717 O.2       17 UNK        -0.5000 
     99 N          -5.3566  -24.7534  -51.8147 N.am      18 UNK        -0.5000 
    100 CA        -5.3275  -24.1498  -53.1496 C.3       18 UNK         0.1400 
    101 CB        -3.8739  -24.0245  -53.6307 C.3       18 UNK        -0.1800 
    102 C         -6.0357  -22.7834  -53.1896 C.2       18 UNK         0.5000 
    103 O         -6.8638  -22.5555  -54.0710 O.2       18 UNK        -0.5000 
    104 N         -5.7022  -21.9203  -52.2163 N.am      19 UNK        -0.5000 
    105 CA        -6.3001  -20.6223  -51.8586 C.3       19 UNK         0.1400 
    106 CB        -7.7361  -20.8284  -51.3443 C.3       19 UNK        -0.1800 
    107 C         -6.2713  -19.5032  -52.9244 C.2       19 UNK         0.5000 
    108 O         -6.2765  -18.3298  -52.5498 O.2       19 UNK        -0.5000 
    109 N         -6.2395  -19.8559  -54.2145 N.am      20 UNK        -0.5000 
    110 CA        -6.3807  -18.9741  -55.3797 C.3       20 UNK         0.1400 
    111 CB        -6.3296  -19.8345  -56.6516 C.3       20 UNK        -0.1800 
    112 C         -5.3649  -17.8180  -55.4755 C.2       20 UNK         0.5000 
    113 O         -5.6579  -16.8112  -56.1214 O.2       20 UNK        -0.5000 
    114 N         -4.2038  -17.9685  -54.8255 N.am      21 UNK        -0.5000 
    115 CA        -3.1760  -16.9334  -54.7067 C.3       21 UNK         0.1400 
    116 CB        -1.8694  -17.5869  -54.2303 C.3       21 UNK        -0.1800 
    117 C         -3.5783  -15.7630  -53.7822 C.2       21 UNK         0.5000 
    118 O         -3.0078  -14.6794  -53.9158 O.2       21 UNK        -0.5000 
    119 N         -4.5399  -15.9933  -52.8775 N.am      22 UNK        -0.5000 
    120 CA        -5.0636  -15.0057  -51.9180 C.3       22 UNK         0.1400 
    121 C         -6.5890  -14.7656  -52.0817 C.2       22 UNK         0.5000 
    122 N         -7.3752  -15.7440  -52.5133 N.am      22 UNK        -0.7600 
    123 O         -7.0683  -13.6651  -51.8228 O.2       22 UNK        -0.5000 
    124 C124       -4.7374  -15.3953  -50.4526 C.3       23 UNK        -0.0398 
    125 S125       -2.9463  -15.3786  -50.1158 S.3       23 UNK        -0.2404 
    126 C126       -2.5301  -17.1439  -50.3278 C.3       23 UNK        -0.0205 
    127 H127        3.8896  -17.7677  -49.6731 H         1 UNK         0.0600 
    128 H128        5.0921  -18.7979  -48.9227 H         1 UNK         0.0600 
    129 H129        5.5546  -17.1976  -49.4986 H         1 UNK         0.0600 
    130 H130        3.2249  -16.0262  -46.5259 H         1 UNK         0.3000 
    131 H131        2.0330  -16.6354  -48.9500 H         1 UNK         0.0600 
    132 H132        3.5985  -13.9849  -48.9765 H         1 UNK         0.0800 
    133 H133        4.0319  -15.3485  -49.9438 H         1 UNK         0.0800 
    134 H134        1.6831  -15.3069  -52.9710 H         1 UNK         0.0800 
    135 H135        3.0582  -16.0419  -52.1818 H         1 UNK         0.0800 
    136 H136       -0.5676  -15.4421  -51.3685 H         1 UNK         0.1150 
    137 H137       -1.2208  -19.4800  -50.0629 H         1 UNK         0.1150 
    138 H138        2.6156  -18.2881  -51.5478 H         1 UNK         0.1150 
    139 H139        0.4777  -21.1488  -50.4524 H         1 UNK         0.0800 
    140 H140        1.8782  -20.7424  -51.4034 H         1 UNK         0.0800 
    141 H141        1.7419  -19.5264  -46.9903 H         1 UNK         0.0800 
    142 H142        0.3697  -19.4762  -48.0447 H         1 UNK         0.0800 
    143 H143        1.4852  -22.0945  -46.9226 H         1 UNK         0.0600 
    144 H144       -0.1651  -20.2040  -45.4646 H         1 UNK         0.3000 
    145 H145       -1.1625  -22.5148  -42.9842 H         1 UNK         0.0600 
    146 H146       -0.0110  -20.9249  -41.4493 H         1 UNK         0.0600 
    147 H147        1.1202  -22.0409  -42.2000 H         1 UNK         0.0600 
    148 H148        1.0204  -20.3840  -42.7702 H         1 UNK         0.0600 
    149 H149       -1.3868  -19.6541  -43.2398 H         1 UNK         0.3000 
    150 H150       -4.5731  -19.8638  -44.9606 H         1 UNK         0.0600 
    151 H151       -4.9292  -20.2305  -42.5022 H         1 UNK         0.0600 
    152 H152       -5.2341  -18.5663  -42.9752 H         1 UNK         0.0600 
    153 H153       -3.7348  -18.9857  -42.1488 H         1 UNK         0.0600 
    154 H154       -3.3602  -17.5201  -44.1786 H         1 UNK         0.3000 
    155 H155       -1.5140  -16.7530  -47.1078 H         1 UNK         0.0600 
    156 H156       -3.2112  -14.9461  -47.0222 H         1 UNK         0.0600 
    157 H157       -4.1775  -15.8590  -45.8691 H         1 UNK         0.0600 
    158 H158       -3.9530  -16.4662  -47.4935 H         1 UNK         0.0600 
    159 H159       -0.4570  -15.8761  -45.4066 H         1 UNK         0.3000 
    160 H160       -0.5989  -14.0627  -43.3257 H         1 UNK         0.0600 
    161 H161       -1.4473  -16.0849  -41.1858 H         1 UNK         0.0600 
    162 H162       -2.0956  -14.4642  -41.4039 H         1 UNK         0.0600 
    163 H163       -0.4250  -14.6759  -40.9062 H         1 UNK         0.0600 
    164 H164        1.2684  -15.1735  -43.4627 H         1 UNK         0.3000 
    165 H165        2.3637  -18.2964  -42.3487 H         1 UNK         0.0600 
    166 H166        2.2721  -17.6336  -45.3348 H         1 UNK         0.0600 
    167 H167        3.4555  -18.6882  -44.5659 H         1 UNK         0.0600 
    168 H168        1.7602  -19.1396  -44.5968 H         1 UNK         0.0600 
    169 H169        2.9279  -15.5754  -43.3534 H         1 UNK         0.3000 
    170 H170        5.8063  -15.4458  -41.3047 H         1 UNK         0.0600 
    171 H171        6.8469  -16.0991  -43.4851 H         1 UNK         0.0600 
    172 H172        5.6973  -15.0888  -44.3515 H         1 UNK         0.0600 
    173 H173        6.8808  -14.3565  -43.2660 H         1 UNK         0.0600 
    174 H174        4.4892  -13.4920  -42.9260 H         1 UNK         0.3000 
    175 H175        1.6192  -12.9336  -41.2034 H         1 UNK         0.0600 
    176 H176        3.9814  -11.1139  -40.4995 H         1 UNK         0.0600 
    177 H177        2.2721  -10.6888  -40.3946 H         1 UNK         0.0600 
    178 H178        2.9376  -11.9156  -39.3319 H         1 UNK         0.0600 
    179 H179        2.8183  -10.9865  -42.7278 H         1 UNK         0.3000 
    180 H180        1.8634  -10.7193  -44.8415 H         1 UNK         0.0600 
    181 H181        4.2778  -12.2923  -45.9186 H         1 UNK         0.0600 
    182 H182        4.3668  -10.8983  -44.8488 H         1 UNK         0.0600 
    183 H183        3.7549  -10.7050  -46.4819 H         1 UNK         0.0600 
    184 H184        2.1112  -12.5853  -47.0057 H         1 UNK         0.3000 
    185 H185       -1.0636  -13.9679  -47.0528 H         1 UNK         0.0600 
    186 H186       -1.3909  -12.8782  -49.2647 H         1 UNK         0.0600 
    187 H187       -1.7421  -11.7526  -47.9635 H         1 UNK         0.0600 
    188 H188       -0.2223  -11.6276  -48.8431 H         1 UNK         0.0600 
    189 H189        0.9732  -13.7854  -49.0490 H         1 UNK         0.3000 
    190 H190       -1.8621  -20.7986  -47.2076 H         1 UNK         0.3000 
    191 H191       -2.6459  -22.2780  -49.4809 H         1 UNK         0.0600 
    192 H192       -3.9438  -20.3683  -48.5958 H         1 UNK         0.0600 
    193 H193       -4.9637  -21.7978  -48.6810 H         1 UNK         0.0600 
    194 H194       -4.3265  -21.2660  -47.1292 H         1 UNK         0.0600 
    195 H195       -2.7936  -23.1551  -45.9931 H         1 UNK         0.3000 
    196 H196       -3.9556  -25.7173  -46.3018 H         1 UNK         0.0600 
    197 H197       -3.0222  -26.1256  -44.0166 H         1 UNK         0.0600 
    198 H198       -3.8166  -24.5623  -44.1233 H         1 UNK         0.0600 
    199 H199       -2.0574  -24.6594  -44.1415 H         1 UNK         0.0600 
    200 H200       -0.4801  -24.7422  -46.2402 H         1 UNK         0.3000 
    201 H201        0.6145  -27.3357  -46.5939 H         1 UNK         0.0600 
    202 H202        1.9378  -25.3920  -45.8052 H         1 UNK         0.0600 
    203 H203        1.7582  -24.6002  -47.3692 H         1 UNK         0.0600 
    204 H204        2.6776  -26.0930  -47.2362 H         1 UNK         0.0600 
    205 H205       -0.5743  -24.9633  -48.9433 H         1 UNK         0.3000 
    206 H206        0.1487  -26.4848  -51.3040 H         1 UNK         0.0600 
    207 H207       -0.0268  -23.9863  -51.2628 H         1 UNK         0.0600 
    208 H208       -1.0850  -24.6935  -52.4702 H         1 UNK         0.0600 
    209 H209       -1.7558  -24.1128  -50.9500 H         1 UNK         0.0600 
    210 H210       -2.0093  -27.3391  -49.0071 H         1 UNK         0.3000 
    211 H211       -3.6624  -28.7617  -48.8173 H         1 UNK         0.0600 
    212 H212       -3.2729  -29.5177  -51.7581 H         1 UNK         0.0600 
    213 H213       -4.0891  -30.4671  -50.5262 H         1 UNK         0.0600 
    214 H214       -2.3601  -30.1864  -50.4056 H         1 UNK         0.0600 
    215 H215       -4.3333  -26.1453  -49.1302 H         1 UNK         0.3000 
    216 H216       -6.0774  -24.8280  -49.1261 H         1 UNK         0.0600 
    217 H217       -7.3713  -26.7400  -48.1681 H         1 UNK         0.0600 
    218 H218       -7.8686  -27.2187  -49.7909 H         1 UNK         0.0600 
    219 H219       -8.3776  -25.6721  -49.1319 H         1 UNK         0.0600 
    220 H220       -4.4710  -24.8808  -51.3462 H         1 UNK         0.3000 
    221 H221       -5.8546  -24.8197  -53.8323 H         1 UNK         0.0600 
    222 H222       -3.2782  -23.3964  -52.9678 H         1 UNK         0.0600 
    223 H223       -3.3942  -25.0015  -53.6889 H         1 UNK         0.0600 
    224 H224       -3.8295  -23.5838  -54.6276 H         1 UNK         0.0600 
    225 H225       -4.9796  -22.2294  -51.5831 H         1 UNK         0.3000 
    226 H226       -5.7060  -20.2494  -51.0227 H         1 UNK         0.0600 
    227 H227       -7.7592  -21.5325  -50.5123 H         1 UNK         0.0600 
    228 H228       -8.1639  -19.8905  -50.9876 H         1 UNK         0.0600 
    229 H229       -8.3938  -21.2117  -52.1252 H         1 UNK         0.0600 
    230 H230       -6.3088  -20.8530  -54.4011 H         1 UNK         0.3000 
    231 H231       -7.3711  -18.5193  -55.3165 H         1 UNK         0.0600 
    232 H232       -6.4672  -19.2246  -57.5456 H         1 UNK         0.0600 
    233 H233       -7.1174  -20.5882  -56.6499 H         1 UNK         0.0600 
    234 H234       -5.3730  -20.3495  -56.7479 H         1 UNK         0.0600 
    235 H235       -4.0453  -18.8317  -54.3275 H         1 UNK         0.3000 
    236 H236       -2.9987  -16.5125  -55.6987 H         1 UNK         0.0600 
    237 H237       -1.5029  -18.3098  -54.9590 H         1 UNK         0.0600 
    238 H238       -1.0841  -16.8428  -54.0898 H         1 UNK         0.0600 
    239 H239       -2.0020  -18.1081  -53.2826 H         1 UNK         0.0600 
    240 H240       -4.9909  -16.9012  -52.8617 H         1 UNK         0.3000 
    241 H241       -4.5977  -14.0365  -52.1062 H         1 UNK         0.0600 
    242 H242       -7.0140  -16.6859  -52.6408 H         1 UNK         0.3800 
    243 H243       -8.3614  -15.5707  -52.6233 H         1 UNK         0.3800 
    244 H244       -5.1529  -16.3746  -50.2083 H         1 UNK         0.0800 
    245 H245       -5.1973  -14.6893  -49.7587 H         1 UNK         0.0800 
    246 H246       -2.8027  -17.6708  -49.4120 H         1 UNK         0.0800 
    247 H247       -3.1415  -17.5714  -51.1220 H         1 UNK         0.0800 
@<TRIPOS>BOND
     1    1    2 1    
     2    1  127 1    
     3    1  128 1    
     4    1  129 1    
     5    2    3 2    
     6    2    4 am   BACKBONE|DICT|INTERRES
     7    4    5 1    
     8    4  130 1    
     9    5    6 1    
    10    5   65 1    
    11    5  131 1    
    12    6    7 1    
    13    6  132 1    
    14    6  133 1    
    15    7    8 1    
    16    8    9 1    
    17    8  134 1    
    18    8  135 1    
    19    9   10 ar   
    20    9   14 ar   
    21   10   11 ar   
    22   10  136 1    
    23   11   12 ar   
    24   11  126 1    
    25   12   13 ar   
    26   12  137 1    
    27   13   14 ar   
    28   13   15 1    
    29   14  138 1    
    30   15   16 1    
    31   15  139 1    
    32   15  140 1    
    33   16   17 1    
    34   17   18 1    
    35   17  141 1    
    36   17  142 1    
    37   18   19 1    
    38   18   67 1    
    39   18  143 1    
    40   19   20 am   BACKBONE|DICT|INTERRES
    41   19  144 1    
    42   20   21 2    
    43   20   22 1    
    44   22   23 1    
    45   22   24 1    
    46   22  145 1    
    47   23  146 1    
    48   23  147 1    
    49   23  148 1    
    50   24   25 am   BACKBONE|DICT|INTERRES
    51   24  149 1    
    52   25   26 2    
    53   25   27 1    
    54   27   28 1    
    55   27   29 1    
    56   27  150 1    
    57   28  151 1    
    58   28  152 1    
    59   28  153 1    
    60   29   30 am   BACKBONE|DICT|INTERRES
    61   29  154 1    
    62   30   31 2    
    63   30   32 1    
    64   32   33 1    
    65   32   34 1    
    66   32  155 1    
    67   33  156 1    
    68   33  157 1    
    69   33  158 1    
    70   34   35 am   BACKBONE|DICT|INTERRES
    71   34  159 1    
    72   35   36 2    
    73   35   37 1    
    74   37   38 1    
    75   37   39 1    
    76   37  160 1    
    77   38  161 1    
    78   38  162 1    
    79   38  163 1    
    80   39   40 am   BACKBONE|DICT|INTERRES
    81   39  164 1    
    82   40   41 2    
    83   40   42 1    
    84   42   43 1    
    85   42   44 1    
    86   42  165 1    
    87   43  166 1    
    88   43  167 1    
    89   43  168 1    
    90   44   45 am   BACKBONE|DICT|INTERRES
    91   44  169 1    
    92   45   46 2    
    93   45   47 1    
    94   47   48 1    
    95   47   49 1    
    96   47  170 1    
    97   48  171 1    
    98   48  172 1    
    99   48  173 1    
   100   49   50 am   BACKBONE|DICT|INTERRES
   101   49  174 1    
   102   50   51 2    
   103   50   52 1    
   104   52   53 1    
   105   52   54 1    
   106   52  175 1    
   107   53  176 1    
   108   53  177 1    
   109   53  178 1    
   110   54   55 am   BACKBONE|DICT|INTERRES
   111   54  179 1    
   112   55   56 2    
   113   55   57 1    
   114   57   58 1    
   115   57   59 1    
   116   57  180 1    
   117   58  181 1    
   118   58  182 1    
   119   58  183 1    
   120   59   60 am   BACKBONE|DICT|INTERRES
   121   59  184 1    
   122   60   61 2    
   123   60   62 1    
   124   62   63 1    
   125   62   64 1    
   126   62  185 1    
   127   63  186 1    
   128   63  187 1    
   129   63  188 1    
   130   64   65 am   BACKBONE|DICT|INTERRES
   131   64  189 1    
   132   65   66 2    
   133   67   68 2    
   134   67   69 am   BACKBONE|DICT|INTERRES
   135   69   70 1    
   136   69  190 1    
   137   70   71 1    
   138   70   72 1    
   139   70  191 1    
   140   71  192 1    
   141   71  193 1    
   142   71  194 1    
   143   72   73 2    
   144   72   74 am   BACKBONE|DICT|INTERRES
   145   74   75 1    
   146   74  195 1    
   147   75   76 1    
   148   75   77 1    
   149   75  196 1    
   150   76  197 1    
   151   76  198 1    
   152   76  199 1    
   153   77   78 2    
   154   77   79 am   BACKBONE|DICT|INTERRES
   155   79   80 1    
   156   79  200 1    
   157   80   81 1    
   158   80   82 1    
   159   80  201 1    
   160   81  202 1    
   161   81  203 1    
   162   81  204 1    
   163   82   83 2    
   164   82   84 am   BACKBONE|DICT|INTERRES
   165   84   85 1    
   166   84  205 1    
   167   85   86 1    
   168   85   87 1    
   169   85  206 1    
   170   86  207 1    
   171   86  208 1    
   172   86  209 1    
   173   87   88 2    
   174   87   89 am   BACKBONE|DICT|INTERRES
   175   89   90 1    
   176   89  210 1    
   177   90   91 1    
   178   90   92 1    
   179   90  211 1    
   180   91  212 1    
   181   91  213 1    
   182   91  214 1    
   183   92   93 2    
   184   92   94 am   BACKBONE|DICT|INTERRES
   185   94   95 1    
   186   94  215 1    
   187   95   96 1    
   188   95   97 1    
   189   95  216 1    
   190   96  217 1    
   191   96  218 1    
   192   96  219 1    
   193   97   98 2    
   194   97   99 am   BACKBONE|DICT|INTERRES
   195   99  100 1    
   196   99  220 1    
   197  100  101 1    
   198  100  102 1    
   199  100  221 1    
   200  101  222 1    
   201  101  223 1    
   202  101  224 1    
   203  102  103 2    
   204  102  104 am   BACKBONE|DICT|INTERRES
   205  104  105 1    
   206  104  225 1    
   207  105  106 1    
   208  105  107 1    
   209  105  226 1    
   210  106  227 1    
   211  106  228 1    
   212  106  229 1    
   213  107  108 2    
   214  107  109 am   BACKBONE|DICT|INTERRES
   215  109  110 1    
   216  109  230 1    
   217  110  111 1    
   218  110  112 1    
   219  110  231 1    
   220  111  232 1    
   221  111  233 1    
   222  111  234 1    
   223  112  113 2    
   224  112  114 am   BACKBONE|DICT|INTERRES
   225  114  115 1    
   226  114  235 1    
   227  115  116 1    
   228  115  117 1    
   229  115  236 1    
   230  116  237 1    
   231  116  238 1    
   232  116  239 1    
   233  117  118 2    
   234  117  119 am   BACKBONE|DICT|INTERRES
   235  119  120 1    
   236  119  240 1    
   237  120  121 1    
   238  120  124 1    
   239  120  241 1    
   240  121  122 am   BACKBONE|DICT|INTERRES
   241  121  123 2    
   242  122  242 1    
   243  122  243 1    
   244  124  125 1    
   245  124  244 1    
   246  124  245 1    
   247  125  126 1    
   248  126  246 1    
   249  126  247 1    
@<TRIPOS>SUBSTRUCTURE
     1 UNK         1 GROUP             0       ****    0 ROOT    
