@<TRIPOS>MOLECULE
3R540
247   249    1
SMALL
USER_CHARGES


@<TRIPOS>ATOM
      1 CA         -2.1619  -12.9044  -46.1572 C.3       0 UNK        -0.1800 
      2 C          -0.8867  -12.4753  -46.8672 C.2       0 UNK         0.5000 
      3 O          -0.4385  -11.3437  -46.6862 O.2       0 UNK        -0.5000 
      4 N          -0.2912  -13.3730  -47.6650 N.am      1 UNK        -0.5000 
      5 CA          0.9121  -13.1184  -48.4734 C.3       1 UNK         0.1400 
      6 C6          1.1820  -14.2790  -49.4641 C.3       23 UNK        -0.0398 
      7 S7          1.9137  -13.7060  -51.0347 S.3       23 UNK        -0.2404 
      8 C8          2.7094  -15.2279  -51.6520 C.3       23 UNK        -0.0205 
      9 C9          1.7740  -16.4314  -51.6486 C.ar      23 UNK        -0.0193 
     10 C10         0.5460  -16.3816  -52.3157 C.ar      23 UNK        -0.1150 
     11 C11        -0.3339  -17.4664  -52.2704 C.ar      23 UNK        -0.0193 
     12 C12         0.0350  -18.6200  -51.5720 C.ar      23 UNK        -0.1150 
     13 C13         1.2705  -18.6929  -50.9207 C.ar      23 UNK        -0.0193 
     14 C14         2.1335  -17.5946  -50.9619 C.ar      23 UNK        -0.1150 
     15 C15         1.6838  -19.9573  -50.1793 C.3       23 UNK        -0.0205 
     16 S16         1.6609  -19.7386  -48.3709 S.3       23 UNK        -0.2404 
     17 C17        -0.1273  -19.6539  -48.0288 C.3       23 UNK        -0.0398 
     18 CA         -0.6700  -20.9707  -47.4243 C.3       11 UNK         0.1400 
     19 N          -0.2658  -21.1670  -46.0266 N.am      11 UNK        -0.5000 
     20 C          -0.5207  -22.2709  -45.3069 C.2       10 UNK         0.5000 
     21 O          -1.0851  -23.2664  -45.7595 O.2       10 UNK        -0.5000 
     22 CA         -0.1417  -22.2407  -43.8153 C.3       10 UNK         0.1400 
     23 CB          1.3681  -22.4441  -43.6229 C.3       10 UNK        -0.1800 
     24 N          -0.5693  -21.0072  -43.1549 N.am      10 UNK        -0.5000 
     25 C          -1.8455  -20.6156  -43.0273 C.2       9 UNK         0.5000 
     26 O          -2.8068  -21.2815  -43.4082 O.2       9 UNK        -0.5000 
     27 CA         -2.0902  -19.2215  -42.4250 C.3       9 UNK         0.1400 
     28 CB         -2.0659  -19.2668  -40.8898 C.3       9 UNK        -0.1800 
     29 N          -1.1236  -18.2371  -42.9089 N.am      9 UNK        -0.5000 
     30 C          -1.0428  -17.8165  -44.1793 C.2       8 UNK         0.5000 
     31 O          -1.8053  -18.1803  -45.0755 O.2       8 UNK        -0.5000 
     32 CA          0.1233  -16.8691  -44.5078 C.3       8 UNK         0.1400 
     33 CB         -0.2209  -15.4292  -44.1003 C.3       8 UNK        -0.1800 
     34 N           1.3668  -17.2900  -43.8585 N.am      8 UNK        -0.5000 
     35 C           2.0333  -18.4081  -44.1886 C.2       7 UNK         0.5000 
     36 O           1.6731  -19.1685  -45.0850 O.2       7 UNK        -0.5000 
     37 CA          3.2718  -18.7781  -43.3482 C.3       7 UNK         0.1400 
     38 CB          4.5396  -18.1389  -43.9321 C.3       7 UNK        -0.1800 
     39 N           3.1472  -18.4041  -41.9404 N.am      7 UNK        -0.5000 
     40 C           2.2018  -18.8601  -41.1074 C.2       6 UNK         0.5000 
     41 O           1.3817  -19.7226  -41.4202 O.2       6 UNK        -0.5000 
     42 CA          2.1236  -18.2141  -39.7100 C.3       6 UNK         0.1400 
     43 CB          2.7754  -19.1280  -38.6620 C.3       6 UNK        -0.1800 
     44 N           2.7229  -16.8766  -39.6192 N.am      6 UNK        -0.5000 
     45 C           2.3435  -15.8019  -40.3248 C.2       5 UNK         0.5000 
     46 O           1.4812  -15.8309  -41.2062 O.2       5 UNK        -0.5000 
     47 CA          3.1103  -14.4989  -40.0346 C.3       5 UNK         0.1400 
     48 CB          4.3789  -14.4290  -40.8963 C.3       5 UNK        -0.1800 
     49 N           2.2947  -13.3064  -40.2734 N.am      5 UNK        -0.5000 
     50 C           1.2468  -12.9512  -39.5144 C.2       4 UNK         0.5000 
     51 O           0.8805  -13.5941  -38.5287 O.2       4 UNK        -0.5000 
     52 CA          0.4943  -11.6522  -39.8693 C.3       4 UNK         0.1400 
     53 CB          0.6947  -10.5963  -38.7693 C.3       4 UNK        -0.1800 
     54 N           0.8921  -11.0633  -41.1478 N.am      4 UNK        -0.5000 
     55 C           0.4325  -11.4441  -42.3453 C.2       3 UNK         0.5000 
     56 O          -0.3698  -12.3643  -42.5075 O.2       3 UNK        -0.5000 
     57 CA          0.9398  -10.6649  -43.5766 C.3       3 UNK         0.1400 
     58 CB          1.7965   -9.4211  -43.2445 C.3       3 UNK        -0.1800 
     59 N           1.6441  -11.5420  -44.5125 N.am      3 UNK        -0.5000 
     60 C           2.7424  -12.2738  -44.2684 C.2       2 UNK         0.5000 
     61 O           3.3337  -12.2652  -43.1876 O.2       2 UNK        -0.5000 
     62 CA          3.2596  -13.1745  -45.4114 C.3       2 UNK         0.1400 
     63 CB          3.7491  -14.5346  -44.8872 C.3       2 UNK        -0.1800 
     64 N           2.2298  -13.4085  -46.4260 N.am      2 UNK        -0.5000 
     65 C           2.1612  -12.8028  -47.6187 C.2       1 UNK         0.5000 
     66 O           3.0020  -12.0035  -48.0316 O.2       1 UNK        -0.5000 
     67 C          -2.1983  -21.0466  -47.6034 C.2       11 UNK         0.5000 
     68 O          -2.6561  -21.6880  -48.5499 O.2       11 UNK        -0.5000 
     69 N          -2.9556  -20.4201  -46.6917 N.am      12 UNK        -0.5000 
     70 CA         -4.4177  -20.4572  -46.6746 C.3       12 UNK         0.1400 
     71 CB         -4.9517  -19.4490  -45.6461 C.3       12 UNK        -0.1800 
     72 C          -4.9692  -21.8697  -46.4074 C.2       12 UNK         0.5000 
     73 O          -5.8510  -22.3202  -47.1387 O.2       12 UNK        -0.5000 
     74 N          -4.4159  -22.5562  -45.3973 N.am      13 UNK        -0.5000 
     75 CA         -4.7824  -23.9206  -45.0085 C.3       13 UNK         0.1400 
     76 CB         -4.0768  -24.2860  -43.6939 C.3       13 UNK        -0.1800 
     77 C          -4.4740  -24.9657  -46.0960 C.2       13 UNK         0.5000 
     78 O          -5.2827  -25.8668  -46.3206 O.2       13 UNK        -0.5000 
     79 N          -3.3273  -24.8099  -46.7705 N.am      14 UNK        -0.5000 
     80 CA         -2.9022  -25.6436  -47.8962 C.3       14 UNK         0.1400 
     81 CB         -1.3791  -25.5127  -48.0572 C.3       14 UNK        -0.1800 
     82 C          -3.6050  -25.2891  -49.2217 C.2       14 UNK         0.5000 
     83 O          -3.4167  -26.0065  -50.2050 O.2       14 UNK        -0.5000 
     84 N          -4.3478  -24.1722  -49.2511 N.am      15 UNK        -0.5000 
     85 CA         -5.0045  -23.5704  -50.4149 C.3       15 UNK         0.1400 
     86 CB         -6.1889  -24.4390  -50.8853 C.3       15 UNK        -0.1800 
     87 C          -4.0041  -23.2594  -51.5455 C.2       15 UNK         0.5000 
     88 O          -4.2655  -23.5768  -52.7071 O.2       15 UNK        -0.5000 
     89 N          -2.8664  -22.6554  -51.1738 N.am      16 UNK        -0.5000 
     90 CA         -1.7040  -22.3566  -52.0193 C.3       16 UNK         0.1400 
     91 CB         -2.0593  -21.3196  -53.1047 C.3       16 UNK        -0.1800 
     92 C          -1.0330  -23.6250  -52.5899 C.2       16 UNK         0.5000 
     93 O          -0.5403  -23.6080  -53.7174 O.2       16 UNK        -0.5000 
     94 N          -1.0362  -24.7008  -51.7878 N.am      17 UNK        -0.5000 
     95 CA         -0.6096  -26.0633  -52.1244 C.3       17 UNK         0.1400 
     96 CB          0.8987  -26.1226  -52.4467 C.3       17 UNK        -0.1800 
     97 C          -1.5055  -26.6713  -53.2218 C.2       17 UNK         0.5000 
     98 O          -1.0097  -27.1284  -54.2535 O.2       17 UNK        -0.5000 
     99 N          -2.8208  -26.6427  -52.9591 N.am      18 UNK        -0.5000 
    100 CA        -3.9154  -27.0970  -53.8213 C.3       18 UNK         0.1400 
    101 CB        -3.8899  -28.6326  -53.9689 C.3       18 UNK        -0.1800 
    102 C         -3.9585  -26.3541  -55.1740 C.2       18 UNK         0.5000 
    103 O         -4.0531  -26.9840  -56.2294 O.2       18 UNK        -0.5000 
    104 N         -3.8954  -25.0195  -55.1090 N.am      19 UNK        -0.5000 
    105 CA        -3.9509  -24.1063  -56.2506 C.3       19 UNK         0.1400 
    106 CB        -2.5483  -23.5396  -56.5306 C.3       19 UNK        -0.1800 
    107 C         -5.0061  -23.0124  -56.0051 C.2       19 UNK         0.5000 
    108 O         -4.7977  -21.8543  -56.3721 O.2       19 UNK        -0.5000 
    109 N         -6.1214  -23.4065  -55.3694 N.am      20 UNK        -0.5000 
    110 CA        -7.3323  -22.6184  -55.1049 C.3       20 UNK         0.1400 
    111 CB        -8.1015  -22.3839  -56.4216 C.3       20 UNK        -0.1800 
    112 C         -7.0787  -21.3069  -54.3307 C.2       20 UNK         0.5000 
    113 O         -7.7594  -20.3086  -54.5740 O.2       20 UNK        -0.5000 
    114 N         -6.0756  -21.3191  -53.4391 N.am      21 UNK        -0.5000 
    115 CA        -5.5983  -20.1791  -52.6433 C.3       21 UNK         0.1400 
    116 CB        -6.6419  -19.7867  -51.5774 C.3       21 UNK        -0.1800 
    117 C         -5.1335  -18.9849  -53.5083 C.2       21 UNK         0.5000 
    118 O         -5.2828  -17.8335  -53.0976 O.2       21 UNK        -0.5000 
    119 N         -4.5958  -19.2927  -54.6973 N.am      22 UNK        -0.5000 
    120 CA        -4.2219  -18.3537  -55.7684 C.3       22 UNK         0.1400 
    121 C         -5.4362  -17.7176  -56.5158 C.2       22 UNK         0.5000 
    122 N         -6.6715  -18.1577  -56.3027 N.am      22 UNK        -0.7600 
    123 O         -5.2565  -16.8209  -57.3358 O.2       22 UNK        -0.5000 
    124 C124       -3.1717  -17.2836  -55.3478 C.3       23 UNK        -0.0398 
    125 S125       -1.6235  -17.9770  -54.6674 S.3       23 UNK        -0.2404 
    126 C126       -1.6900  -17.3714  -52.9526 C.3       23 UNK        -0.0205 
    127 H127       -2.4333  -13.9332  -46.3943 H         1 UNK         0.0600 
    128 H128       -2.9889  -12.2587  -46.4521 H         1 UNK         0.0600 
    129 H129       -2.0342  -12.8224  -45.0775 H         1 UNK         0.0600 
    130 H130       -0.7128  -14.2838  -47.7774 H         1 UNK         0.3000 
    131 H131        0.6920  -12.2179  -49.0516 H         1 UNK         0.0600 
    132 H132        1.8072  -15.0546  -49.0168 H         1 UNK         0.0800 
    133 H133        0.2462  -14.7731  -49.7296 H         1 UNK         0.0800 
    134 H134        3.0627  -15.0559  -52.6695 H         1 UNK         0.0800 
    135 H135        3.5959  -15.4255  -51.0473 H         1 UNK         0.0800 
    136 H136        0.2648  -15.4851  -52.8506 H         1 UNK         0.1150 
    137 H137       -0.6417  -19.4591  -51.5321 H         1 UNK         0.1150 
    138 H138        3.0830  -17.6467  -50.4476 H         1 UNK         0.1150 
    139 H139        1.0458  -20.7987  -50.4518 H         1 UNK         0.0800 
    140 H140        2.6942  -20.2325  -50.4848 H         1 UNK         0.0800 
    141 H141       -0.6470  -19.4020  -48.9540 H         1 UNK         0.0800 
    142 H142       -0.3098  -18.8182  -47.3516 H         1 UNK         0.0800 
    143 H143       -0.2544  -21.8031  -47.9965 H         1 UNK         0.0600 
    144 H144        0.2576  -20.4082  -45.5984 H         1 UNK         0.3000 
    145 H145       -0.6571  -23.0694  -43.3254 H         1 UNK         0.0600 
    146 H146        1.6863  -23.4007  -44.0391 H         1 UNK         0.0600 
    147 H147        1.9476  -21.6654  -44.1170 H         1 UNK         0.0600 
    148 H148        1.6360  -22.4425  -42.5662 H         1 UNK         0.0600 
    149 H149        0.1597  -20.4245  -42.7540 H         1 UNK         0.3000 
    150 H150       -3.0845  -18.8950  -42.7367 H         1 UNK         0.0600 
    151 H151       -2.2842  -18.2878  -40.4628 H         1 UNK         0.0600 
    152 H152       -1.0992  -19.5921  -40.5059 H         1 UNK         0.0600 
    153 H153       -2.8171  -19.9610  -40.5112 H         1 UNK         0.0600 
    154 H154       -0.4331  -17.9107  -42.2488 H         1 UNK         0.3000 
    155 H155        0.2785  -16.8892  -45.5887 H         1 UNK         0.0600 
    156 H156       -1.1311  -15.0962  -44.5976 H         1 UNK         0.0600 
    157 H157        0.5718  -14.7325  -44.3666 H         1 UNK         0.0600 
    158 H158       -0.3917  -15.3401  -43.0271 H         1 UNK         0.0600 
    159 H159        1.6651  -16.7498  -43.0533 H         1 UNK         0.3000 
    160 H160        3.3877  -19.8625  -43.3944 H         1 UNK         0.0600 
    161 H161        4.6417  -18.3680  -44.9939 H         1 UNK         0.0600 
    162 H162        5.4336  -18.5127  -43.4326 H         1 UNK         0.0600 
    163 H163        4.5286  -17.0544  -43.8278 H         1 UNK         0.0600 
    164 H164        3.7819  -17.6988  -41.5982 H         1 UNK         0.3000 
    165 H165        1.0643  -18.1145  -39.4646 H         1 UNK         0.0600 
    166 H166        2.6378  -18.7352  -37.6544 H         1 UNK         0.0600 
    167 H167        2.3329  -20.1250  -38.6827 H         1 UNK         0.0600 
    168 H168        3.8461  -19.2405  -38.8369 H         1 UNK         0.0600 
    169 H169        3.4564  -16.7691  -38.9332 H         1 UNK         0.3000 
    170 H170        3.4080  -14.4955  -38.9839 H         1 UNK         0.0600 
    171 H171        4.9180  -13.4951  -40.7364 H         1 UNK         0.0600 
    172 H172        5.0622  -15.2444  -40.6566 H         1 UNK         0.0600 
    173 H173        4.1432  -14.5029  -41.9570 H         1 UNK         0.0600 
    174 H174        2.5139  -12.7626  -41.0987 H         1 UNK         0.3000 
    175 H175       -0.5690  -11.8979  -39.9106 H         1 UNK         0.0600 
    176 H176        1.7428  -10.3103  -38.6725 H         1 UNK         0.0600 
    177 H177        0.1177   -9.6950  -38.9774 H         1 UNK         0.0600 
    178 H178        0.3662  -10.9716  -37.7991 H         1 UNK         0.0600 
    179 H179        1.5686  -10.3147  -41.1083 H         1 UNK         0.3000 
    180 H180        0.0475  -10.3152  -44.0977 H         1 UNK         0.0600 
    181 H181        2.0688   -8.8864  -44.1545 H         1 UNK         0.0600 
    182 H182        2.7215   -9.6776  -42.7273 H         1 UNK         0.0600 
    183 H183        1.2454   -8.7191  -42.6173 H         1 UNK         0.0600 
    184 H184        1.2052  -11.6227  -45.4223 H         1 UNK         0.3000 
    185 H185        4.1149  -12.6626  -45.8564 H         1 UNK         0.0600 
    186 H186        2.9924  -15.0285  -44.2785 H         1 UNK         0.0600 
    187 H187        4.0140  -15.2046  -45.7054 H         1 UNK         0.0600 
    188 H188        4.6407  -14.4137  -44.2716 H         1 UNK         0.0600 
    189 H189        1.4769  -14.0274  -46.1651 H         1 UNK         0.3000 
    190 H190       -2.5042  -19.8726  -45.9659 H         1 UNK         0.3000 
    191 H191       -4.7688  -20.1466  -47.6610 H         1 UNK         0.0600 
    192 H192       -4.6226  -19.6879  -44.6350 H         1 UNK         0.0600 
    193 H193       -6.0422  -19.4367  -45.6419 H         1 UNK         0.0600 
    194 H194       -4.6153  -18.4377  -45.8754 H         1 UNK         0.0600 
    195 H195       -3.7146  -22.0976  -44.8196 H         1 UNK         0.3000 
    196 H196       -5.8597  -23.9366  -44.8313 H         1 UNK         0.0600 
    197 H197       -4.3391  -25.2956  -43.3750 H         1 UNK         0.0600 
    198 H198       -4.3639  -23.6067  -42.8911 H         1 UNK         0.0600 
    199 H199       -2.9917  -24.2433  -43.7954 H         1 UNK         0.0600 
    200 H200       -2.6817  -24.0795  -46.4800 H         1 UNK         0.3000 
    201 H201       -3.1340  -26.6864  -47.6704 H         1 UNK         0.0600 
    202 H202       -0.8621  -25.7793  -47.1351 H         1 UNK         0.0600 
    203 H203       -1.0887  -24.4944  -48.3194 H         1 UNK         0.0600 
    204 H204       -1.0055  -26.1762  -48.8373 H         1 UNK         0.0600 
    205 H205       -4.4231  -23.6398  -48.3938 H         1 UNK         0.3000 
    206 H206       -5.4043  -22.6112  -50.0833 H         1 UNK         0.0600 
    207 H207       -6.7477  -23.9417  -51.6790 H         1 UNK         0.0600 
    208 H208       -5.8580  -25.4032  -51.2721 H         1 UNK         0.0600 
    209 H209       -6.8852  -24.6271  -50.0682 H         1 UNK         0.0600 
    210 H210       -2.7719  -22.3982  -50.1909 H         1 UNK         0.3000 
    211 H211       -0.9631  -21.9018  -51.3616 H         1 UNK         0.0600 
    212 H212       -2.8008  -21.6960  -53.8080 H         1 UNK         0.0600 
    213 H213       -1.1787  -21.0344  -53.6815 H         1 UNK         0.0600 
    214 H214       -2.4547  -20.4085  -52.6607 H         1 UNK         0.0600 
    215 H215       -1.5084  -24.6088  -50.9006 H         1 UNK         0.3000 
    216 H216       -0.7718  -26.6675  -51.2310 H         1 UNK         0.0600 
    217 H217        1.2265  -27.1551  -52.5716 H         1 UNK         0.0600 
    218 H218        1.4907  -25.6891  -51.6407 H         1 UNK         0.0600 
    219 H219        1.1444  -25.5919  -53.3667 H         1 UNK         0.0600 
    220 H220       -3.1073  -26.2698  -52.0568 H         1 UNK         0.3000 
    221 H221       -4.8379  -26.8341  -53.3016 H         1 UNK         0.0600 
    222 H222       -3.0082  -28.9746  -54.5117 H         1 UNK         0.0600 
    223 H223       -3.8942  -29.1214  -52.9946 H         1 UNK         0.0600 
    224 H224       -4.7663  -28.9870  -54.5126 H         1 UNK         0.0600 
    225 H225       -3.8650  -24.5724  -54.1937 H         1 UNK         0.3000 
    226 H226       -4.2793  -24.6413  -57.1436 H         1 UNK         0.0600 
    227 H227       -1.8214  -24.3393  -56.6738 H         1 UNK         0.0600 
    228 H228       -2.5447  -22.9299  -57.4347 H         1 UNK         0.0600 
    229 H229       -2.1967  -22.9136  -55.7120 H         1 UNK         0.0600 
    230 H230       -6.1602  -24.3710  -55.0720 H         1 UNK         0.3000 
    231 H231       -7.9618  -23.2307  -54.4580 H         1 UNK         0.0600 
    232 H232       -7.5489  -21.7324  -57.0996 H         1 UNK         0.0600 
    233 H233       -8.2915  -23.3236  -56.9403 H         1 UNK         0.0600 
    234 H234       -9.0699  -21.9180  -56.2353 H         1 UNK         0.0600 
    235 H235       -5.5402  -22.1771  -53.3487 H         1 UNK         0.3000 
    236 H236       -4.7134  -20.5189  -52.1087 H         1 UNK         0.0600 
    237 H237       -7.5410  -19.3646  -52.0271 H         1 UNK         0.0600 
    238 H238       -6.9387  -20.6484  -50.9796 H         1 UNK         0.0600 
    239 H239       -6.2390  -19.0412  -50.8909 H         1 UNK         0.0600 
    240 H240       -4.5677  -20.2676  -54.9732 H         1 UNK         0.3000 
    241 H241       -3.7452  -18.9799  -56.5232 H         1 UNK         0.0600 
    242 H242       -6.8671  -18.8994  -55.6385 H         1 UNK         0.3800 
    243 H243       -7.4344  -17.7360  -56.8078 H         1 UNK         0.3800 
    244 H244       -2.8824  -16.6870  -56.2143 H         1 UNK         0.0800 
    245 H245       -3.6094  -16.5753  -54.6441 H         1 UNK         0.0800 
    246 H246       -2.4354  -17.9384  -52.3939 H         1 UNK         0.0800 
    247 H247       -2.0260  -16.3334  -52.9420 H         1 UNK         0.0800 
@<TRIPOS>BOND
     1    1    2 1    
     2    1  127 1    
     3    1  128 1    
     4    1  129 1    
     5    2    3 2    
     6    2    4 am   BACKBONE|DICT|INTERRES
     7    4    5 1    
     8    4  130 1    
     9    5    6 1    
    10    5   65 1    
    11    5  131 1    
    12    6    7 1    
    13    6  132 1    
    14    6  133 1    
    15    7    8 1    
    16    8    9 1    
    17    8  134 1    
    18    8  135 1    
    19    9   10 ar   
    20    9   14 ar   
    21   10   11 ar   
    22   10  136 1    
    23   11   12 ar   
    24   11  126 1    
    25   12   13 ar   
    26   12  137 1    
    27   13   14 ar   
    28   13   15 1    
    29   14  138 1    
    30   15   16 1    
    31   15  139 1    
    32   15  140 1    
    33   16   17 1    
    34   17   18 1    
    35   17  141 1    
    36   17  142 1    
    37   18   19 1    
    38   18   67 1    
    39   18  143 1    
    40   19   20 am   BACKBONE|DICT|INTERRES
    41   19  144 1    
    42   20   21 2    
    43   20   22 1    
    44   22   23 1    
    45   22   24 1    
    46   22  145 1    
    47   23  146 1    
    48   23  147 1    
    49   23  148 1    
    50   24   25 am   BACKBONE|DICT|INTERRES
    51   24  149 1    
    52   25   26 2    
    53   25   27 1    
    54   27   28 1    
    55   27   29 1    
    56   27  150 1    
    57   28  151 1    
    58   28  152 1    
    59   28  153 1    
    60   29   30 am   BACKBONE|DICT|INTERRES
    61   29  154 1    
    62   30   31 2    
    63   30   32 1    
    64   32   33 1    
    65   32   34 1    
    66   32  155 1    
    67   33  156 1    
    68   33  157 1    
    69   33  158 1    
    70   34   35 am   BACKBONE|DICT|INTERRES
    71   34  159 1    
    72   35   36 2    
    73   35   37 1    
    74   37   38 1    
    75   37   39 1    
    76   37  160 1    
    77   38  161 1    
    78   38  162 1    
    79   38  163 1    
    80   39   40 am   BACKBONE|DICT|INTERRES
    81   39  164 1    
    82   40   41 2    
    83   40   42 1    
    84   42   43 1    
    85   42   44 1    
    86   42  165 1    
    87   43  166 1    
    88   43  167 1    
    89   43  168 1    
    90   44   45 am   BACKBONE|DICT|INTERRES
    91   44  169 1    
    92   45   46 2    
    93   45   47 1    
    94   47   48 1    
    95   47   49 1    
    96   47  170 1    
    97   48  171 1    
    98   48  172 1    
    99   48  173 1    
   100   49   50 am   BACKBONE|DICT|INTERRES
   101   49  174 1    
   102   50   51 2    
   103   50   52 1    
   104   52   53 1    
   105   52   54 1    
   106   52  175 1    
   107   53  176 1    
   108   53  177 1    
   109   53  178 1    
   110   54   55 am   BACKBONE|DICT|INTERRES
   111   54  179 1    
   112   55   56 2    
   113   55   57 1    
   114   57   58 1    
   115   57   59 1    
   116   57  180 1    
   117   58  181 1    
   118   58  182 1    
   119   58  183 1    
   120   59   60 am   BACKBONE|DICT|INTERRES
   121   59  184 1    
   122   60   61 2    
   123   60   62 1    
   124   62   63 1    
   125   62   64 1    
   126   62  185 1    
   127   63  186 1    
   128   63  187 1    
   129   63  188 1    
   130   64   65 am   BACKBONE|DICT|INTERRES
   131   64  189 1    
   132   65   66 2    
   133   67   68 2    
   134   67   69 am   BACKBONE|DICT|INTERRES
   135   69   70 1    
   136   69  190 1    
   137   70   71 1    
   138   70   72 1    
   139   70  191 1    
   140   71  192 1    
   141   71  193 1    
   142   71  194 1    
   143   72   73 2    
   144   72   74 am   BACKBONE|DICT|INTERRES
   145   74   75 1    
   146   74  195 1    
   147   75   76 1    
   148   75   77 1    
   149   75  196 1    
   150   76  197 1    
   151   76  198 1    
   152   76  199 1    
   153   77   78 2    
   154   77   79 am   BACKBONE|DICT|INTERRES
   155   79   80 1    
   156   79  200 1    
   157   80   81 1    
   158   80   82 1    
   159   80  201 1    
   160   81  202 1    
   161   81  203 1    
   162   81  204 1    
   163   82   83 2    
   164   82   84 am   BACKBONE|DICT|INTERRES
   165   84   85 1    
   166   84  205 1    
   167   85   86 1    
   168   85   87 1    
   169   85  206 1    
   170   86  207 1    
   171   86  208 1    
   172   86  209 1    
   173   87   88 2    
   174   87   89 am   BACKBONE|DICT|INTERRES
   175   89   90 1    
   176   89  210 1    
   177   90   91 1    
   178   90   92 1    
   179   90  211 1    
   180   91  212 1    
   181   91  213 1    
   182   91  214 1    
   183   92   93 2    
   184   92   94 am   BACKBONE|DICT|INTERRES
   185   94   95 1    
   186   94  215 1    
   187   95   96 1    
   188   95   97 1    
   189   95  216 1    
   190   96  217 1    
   191   96  218 1    
   192   96  219 1    
   193   97   98 2    
   194   97   99 am   BACKBONE|DICT|INTERRES
   195   99  100 1    
   196   99  220 1    
   197  100  101 1    
   198  100  102 1    
   199  100  221 1    
   200  101  222 1    
   201  101  223 1    
   202  101  224 1    
   203  102  103 2    
   204  102  104 am   BACKBONE|DICT|INTERRES
   205  104  105 1    
   206  104  225 1    
   207  105  106 1    
   208  105  107 1    
   209  105  226 1    
   210  106  227 1    
   211  106  228 1    
   212  106  229 1    
   213  107  108 2    
   214  107  109 am   BACKBONE|DICT|INTERRES
   215  109  110 1    
   216  109  230 1    
   217  110  111 1    
   218  110  112 1    
   219  110  231 1    
   220  111  232 1    
   221  111  233 1    
   222  111  234 1    
   223  112  113 2    
   224  112  114 am   BACKBONE|DICT|INTERRES
   225  114  115 1    
   226  114  235 1    
   227  115  116 1    
   228  115  117 1    
   229  115  236 1    
   230  116  237 1    
   231  116  238 1    
   232  116  239 1    
   233  117  118 2    
   234  117  119 am   BACKBONE|DICT|INTERRES
   235  119  120 1    
   236  119  240 1    
   237  120  121 1    
   238  120  124 1    
   239  120  241 1    
   240  121  122 am   BACKBONE|DICT|INTERRES
   241  121  123 2    
   242  122  242 1    
   243  122  243 1    
   244  124  125 1    
   245  124  244 1    
   246  124  245 1    
   247  125  126 1    
   248  126  246 1    
   249  126  247 1    
@<TRIPOS>SUBSTRUCTURE
     1 UNK         1 GROUP             0       ****    0 ROOT    
