@<TRIPOS>MOLECULE
3R540
247   249    1
SMALL
USER_CHARGES


@<TRIPOS>ATOM
      1 CA         -3.8770  -11.6294  -50.1583 C.3       0 UNK        -0.1800 
      2 C          -2.9492  -12.4942  -49.3170 C.2       0 UNK         0.5000 
      3 O          -2.7140  -12.1758  -48.1515 O.2       0 UNK        -0.5000 
      4 N          -2.4196  -13.5756  -49.9071 N.am      1 UNK        -0.5000 
      5 CA         -1.5135  -14.5534  -49.2784 C.3       1 UNK         0.1400 
      6 C6         -2.1567  -15.3324  -48.0916 C.3       23 UNK        -0.0398 
      7 S7         -3.7180  -16.1726  -48.5280 S.3       23 UNK        -0.2404 
      8 C8         -3.3533  -17.9230  -48.1451 C.3       23 UNK        -0.0205 
      9 C9         -2.2994  -18.6054  -49.0181 C.ar      23 UNK        -0.0193 
     10 C10        -1.8763  -18.0826  -50.2448 C.ar      23 UNK        -0.1150 
     11 C11        -0.8947  -18.7230  -51.0017 C.ar      23 UNK        -0.0193 
     12 C12        -0.3442  -19.9196  -50.5388 C.ar      23 UNK        -0.1150 
     13 C13        -0.7760  -20.4756  -49.3315 C.ar      23 UNK        -0.0193 
     14 C14        -1.7535  -19.8156  -48.5803 C.ar      23 UNK        -0.1150 
     15 C15        -0.1931  -21.7956  -48.8547 C.3       23 UNK        -0.0205 
     16 S16         1.2485  -21.5464  -47.7730 S.3       23 UNK        -0.2404 
     17 C17         0.4574  -21.3732  -46.1373 C.3       23 UNK        -0.0398 
     18 CA          0.5847  -22.6547  -45.2802 C.3       11 UNK         0.1400 
     19 N           0.5011  -22.3513  -43.8488 N.am      11 UNK        -0.5000 
     20 C           0.7596  -23.2143  -42.8558 C.2       10 UNK         0.5000 
     21 O           1.0763  -24.3901  -43.0355 O.2       10 UNK        -0.5000 
     22 CA          0.5907  -22.6788  -41.4259 C.3       10 UNK         0.1400 
     23 CB          1.7821  -21.7951  -41.0250 C.3       10 UNK        -0.1800 
     24 N          -0.6519  -21.9180  -41.3034 N.am      10 UNK        -0.5000 
     25 C          -1.8556  -22.4740  -41.1077 C.2       9 UNK         0.5000 
     26 O          -2.0302  -23.6793  -40.9277 O.2       9 UNK        -0.5000 
     27 CA         -3.0746  -21.5313  -41.1294 C.3       9 UNK         0.1400 
     28 CB         -3.3912  -21.0288  -39.7128 C.3       9 UNK        -0.1800 
     29 N          -2.9071  -20.3804  -42.0192 N.am      9 UNK        -0.5000 
     30 C          -2.8262  -20.4556  -43.3548 C.2       8 UNK         0.5000 
     31 O          -2.8747  -21.5090  -43.9863 O.2       8 UNK        -0.5000 
     32 CA         -2.6005  -19.1334  -44.1088 C.3       8 UNK         0.1400 
     33 CB         -3.9374  -18.4164  -44.3501 C.3       8 UNK        -0.1800 
     34 N          -1.6809  -18.2171  -43.4318 N.am      8 UNK        -0.5000 
     35 C          -0.4174  -18.4899  -43.0806 C.2       7 UNK         0.5000 
     36 O           0.1025  -19.5983  -43.2220 O.2       7 UNK        -0.5000 
     37 CA          0.3869  -17.3187  -42.4872 C.3       7 UNK         0.1400 
     38 CB          1.8353  -17.7061  -42.1407 C.3       7 UNK        -0.1800 
     39 N           0.4046  -16.1815  -43.4074 N.am      7 UNK        -0.5000 
     40 C          -0.5492  -15.2429  -43.5013 C.2       6 UNK         0.5000 
     41 O          -1.5846  -15.2813  -42.8340 O.2       6 UNK        -0.5000 
     42 CA         -0.3531  -14.1029  -44.5270 C.3       6 UNK         0.1400 
     43 CB         -0.7940  -12.7320  -43.9760 C.3       6 UNK        -0.1800 
     44 N           0.9932  -14.0304  -45.1021 N.am      6 UNK        -0.5000 
     45 C           2.1508  -13.7885  -44.4678 C.2       5 UNK         0.5000 
     46 O           2.2291  -13.4872  -43.2758 O.2       5 UNK        -0.5000 
     47 CA          3.4370  -13.9472  -45.3068 C.3       5 UNK         0.1400 
     48 CB          4.6635  -14.3206  -44.4487 C.3       5 UNK        -0.1800 
     49 N           3.2939  -14.8842  -46.4287 N.am      5 UNK        -0.5000 
     50 C           2.9772  -16.1897  -46.3784 C.2       4 UNK         0.5000 
     51 O           2.7395  -16.7847  -45.3271 O.2       4 UNK        -0.5000 
     52 CA          2.8721  -16.9555  -47.7165 C.3       4 UNK         0.1400 
     53 CB          1.5277  -17.6945  -47.8357 C.3       4 UNK        -0.1800 
     54 N           3.0277  -16.0767  -48.8764 N.am      4 UNK        -0.5000 
     55 C           4.1935  -15.7338  -49.4407 C.2       3 UNK         0.5000 
     56 O           5.2803  -16.2062  -49.1074 O.2       3 UNK        -0.5000 
     57 CA          4.1400  -14.6482  -50.5358 C.3       3 UNK         0.1400 
     58 CB          4.1716  -15.2943  -51.9265 C.3       3 UNK        -0.1800 
     59 N           2.9701  -13.7664  -50.4193 N.am      3 UNK        -0.5000 
     60 C           2.7983  -12.8915  -49.4171 C.2       2 UNK         0.5000 
     61 O           3.6166  -12.7321  -48.5112 O.2       2 UNK        -0.5000 
     62 CA          1.4753  -12.1085  -49.3747 C.3       2 UNK         0.1400 
     63 CB          1.5146  -10.8934  -50.3131 C.3       2 UNK        -0.1800 
     64 N           0.2974  -12.9282  -49.6656 N.am      2 UNK        -0.5000 
     65 C          -0.1481  -13.9314  -48.8956 C.2       1 UNK         0.5000 
     66 O           0.4698  -14.3511  -47.9154 O.2       1 UNK        -0.5000 
     67 C          -0.4078  -23.7549  -45.7219 C.2       11 UNK         0.5000 
     68 O          -0.1055  -24.5033  -46.6513 O.2       11 UNK        -0.5000 
     69 N          -1.5374  -23.8941  -45.0124 N.am      12 UNK        -0.5000 
     70 CA         -2.5313  -24.9546  -45.1968 C.3       12 UNK         0.1400 
     71 CB         -3.7079  -24.7280  -44.2362 C.3       12 UNK        -0.1800 
     72 C          -1.9826  -26.3893  -45.0475 C.2       12 UNK         0.5000 
     73 O          -2.5769  -27.3155  -45.5978 O.2       12 UNK        -0.5000 
     74 N          -0.8527  -26.5576  -44.3440 N.am      13 UNK        -0.5000 
     75 CA         -0.1281  -27.8269  -44.2585 C.3       13 UNK         0.1400 
     76 CB          0.8891  -27.7539  -43.1101 C.3       13 UNK        -0.1800 
     77 C           0.5746  -28.2076  -45.5787 C.2       13 UNK         0.5000 
     78 O           0.7961  -29.3954  -45.8179 O.2       13 UNK        -0.5000 
     79 N           0.9105  -27.2075  -46.4057 N.am      14 UNK        -0.5000 
     80 CA          1.5208  -27.3810  -47.7215 C.3       14 UNK         0.1400 
     81 CB          2.5637  -26.2746  -47.9520 C.3       14 UNK        -0.1800 
     82 C           0.4571  -27.3667  -48.8314 C.2       14 UNK         0.5000 
     83 O           0.5031  -28.2198  -49.7189 O.2       14 UNK        -0.5000 
     84 N          -0.4811  -26.4130  -48.7657 N.am      15 UNK        -0.5000 
     85 CA         -1.5413  -26.2247  -49.7505 C.3       15 UNK         0.1400 
     86 CB         -1.0103  -25.4166  -50.9500 C.3       15 UNK        -0.1800 
     87 C          -2.7451  -25.5448  -49.0854 C.2       15 UNK         0.5000 
     88 O          -2.7731  -24.3189  -48.9660 O.2       15 UNK        -0.5000 
     89 N          -3.7161  -26.3548  -48.6487 N.am      16 UNK        -0.5000 
     90 CA         -5.0131  -25.8947  -48.1506 C.3       16 UNK         0.1400 
     91 CB         -5.6957  -27.0462  -47.3957 C.3       16 UNK        -0.1800 
     92 C          -5.9139  -25.3980  -49.2972 C.2       16 UNK         0.5000 
     93 O          -5.7679  -25.8551  -50.4340 O.2       16 UNK        -0.5000 
     94 N          -6.8498  -24.4987  -48.9589 N.am      17 UNK        -0.5000 
     95 CA         -7.8533  -23.8946  -49.8467 C.3       17 UNK         0.1400 
     96 CB         -8.8788  -24.9513  -50.3102 C.3       17 UNK        -0.1800 
     97 C          -7.2314  -23.0982  -51.0153 C.2       17 UNK         0.5000 
     98 O          -7.7038  -23.1840  -52.1511 O.2       17 UNK        -0.5000 
     99 N          -6.1693  -22.3409  -50.7087 N.am      18 UNK        -0.5000 
    100 CA        -5.4644  -21.4634  -51.6427 C.3       18 UNK         0.1400 
    101 CB        -4.1835  -20.9521  -50.9668 C.3       18 UNK        -0.1800 
    102 C         -6.3382  -20.2821  -52.1112 C.2       18 UNK         0.5000 
    103 O         -7.2063  -19.8183  -51.3678 O.2       18 UNK        -0.5000 
    104 N         -6.0704  -19.8018  -53.3318 N.am      19 UNK        -0.5000 
    105 CA        -6.8180  -18.7270  -53.9939 C.3       19 UNK         0.1400 
    106 CB        -6.5645  -18.8237  -55.5079 C.3       19 UNK        -0.1800 
    107 C         -6.4790  -17.3094  -53.4862 C.2       19 UNK         0.5000 
    108 O         -7.1523  -16.3583  -53.8819 O.2       19 UNK        -0.5000 
    109 N         -5.4222  -17.1874  -52.6680 N.am      20 UNK        -0.5000 
    110 CA        -4.8456  -15.9602  -52.0947 C.3       20 UNK         0.1400 
    111 CB        -5.8870  -15.1497  -51.2973 C.3       20 UNK        -0.1800 
    112 C         -4.0777  -15.0766  -53.0994 C.2       20 UNK         0.5000 
    113 O         -3.4975  -14.0666  -52.6944 O.2       20 UNK        -0.5000 
    114 N         -4.0426  -15.4920  -54.3731 N.am      21 UNK        -0.5000 
    115 CA        -3.4945  -14.7717  -55.5255 C.3       21 UNK         0.1400 
    116 CB        -3.7885  -15.5902  -56.7926 C.3       21 UNK        -0.1800 
    117 C         -1.9940  -14.4295  -55.4421 C.2       21 UNK         0.5000 
    118 O         -1.5438  -13.5391  -56.1643 O.2       21 UNK        -0.5000 
    119 N         -1.2529  -15.1176  -54.5641 N.am      22 UNK        -0.5000 
    120 CA         0.1483  -14.8146  -54.2397 C.3       22 UNK         0.1400 
    121 C          0.3555  -13.5562  -53.3402 C.2       22 UNK         0.5000 
    122 N         -0.6905  -12.8596  -52.9057 N.am      22 UNK        -0.7600 
    123 O          1.4902  -13.2026  -53.0350 O.2       22 UNK        -0.5000 
    124 C124        0.9039  -16.0669  -53.7277 C.3       23 UNK        -0.0398 
    125 S125        0.4849  -16.5715  -52.0217 S.3       23 UNK        -0.2404 
    126 C126       -0.4362  -18.1109  -52.3148 C.3       23 UNK        -0.0205 
    127 H127       -3.8589  -11.9148  -51.2096 H         1 UNK         0.0600 
    128 H128       -3.5806  -10.5828  -50.0895 H         1 UNK         0.0600 
    129 H129       -4.9014  -11.7199  -49.7978 H         1 UNK         0.0600 
    130 H130       -2.6748  -13.7702  -50.8700 H         1 UNK         0.3000 
    131 H131       -1.2774  -15.2732  -50.0585 H         1 UNK         0.0600 
    132 H132       -1.4627  -16.0773  -47.7016 H         1 UNK         0.0800 
    133 H133       -2.3672  -14.6571  -47.2624 H         1 UNK         0.0800 
    134 H134       -3.0435  -17.9838  -47.1023 H         1 UNK         0.0800 
    135 H135       -4.2822  -18.4887  -48.2255 H         1 UNK         0.0800 
    136 H136       -2.2903  -17.1648  -50.6216 H         1 UNK         0.1150 
    137 H137        0.4173  -20.4219  -51.1184 H         1 UNK         0.1150 
    138 H138       -2.0993  -20.2474  -47.6529 H         1 UNK         0.1150 
    139 H139       -0.9558  -22.3871  -48.3470 H         1 UNK         0.0800 
    140 H140        0.1213  -22.3883  -49.7140 H         1 UNK         0.0800 
    141 H141       -0.5824  -21.0620  -46.2275 H         1 UNK         0.0800 
    142 H142        0.9684  -20.5460  -45.6428 H         1 UNK         0.0800 
    143 H143        1.5861  -23.0626  -45.4357 H         1 UNK         0.0600 
    144 H144        0.2707  -21.3902  -43.6061 H         1 UNK         0.3000 
    145 H145        0.5612  -23.5317  -40.7441 H         1 UNK         0.0600 
    146 H146        1.6706  -21.4209  -40.0073 H         1 UNK         0.0600 
    147 H147        2.7139  -22.3606  -41.0634 H         1 UNK         0.0600 
    148 H148        1.8946  -20.9369  -41.6875 H         1 UNK         0.0600 
    149 H149       -0.5988  -20.9285  -41.5017 H         1 UNK         0.3000 
    150 H150       -3.9296  -22.1099  -41.4859 H         1 UNK         0.0600 
    151 H151       -4.3004  -20.4274  -39.7013 H         1 UNK         0.0600 
    152 H152       -3.5469  -21.8636  -39.0281 H         1 UNK         0.0600 
    153 H153       -2.5800  -20.4209  -39.3102 H         1 UNK         0.0600 
    154 H154       -2.8459  -19.4715  -41.5843 H         1 UNK         0.3000 
    155 H155       -2.1608  -19.3768  -45.0778 H         1 UNK         0.0600 
    156 H156       -4.4367  -18.1702  -43.4121 H         1 UNK         0.0600 
    157 H157       -4.6167  -19.0425  -44.9300 H         1 UNK         0.0600 
    158 H158       -3.7978  -17.4873  -44.9029 H         1 UNK         0.0600 
    159 H159       -2.0133  -17.2735  -43.2669 H         1 UNK         0.3000 
    160 H160       -0.1046  -17.0224  -41.5583 H         1 UNK         0.0600 
    161 H161        2.3726  -18.0856  -43.0105 H         1 UNK         0.0600 
    162 H162        1.8581  -18.4828  -41.3760 H         1 UNK         0.0600 
    163 H163        2.3901  -16.8520  -41.7520 H         1 UNK         0.0600 
    164 H164        1.2010  -16.1353  -44.0340 H         1 UNK         0.3000 
    165 H165       -1.0125  -14.3437  -45.3602 H         1 UNK         0.0600 
    166 H166       -0.6693  -11.9492  -44.7242 H         1 UNK         0.0600 
    167 H167       -1.8476  -12.7435  -43.6949 H         1 UNK         0.0600 
    168 H168       -0.2248  -12.4467  -43.0911 H         1 UNK         0.0600 
    169 H169        1.0368  -14.2478  -46.0954 H         1 UNK         0.3000 
    170 H170        3.6291  -12.9690  -45.7491 H         1 UNK         0.0600 
    171 H171        4.8703  -13.5516  -43.7036 H         1 UNK         0.0600 
    172 H172        4.5133  -15.2601  -43.9157 H         1 UNK         0.0600 
    173 H173        5.5579  -14.4225  -45.0633 H         1 UNK         0.0600 
    174 H174        3.4296  -14.4656  -47.3412 H         1 UNK         0.3000 
    175 H175        3.6663  -17.7046  -47.7204 H         1 UNK         0.0600 
    176 H176        0.6838  -17.0073  -47.8182 H         1 UNK         0.0600 
    177 H177        1.4722  -18.2649  -48.7630 H         1 UNK         0.0600 
    178 H178        1.3902  -18.4004  -47.0161 H         1 UNK         0.0600 
    179 H179        2.1888  -15.6139  -49.1967 H         1 UNK         0.3000 
    180 H180        5.0334  -14.0285  -50.4330 H         1 UNK         0.0600 
    181 H181        3.4019  -16.0578  -52.0243 H         1 UNK         0.0600 
    182 H182        5.1309  -15.7823  -52.1025 H         1 UNK         0.0600 
    183 H183        4.0301  -14.5572  -52.7171 H         1 UNK         0.0600 
    184 H184        2.2847  -13.8017  -51.1662 H         1 UNK         0.3000 
    185 H185        1.3586  -11.7319  -48.3560 H         1 UNK         0.0600 
    186 H186        2.3560  -10.2433  -50.0700 H         1 UNK         0.0600 
    187 H187        1.6226  -11.1868  -51.3566 H         1 UNK         0.0600 
    188 H188        0.6076  -10.2955  -50.2229 H         1 UNK         0.0600 
    189 H189       -0.2581  -12.6670  -50.4652 H         1 UNK         0.3000 
    190 H190       -1.7604  -23.1890  -44.3183 H         1 UNK         0.3000 
    191 H191       -2.9036  -24.8610  -46.2156 H         1 UNK         0.0600 
    192 H192       -4.2065  -23.7805  -44.4392 H         1 UNK         0.0600 
    193 H193       -4.4581  -25.5131  -44.3413 H         1 UNK         0.0600 
    194 H194       -3.3806  -24.7213  -43.1961 H         1 UNK         0.0600 
    195 H195       -0.4088  -25.7520  -43.9183 H         1 UNK         0.3000 
    196 H196       -0.8459  -28.6160  -44.0247 H         1 UNK         0.0600 
    197 H197        1.3853  -28.7147  -42.9681 H         1 UNK         0.0600 
    198 H198        0.4058  -27.4944  -42.1680 H         1 UNK         0.0600 
    199 H199        1.6641  -27.0122  -43.3060 H         1 UNK         0.0600 
    200 H200        0.6383  -26.2605  -46.1661 H         1 UNK         0.3000 
    201 H201        2.0415  -28.3399  -47.7667 H         1 UNK         0.0600 
    202 H202        3.3409  -26.3024  -47.1882 H         1 UNK         0.0600 
    203 H203        2.1166  -25.2801  -47.9370 H         1 UNK         0.0600 
    204 H204        3.0532  -26.3977  -48.9188 H         1 UNK         0.0600 
    205 H205       -0.4472  -25.7303  -48.0107 H         1 UNK         0.3000 
    206 H206       -1.8718  -27.1982  -50.1194 H         1 UNK         0.0600 
    207 H207       -0.2278  -25.9606  -51.4789 H         1 UNK         0.0600 
    208 H208       -1.8069  -25.2137  -51.6669 H         1 UNK         0.0600 
    209 H209       -0.5969  -24.4581  -50.6374 H         1 UNK         0.0600 
    210 H210       -3.6182  -27.3508  -48.7791 H         1 UNK         0.3000 
    211 H211       -4.8531  -25.0689  -47.4552 H         1 UNK         0.0600 
    212 H212       -5.8724  -27.9045  -48.0452 H         1 UNK         0.0600 
    213 H213       -6.6608  -26.7352  -46.9940 H         1 UNK         0.0600 
    214 H214       -5.0908  -27.3819  -46.5539 H         1 UNK         0.0600 
    215 H215       -6.8898  -24.1919  -47.9967 H         1 UNK         0.3000 
    216 H216       -8.3932  -23.1634  -49.2433 H         1 UNK         0.0600 
    217 H217       -9.6988  -24.4860  -50.8582 H         1 UNK         0.0600 
    218 H218       -9.3153  -25.4762  -49.4605 H         1 UNK         0.0600 
    219 H219       -8.4276  -25.6949  -50.9678 H         1 UNK         0.0600 
    220 H220       -5.8510  -22.3258  -49.7516 H         1 UNK         0.3000 
    221 H221       -5.1846  -22.0584  -52.5146 H         1 UNK         0.0600 
    222 H222       -4.4104  -20.3561  -50.0824 H         1 UNK         0.0600 
    223 H223       -3.5404  -21.7769  -50.6572 H         1 UNK         0.0600 
    224 H224       -3.6004  -20.3266  -51.6435 H         1 UNK         0.0600 
    225 H225       -5.3364  -20.2330  -53.8758 H         1 UNK         0.3000 
    226 H226       -7.8839  -18.8858  -53.8169 H         1 UNK         0.0600 
    227 H227       -6.8666  -19.7963  -55.8969 H         1 UNK         0.0600 
    228 H228       -7.1350  -18.0697  -56.0521 H         1 UNK         0.0600 
    229 H229       -5.5115  -18.6765  -55.7515 H         1 UNK         0.0600 
    230 H230       -4.9457  -18.0420  -52.4189 H         1 UNK         0.3000 
    231 H231       -4.1006  -16.3019  -51.3833 H         1 UNK         0.0600 
    232 H232       -6.6274  -14.6811  -51.9454 H         1 UNK         0.0600 
    233 H233       -6.4136  -15.7815  -50.5820 H         1 UNK         0.0600 
    234 H234       -5.4062  -14.3529  -50.7288 H         1 UNK         0.0600 
    235 H235       -4.5408  -16.3424  -54.5863 H         1 UNK         0.3000 
    236 H236       -4.0317  -13.8241  -55.5984 H         1 UNK         0.0600 
    237 H237       -4.8593  -15.7521  -56.9193 H         1 UNK         0.0600 
    238 H238       -3.4328  -15.0740  -57.6854 H         1 UNK         0.0600 
    239 H239       -3.3021  -16.5660  -56.7617 H         1 UNK         0.0600 
    240 H240       -1.7072  -15.8125  -53.9927 H         1 UNK         0.3000 
    241 H241        0.6308  -14.5495  -55.1824 H         1 UNK         0.0600 
    242 H242       -1.6323  -13.1594  -53.1248 H         1 UNK         0.3800 
    243 H243       -0.5378  -11.9813  -52.4412 H         1 UNK         0.3800 
    244 H244        0.7371  -16.9022  -54.4089 H         1 UNK         0.0800 
    245 H245        1.9761  -15.8801  -53.7729 H         1 UNK         0.0800 
    246 H246       -1.3041  -17.9087  -52.9436 H         1 UNK         0.0800 
    247 H247        0.1951  -18.8103  -52.8651 H         1 UNK         0.0800 
@<TRIPOS>BOND
     1    1    2 1    
     2    1  127 1    
     3    1  128 1    
     4    1  129 1    
     5    2    3 2    
     6    2    4 am   BACKBONE|DICT|INTERRES
     7    4    5 1    
     8    4  130 1    
     9    5    6 1    
    10    5   65 1    
    11    5  131 1    
    12    6    7 1    
    13    6  132 1    
    14    6  133 1    
    15    7    8 1    
    16    8    9 1    
    17    8  134 1    
    18    8  135 1    
    19    9   10 ar   
    20    9   14 ar   
    21   10   11 ar   
    22   10  136 1    
    23   11   12 ar   
    24   11  126 1    
    25   12   13 ar   
    26   12  137 1    
    27   13   14 ar   
    28   13   15 1    
    29   14  138 1    
    30   15   16 1    
    31   15  139 1    
    32   15  140 1    
    33   16   17 1    
    34   17   18 1    
    35   17  141 1    
    36   17  142 1    
    37   18   19 1    
    38   18   67 1    
    39   18  143 1    
    40   19   20 am   BACKBONE|DICT|INTERRES
    41   19  144 1    
    42   20   21 2    
    43   20   22 1    
    44   22   23 1    
    45   22   24 1    
    46   22  145 1    
    47   23  146 1    
    48   23  147 1    
    49   23  148 1    
    50   24   25 am   BACKBONE|DICT|INTERRES
    51   24  149 1    
    52   25   26 2    
    53   25   27 1    
    54   27   28 1    
    55   27   29 1    
    56   27  150 1    
    57   28  151 1    
    58   28  152 1    
    59   28  153 1    
    60   29   30 am   BACKBONE|DICT|INTERRES
    61   29  154 1    
    62   30   31 2    
    63   30   32 1    
    64   32   33 1    
    65   32   34 1    
    66   32  155 1    
    67   33  156 1    
    68   33  157 1    
    69   33  158 1    
    70   34   35 am   BACKBONE|DICT|INTERRES
    71   34  159 1    
    72   35   36 2    
    73   35   37 1    
    74   37   38 1    
    75   37   39 1    
    76   37  160 1    
    77   38  161 1    
    78   38  162 1    
    79   38  163 1    
    80   39   40 am   BACKBONE|DICT|INTERRES
    81   39  164 1    
    82   40   41 2    
    83   40   42 1    
    84   42   43 1    
    85   42   44 1    
    86   42  165 1    
    87   43  166 1    
    88   43  167 1    
    89   43  168 1    
    90   44   45 am   BACKBONE|DICT|INTERRES
    91   44  169 1    
    92   45   46 2    
    93   45   47 1    
    94   47   48 1    
    95   47   49 1    
    96   47  170 1    
    97   48  171 1    
    98   48  172 1    
    99   48  173 1    
   100   49   50 am   BACKBONE|DICT|INTERRES
   101   49  174 1    
   102   50   51 2    
   103   50   52 1    
   104   52   53 1    
   105   52   54 1    
   106   52  175 1    
   107   53  176 1    
   108   53  177 1    
   109   53  178 1    
   110   54   55 am   BACKBONE|DICT|INTERRES
   111   54  179 1    
   112   55   56 2    
   113   55   57 1    
   114   57   58 1    
   115   57   59 1    
   116   57  180 1    
   117   58  181 1    
   118   58  182 1    
   119   58  183 1    
   120   59   60 am   BACKBONE|DICT|INTERRES
   121   59  184 1    
   122   60   61 2    
   123   60   62 1    
   124   62   63 1    
   125   62   64 1    
   126   62  185 1    
   127   63  186 1    
   128   63  187 1    
   129   63  188 1    
   130   64   65 am   BACKBONE|DICT|INTERRES
   131   64  189 1    
   132   65   66 2    
   133   67   68 2    
   134   67   69 am   BACKBONE|DICT|INTERRES
   135   69   70 1    
   136   69  190 1    
   137   70   71 1    
   138   70   72 1    
   139   70  191 1    
   140   71  192 1    
   141   71  193 1    
   142   71  194 1    
   143   72   73 2    
   144   72   74 am   BACKBONE|DICT|INTERRES
   145   74   75 1    
   146   74  195 1    
   147   75   76 1    
   148   75   77 1    
   149   75  196 1    
   150   76  197 1    
   151   76  198 1    
   152   76  199 1    
   153   77   78 2    
   154   77   79 am   BACKBONE|DICT|INTERRES
   155   79   80 1    
   156   79  200 1    
   157   80   81 1    
   158   80   82 1    
   159   80  201 1    
   160   81  202 1    
   161   81  203 1    
   162   81  204 1    
   163   82   83 2    
   164   82   84 am   BACKBONE|DICT|INTERRES
   165   84   85 1    
   166   84  205 1    
   167   85   86 1    
   168   85   87 1    
   169   85  206 1    
   170   86  207 1    
   171   86  208 1    
   172   86  209 1    
   173   87   88 2    
   174   87   89 am   BACKBONE|DICT|INTERRES
   175   89   90 1    
   176   89  210 1    
   177   90   91 1    
   178   90   92 1    
   179   90  211 1    
   180   91  212 1    
   181   91  213 1    
   182   91  214 1    
   183   92   93 2    
   184   92   94 am   BACKBONE|DICT|INTERRES
   185   94   95 1    
   186   94  215 1    
   187   95   96 1    
   188   95   97 1    
   189   95  216 1    
   190   96  217 1    
   191   96  218 1    
   192   96  219 1    
   193   97   98 2    
   194   97   99 am   BACKBONE|DICT|INTERRES
   195   99  100 1    
   196   99  220 1    
   197  100  101 1    
   198  100  102 1    
   199  100  221 1    
   200  101  222 1    
   201  101  223 1    
   202  101  224 1    
   203  102  103 2    
   204  102  104 am   BACKBONE|DICT|INTERRES
   205  104  105 1    
   206  104  225 1    
   207  105  106 1    
   208  105  107 1    
   209  105  226 1    
   210  106  227 1    
   211  106  228 1    
   212  106  229 1    
   213  107  108 2    
   214  107  109 am   BACKBONE|DICT|INTERRES
   215  109  110 1    
   216  109  230 1    
   217  110  111 1    
   218  110  112 1    
   219  110  231 1    
   220  111  232 1    
   221  111  233 1    
   222  111  234 1    
   223  112  113 2    
   224  112  114 am   BACKBONE|DICT|INTERRES
   225  114  115 1    
   226  114  235 1    
   227  115  116 1    
   228  115  117 1    
   229  115  236 1    
   230  116  237 1    
   231  116  238 1    
   232  116  239 1    
   233  117  118 2    
   234  117  119 am   BACKBONE|DICT|INTERRES
   235  119  120 1    
   236  119  240 1    
   237  120  121 1    
   238  120  124 1    
   239  120  241 1    
   240  121  122 am   BACKBONE|DICT|INTERRES
   241  121  123 2    
   242  122  242 1    
   243  122  243 1    
   244  124  125 1    
   245  124  244 1    
   246  124  245 1    
   247  125  126 1    
   248  126  246 1    
   249  126  247 1    
@<TRIPOS>SUBSTRUCTURE
     1 UNK         1 GROUP             0       ****    0 ROOT    
