@<TRIPOS>MOLECULE
3R540
247   249    1
SMALL
USER_CHARGES


@<TRIPOS>ATOM
      1 CA          1.1856  -11.6298  -44.7162 C.3       0 UNK        -0.1800 
      2 C           1.6810  -12.1643  -46.0519 C.2       0 UNK         0.5000 
      3 O           2.8809  -12.1204  -46.3184 O.2       0 UNK        -0.5000 
      4 N           0.7652  -12.6787  -46.8843 N.am      1 UNK        -0.5000 
      5 CA          1.0196  -13.1713  -48.2482 C.3       1 UNK         0.1400 
      6 C6         -0.3064  -13.5452  -48.9644 C.3       23 UNK        -0.0398 
      7 S7         -0.3729  -13.0360  -50.7175 S.3       23 UNK        -0.2404 
      8 C8         -2.1744  -12.8731  -50.9931 C.3       23 UNK        -0.0205 
      9 C9         -2.8564  -14.2258  -51.1647 C.ar      23 UNK        -0.0193 
     10 C10        -3.2963  -14.6541  -52.4232 C.ar      23 UNK        -0.1150 
     11 C11        -3.8880  -15.9139  -52.5789 C.ar      23 UNK        -0.0193 
     12 C12        -4.0042  -16.7581  -51.4699 C.ar      23 UNK        -0.1150 
     13 C13        -3.5696  -16.3406  -50.2126 C.ar      23 UNK        -0.0193 
     14 C14        -3.0380  -15.0608  -50.0600 C.ar      23 UNK        -0.1150 
     15 C15        -3.6073  -17.2818  -49.0242 C.3       23 UNK        -0.0205 
     16 S16        -1.9820  -18.0767  -48.8419 S.3       23 UNK        -0.2404 
     17 C17        -1.9506  -18.4459  -47.0623 C.3       23 UNK        -0.0398 
     18 CA         -1.4667  -19.8837  -46.7674 C.3       11 UNK         0.1400 
     19 N          -0.8643  -19.9864  -45.4366 N.am      11 UNK        -0.5000 
     20 C          -0.1875  -21.0494  -44.9814 C.2       10 UNK         0.5000 
     21 O           0.0131  -22.0652  -45.6437 O.2       10 UNK        -0.5000 
     22 CA          0.3009  -20.9910  -43.5237 C.3       10 UNK         0.1400 
     23 CB          1.5621  -20.1236  -43.3997 C.3       10 UNK        -0.1800 
     24 N          -0.7290  -20.4979  -42.6103 N.am      10 UNK        -0.5000 
     25 C          -1.9064  -21.1012  -42.3933 C.2       9 UNK         0.5000 
     26 O          -2.2394  -22.1660  -42.9129 O.2       9 UNK        -0.5000 
     27 CA         -2.8990  -20.3633  -41.4813 C.3       9 UNK         0.1400 
     28 CB         -2.5659  -20.6010  -40.0008 C.3       9 UNK        -0.1800 
     29 N          -2.9269  -18.9275  -41.7570 N.am      9 UNK        -0.5000 
     30 C          -3.4163  -18.3813  -42.8790 C.2       8 UNK         0.5000 
     31 O          -3.9163  -19.0303  -43.7986 O.2       8 UNK        -0.5000 
     32 CA         -3.2761  -16.8535  -43.0114 C.3       8 UNK         0.1400 
     33 CB         -4.3623  -16.1322  -42.1995 C.3       8 UNK        -0.1800 
     34 N          -1.9554  -16.3700  -42.6010 N.am      8 UNK        -0.5000 
     35 C          -0.8170  -16.6887  -43.2308 C.2       7 UNK         0.5000 
     36 O          -0.7659  -17.4151  -44.2200 O.2       7 UNK        -0.5000 
     37 CA          0.4943  -16.1422  -42.6453 C.3       7 UNK         0.1400 
     38 CB          0.7661  -14.7271  -43.1730 C.3       7 UNK        -0.1800 
     39 N           0.5694  -16.1539  -41.1820 N.am      7 UNK        -0.5000 
     40 C           0.3819  -17.2270  -40.3999 C.2       6 UNK         0.5000 
     41 O           0.0402  -18.3322  -40.8239 O.2       6 UNK        -0.5000 
     42 CA          0.6988  -17.0303  -38.9100 C.3       6 UNK         0.1400 
     43 CB          0.3588  -18.2641  -38.0544 C.3       6 UNK        -0.1800 
     44 N           2.1260  -16.7478  -38.8028 N.am      6 UNK        -0.5000 
     45 C           2.6745  -15.6656  -38.2386 C.2       5 UNK         0.5000 
     46 O           2.0342  -14.8069  -37.6311 O.2       5 UNK        -0.5000 
     47 CA          4.1997  -15.5017  -38.4100 C.3       5 UNK         0.1400 
     48 CB          4.9423  -16.0805  -37.1959 C.3       5 UNK        -0.1800 
     49 N           4.7192  -16.1259  -39.6336 N.am      5 UNK        -0.5000 
     50 C           4.4240  -15.7213  -40.8766 C.2       4 UNK         0.5000 
     51 O           3.7016  -14.7524  -41.1223 O.2       4 UNK        -0.5000 
     52 CA          4.9927  -16.5773  -42.0241 C.3       4 UNK         0.1400 
     53 CB          4.2545  -17.9238  -42.1126 C.3       4 UNK        -0.1800 
     54 N           4.8689  -15.8927  -43.3105 N.am      4 UNK        -0.5000 
     55 C           5.7192  -14.9681  -43.7733 C.2       3 UNK         0.5000 
     56 O           6.7456  -14.6397  -43.1750 O.2       3 UNK        -0.5000 
     57 CA          5.3662  -14.2724  -45.1090 C.3       3 UNK         0.1400 
     58 CB          6.5924  -14.1372  -46.0353 C.3       3 UNK        -0.1800 
     59 N           4.2247  -14.8468  -45.8374 N.am      3 UNK        -0.5000 
     60 C           4.1255  -16.0607  -46.4034 C.2       2 UNK         0.5000 
     61 O           5.0146  -16.9105  -46.3571 O.2       2 UNK        -0.5000 
     62 CA          2.8016  -16.4039  -47.1192 C.3       2 UNK         0.1400 
     63 CB          2.0371  -17.4916  -46.3464 C.3       2 UNK        -0.1800 
     64 N           1.9196  -15.2466  -47.2956 N.am      2 UNK        -0.5000 
     65 C           2.0210  -14.3495  -48.2877 C.2       1 UNK         0.5000 
     66 O           2.8640  -14.4110  -49.1833 O.2       1 UNK        -0.5000 
     67 C          -2.5925  -20.9158  -46.9838 C.2       11 UNK         0.5000 
     68 O          -2.6703  -21.5115  -48.0602 O.2       11 UNK        -0.5000 
     69 N          -3.4199  -21.1350  -45.9508 N.am      12 UNK        -0.5000 
     70 CA         -4.4712  -22.1516  -45.9402 C.3       12 UNK         0.1400 
     71 CB         -5.3676  -21.9638  -44.7072 C.3       12 UNK        -0.1800 
     72 C          -3.9001  -23.5795  -46.0006 C.2       12 UNK         0.5000 
     73 O          -4.3587  -24.3784  -46.8174 O.2       12 UNK        -0.5000 
     74 N          -2.8788  -23.8594  -45.1774 N.am      13 UNK        -0.5000 
     75 CA         -2.1564  -25.1344  -45.1439 C.3       13 UNK         0.1400 
     76 CB         -1.1794  -25.1381  -43.9586 C.3       13 UNK        -0.1800 
     77 C          -1.4165  -25.4441  -46.4594 C.2       13 UNK         0.5000 
     78 O          -1.3963  -26.5971  -46.8910 O.2       13 UNK        -0.5000 
     79 N          -0.8581  -24.4031  -47.0901 N.am      14 UNK        -0.5000 
     80 CA         -0.2016  -24.4587  -48.3960 C.3       14 UNK         0.1400 
     81 CB          0.7446  -23.2541  -48.5265 C.3       14 UNK        -0.1800 
     82 C          -1.1833  -24.5009  -49.5849 C.2       14 UNK         0.5000 
     83 O          -0.7224  -24.5907  -50.7221 O.2       14 UNK        -0.5000 
     84 N          -2.4969  -24.4066  -49.3270 N.am      15 UNK        -0.5000 
     85 CA         -3.5934  -24.4032  -50.3010 C.3       15 UNK         0.1400 
     86 CB         -3.7302  -25.7866  -50.9706 C.3       15 UNK        -0.1800 
     87 C          -3.4695  -23.2544  -51.3216 C.2       15 UNK         0.5000 
     88 O          -3.5170  -23.4897  -52.5312 O.2       15 UNK        -0.5000 
     89 N          -3.2782  -22.0306  -50.8065 N.am      16 UNK        -0.5000 
     90 CA         -3.0518  -20.7915  -51.5595 C.3       16 UNK         0.1400 
     91 CB         -4.2781  -20.4391  -52.4317 C.3       16 UNK        -0.1800 
     92 C          -1.7344  -20.8319  -52.3608 C.2       16 UNK         0.5000 
     93 O          -1.6975  -20.3854  -53.5063 O.2       16 UNK        -0.5000 
     94 N          -0.6877  -21.4122  -51.7532 N.am      17 UNK        -0.5000 
     95 CA          0.6219  -21.7046  -52.3517 C.3       17 UNK         0.1400 
     96 CB          1.3920  -20.4038  -52.6608 C.3       17 UNK        -0.1800 
     97 C           0.4967  -22.6496  -53.5668 C.2       17 UNK         0.5000 
     98 O           1.0384  -22.3739  -54.6384 O.2       17 UNK        -0.5000 
     99 N          -0.2595  -23.7369  -53.3618 N.am      18 UNK        -0.5000 
    100 CA        -0.6215  -24.7971  -54.3064 C.3       18 UNK         0.1400 
    101 CB         0.6331  -25.5512  -54.7932 C.3       18 UNK        -0.1800 
    102 C         -1.5280  -24.3498  -55.4742 C.2       18 UNK         0.5000 
    103 O         -1.7359  -25.1338  -56.4021 O.2       18 UNK        -0.5000 
    104 N         -2.0736  -23.1261  -55.4199 N.am      19 UNK        -0.5000 
    105 CA        -2.9860  -22.5927  -56.4333 C.3       19 UNK         0.1400 
    106 CB        -2.9996  -21.0592  -56.3590 C.3       19 UNK        -0.1800 
    107 C         -4.4183  -23.1433  -56.3064 C.2       19 UNK         0.5000 
    108 O         -5.1426  -23.1266  -57.3008 O.2       19 UNK        -0.5000 
    109 N         -4.7925  -23.6094  -55.1028 N.am      20 UNK        -0.5000 
    110 CA        -6.1129  -24.0997  -54.6979 C.3       20 UNK         0.1400 
    111 CB        -6.5284  -25.3463  -55.5058 C.3       20 UNK        -0.1800 
    112 C         -7.1593  -22.9710  -54.7514 C.2       20 UNK         0.5000 
    113 O         -7.8413  -22.7981  -55.7635 O.2       20 UNK        -0.5000 
    114 N         -7.2225  -22.1882  -53.6633 N.am      21 UNK        -0.5000 
    115 CA        -8.1036  -21.0267  -53.4650 C.3       21 UNK         0.1400 
    116 CB        -9.5766  -21.4730  -53.3530 C.3       21 UNK        -0.1800 
    117 C         -7.8853  -19.9190  -54.5197 C.2       21 UNK         0.5000 
    118 O         -8.8441  -19.3050  -54.9909 O.2       21 UNK        -0.5000 
    119 N         -6.6109  -19.7094  -54.8737 N.am      22 UNK        -0.5000 
    120 CA        -6.1172  -18.7684  -55.8950 C.3       22 UNK         0.1400 
    121 C         -6.4308  -19.1826  -57.3662 C.2       22 UNK         0.5000 
    122 N         -6.9359  -20.3805  -57.6361 N.am      22 UNK        -0.7600 
    123 O         -6.1807  -18.4139  -58.2906 O.2       22 UNK        -0.5000 
    124 C124       -6.4777  -17.2774  -55.6219 C.3       23 UNK        -0.0398 
    125 S125       -6.1705  -16.7248  -53.9090 S.3       23 UNK        -0.2404 
    126 C126       -4.3829  -16.3798  -53.9415 C.3       23 UNK        -0.0205 
    127 H127        0.1482  -11.9067  -44.5278 H         1 UNK         0.0600 
    128 H128        1.2576  -10.5425  -44.7002 H         1 UNK         0.0600 
    129 H129        1.7962  -12.0221  -43.9031 H         1 UNK         0.0600 
    130 H130       -0.2021  -12.6800  -46.5940 H         1 UNK         0.3000 
    131 H131        1.4845  -12.3396  -48.7821 H         1 UNK         0.0600 
    132 H132       -1.1458  -13.0613  -48.4637 H         1 UNK         0.0800 
    133 H133       -0.5036  -14.6169  -48.8996 H         1 UNK         0.0800 
    134 H134       -2.3313  -12.2614  -51.8827 H         1 UNK         0.0800 
    135 H135       -2.6342  -12.3261  -50.1688 H         1 UNK         0.0800 
    136 H136       -3.1749  -14.0081  -53.2814 H         1 UNK         0.1150 
    137 H137       -4.4356  -17.7404  -51.5840 H         1 UNK         0.1150 
    138 H138       -2.7271  -14.7384  -49.0786 H         1 UNK         0.1150 
    139 H139       -3.8601  -16.7188  -48.1243 H         1 UNK         0.0800 
    140 H140       -4.3786  -18.0435  -49.1488 H         1 UNK         0.0800 
    141 H141       -2.9162  -18.2462  -46.5938 H         1 UNK         0.0800 
    142 H142       -1.2594  -17.7204  -46.6373 H         1 UNK         0.0800 
    143 H143       -0.6702  -20.1254  -47.4747 H         1 UNK         0.0600 
    144 H144       -0.9490  -19.1667  -44.8401 H         1 UNK         0.3000 
    145 H145        0.5562  -22.0075  -43.2173 H         1 UNK         0.0600 
    146 H146        1.9391  -20.1212  -42.3768 H         1 UNK         0.0600 
    147 H147        2.3599  -20.4992  -44.0414 H         1 UNK         0.0600 
    148 H148        1.3698  -19.0910  -43.6874 H         1 UNK         0.0600 
    149 H149       -0.5230  -19.6403  -42.1048 H         1 UNK         0.3000 
    150 H150       -3.8955  -20.7663  -41.6744 H         1 UNK         0.0600 
    151 H151       -2.5882  -21.6656  -39.7645 H         1 UNK         0.0600 
    152 H152       -3.2874  -20.1082  -39.3491 H         1 UNK         0.0600 
    153 H153       -1.5731  -20.2308  -39.7440 H         1 UNK         0.0600 
    154 H154       -2.4658  -18.3289  -41.0877 H         1 UNK         0.3000 
    155 H155       -3.4148  -16.5998  -44.0647 H         1 UNK         0.0600 
    156 H156       -4.2584  -16.3177  -41.1297 H         1 UNK         0.0600 
    157 H157       -5.3573  -16.4670  -42.4958 H         1 UNK         0.0600 
    158 H158       -4.3226  -15.0545  -42.3588 H         1 UNK         0.0600 
    159 H159       -1.9117  -15.7737  -41.7878 H         1 UNK         0.3000 
    160 H160        1.2932  -16.7871  -43.0091 H         1 UNK         0.0600 
    161 H161        0.0480  -14.0064  -42.7804 H         1 UNK         0.0600 
    162 H162        0.7021  -14.6967  -44.2611 H         1 UNK         0.0600 
    163 H163        1.7651  -14.3881  -42.9011 H         1 UNK         0.0600 
    164 H164        0.8910  -15.2997  -40.7486 H         1 UNK         0.3000 
    165 H165        0.1018  -16.1875  -38.5557 H         1 UNK         0.0600 
    166 H166        0.5953  -18.0899  -37.0047 H         1 UNK         0.0600 
    167 H167       -0.7047  -18.4981  -38.1132 H         1 UNK         0.0600 
    168 H168        0.9105  -19.1474  -38.3787 H         1 UNK         0.0600 
    169 H169        2.7357  -17.3821  -39.2982 H         1 UNK         0.3000 
    170 H170        4.4108  -14.4314  -38.4614 H         1 UNK         0.0600 
    171 H171        4.5976  -15.6176  -36.2703 H         1 UNK         0.0600 
    172 H172        4.7860  -17.1559  -37.1029 H         1 UNK         0.0600 
    173 H173        6.0153  -15.9009  -37.2669 H         1 UNK         0.0600 
    174 H174        5.3222  -16.9264  -39.5073 H         1 UNK         0.3000 
    175 H175        6.0482  -16.7718  -41.8219 H         1 UNK         0.0600 
    176 H176        3.1798  -17.7904  -42.2247 H         1 UNK         0.0600 
    177 H177        4.6080  -18.5138  -42.9587 H         1 UNK         0.0600 
    178 H178        4.4155  -18.5220  -41.2153 H         1 UNK         0.0600 
    179 H179        4.0368  -16.0792  -43.8468 H         1 UNK         0.3000 
    180 H180        5.0565  -13.2628  -44.8355 H         1 UNK         0.0600 
    181 H181        7.0095  -15.1086  -46.3017 H         1 UNK         0.0600 
    182 H182        7.3860  -13.5634  -45.5554 H         1 UNK         0.0600 
    183 H183        6.3329  -13.6178  -46.9579 H         1 UNK         0.0600 
    184 H184        3.4556  -14.2033  -45.9762 H         1 UNK         0.3000 
    185 H185        3.0598  -16.8072  -48.1006 H         1 UNK         0.0600 
    186 H186        2.6513  -18.3815  -46.2026 H         1 UNK         0.0600 
    187 H187        1.7301  -17.1433  -45.3612 H         1 UNK         0.0600 
    188 H188        1.1437  -17.8039  -46.8864 H         1 UNK         0.0600 
    189 H189        1.1958  -15.1179  -46.6046 H         1 UNK         0.3000 
    190 H190       -3.3186  -20.5778  -45.1097 H         1 UNK         0.3000 
    191 H191       -5.0877  -22.0031  -46.8293 H         1 UNK         0.0600 
    192 H192       -4.8076  -22.0689  -43.7781 H         1 UNK         0.0600 
    193 H193       -6.1704  -22.7020  -44.6922 H         1 UNK         0.0600 
    194 H194       -5.8323  -20.9777  -44.7059 H         1 UNK         0.0600 
    195 H195       -2.5797  -23.1537  -44.5086 H         1 UNK         0.3000 
    196 H196       -2.8897  -25.9271  -44.9829 H         1 UNK         0.0600 
    197 H197       -0.6399  -26.0840  -43.8983 H         1 UNK         0.0600 
    198 H198       -1.7062  -25.0028  -43.0138 H         1 UNK         0.0600 
    199 H199       -0.4396  -24.3415  -44.0450 H         1 UNK         0.0600 
    200 H200       -0.8507  -23.5001  -46.6236 H         1 UNK         0.3000 
    201 H201        0.4007  -25.3680  -48.4432 H         1 UNK         0.0600 
    202 H202        1.4622  -23.2266  -47.7063 H         1 UNK         0.0600 
    203 H203        0.1973  -22.3108  -48.5242 H         1 UNK         0.0600 
    204 H204        1.3198  -23.3036  -49.4510 H         1 UNK         0.0600 
    205 H205       -2.7817  -24.3061  -48.3605 H         1 UNK         0.3000 
    206 H206       -4.5078  -24.2165  -49.7365 H         1 UNK         0.0600 
    207 H207       -4.6064  -25.8215  -51.6190 H         1 UNK         0.0600 
    208 H208       -3.8462  -26.5736  -50.2255 H         1 UNK         0.0600 
    209 H209       -2.8618  -26.0306  -51.5833 H         1 UNK         0.0600 
    210 H210       -3.1918  -21.9429  -49.7949 H         1 UNK         0.3000 
    211 H211       -2.9350  -19.9979  -50.8225 H         1 UNK         0.0600 
    212 H212       -4.1291  -19.4955  -52.9561 H         1 UNK         0.0600 
    213 H213       -5.1767  -20.3367  -51.8237 H         1 UNK         0.0600 
    214 H214       -4.4669  -21.1940  -53.1932 H         1 UNK         0.0600 
    215 H215       -0.8363  -21.7775  -50.8241 H         1 UNK         0.3000 
    216 H216        1.1927  -22.2504  -51.6001 H         1 UNK         0.0600 
    217 H217        2.4065  -20.6231  -52.9953 H         1 UNK         0.0600 
    218 H218        1.4711  -19.7736  -51.7750 H         1 UNK         0.0600 
    219 H219        0.9099  -19.8201  -53.4454 H         1 UNK         0.0600 
    220 H220       -0.6169  -23.8852  -52.4198 H         1 UNK         0.3000 
    221 H221       -1.2205  -25.5020  -53.7280 H         1 UNK         0.0600 
    222 H222        1.2528  -24.9316  -55.4417 H         1 UNK         0.0600 
    223 H223        1.2465  -25.8785  -53.9536 H         1 UNK         0.0600 
    224 H224        0.3605  -26.4426  -55.3592 H         1 UNK         0.0600 
    225 H225       -1.8640  -22.5309  -54.6295 H         1 UNK         0.3000 
    226 H226       -2.6095  -22.8735  -57.4192 H         1 UNK         0.0600 
    227 H227       -1.9916  -20.6490  -56.4232 H         1 UNK         0.0600 
    228 H228       -3.5768  -20.6364  -57.1821 H         1 UNK         0.0600 
    229 H229       -3.4480  -20.7068  -55.4308 H         1 UNK         0.0600 
    230 H230       -4.1154  -23.5599  -54.3448 H         1 UNK         0.3000 
    231 H231       -6.0177  -24.4121  -53.6568 H         1 UNK         0.0600 
    232 H232       -5.7775  -26.1325  -55.4273 H         1 UNK         0.0600 
    233 H233       -6.6731  -25.1269  -56.5637 H         1 UNK         0.0600 
    234 H234       -7.4674  -25.7534  -55.1295 H         1 UNK         0.0600 
    235 H235       -6.6087  -22.4021  -52.8900 H         1 UNK         0.3000 
    236 H236       -7.8222  -20.5872  -52.5070 H         1 UNK         0.0600 
    237 H237      -10.2190  -20.6360  -53.0773 H         1 UNK         0.0600 
    238 H238       -9.9513  -21.8758  -54.2945 H         1 UNK         0.0600 
    239 H239       -9.6990  -22.2396  -52.5880 H         1 UNK         0.0600 
    240 H240       -5.9065  -20.2827  -54.4371 H         1 UNK         0.3000 
    241 H241       -5.0319  -18.8379  -55.8268 H         1 UNK         0.0600 
    242 H242       -7.1097  -20.6349  -58.5951 H         1 UNK         0.3800 
    243 H243       -7.1429  -21.0481  -56.9039 H         1 UNK         0.3800 
    244 H244       -5.9257  -16.6219  -56.2975 H         1 UNK         0.0800 
    245 H245       -7.5327  -17.1030  -55.8376 H         1 UNK         0.0800 
    246 H246       -4.1756  -15.6297  -54.7062 H         1 UNK         0.0800 
    247 H247       -3.8396  -17.2811  -54.2284 H         1 UNK         0.0800 
@<TRIPOS>BOND
     1    1    2 1    
     2    1  127 1    
     3    1  128 1    
     4    1  129 1    
     5    2    3 2    
     6    2    4 am   BACKBONE|DICT|INTERRES
     7    4    5 1    
     8    4  130 1    
     9    5    6 1    
    10    5   65 1    
    11    5  131 1    
    12    6    7 1    
    13    6  132 1    
    14    6  133 1    
    15    7    8 1    
    16    8    9 1    
    17    8  134 1    
    18    8  135 1    
    19    9   10 ar   
    20    9   14 ar   
    21   10   11 ar   
    22   10  136 1    
    23   11   12 ar   
    24   11  126 1    
    25   12   13 ar   
    26   12  137 1    
    27   13   14 ar   
    28   13   15 1    
    29   14  138 1    
    30   15   16 1    
    31   15  139 1    
    32   15  140 1    
    33   16   17 1    
    34   17   18 1    
    35   17  141 1    
    36   17  142 1    
    37   18   19 1    
    38   18   67 1    
    39   18  143 1    
    40   19   20 am   BACKBONE|DICT|INTERRES
    41   19  144 1    
    42   20   21 2    
    43   20   22 1    
    44   22   23 1    
    45   22   24 1    
    46   22  145 1    
    47   23  146 1    
    48   23  147 1    
    49   23  148 1    
    50   24   25 am   BACKBONE|DICT|INTERRES
    51   24  149 1    
    52   25   26 2    
    53   25   27 1    
    54   27   28 1    
    55   27   29 1    
    56   27  150 1    
    57   28  151 1    
    58   28  152 1    
    59   28  153 1    
    60   29   30 am   BACKBONE|DICT|INTERRES
    61   29  154 1    
    62   30   31 2    
    63   30   32 1    
    64   32   33 1    
    65   32   34 1    
    66   32  155 1    
    67   33  156 1    
    68   33  157 1    
    69   33  158 1    
    70   34   35 am   BACKBONE|DICT|INTERRES
    71   34  159 1    
    72   35   36 2    
    73   35   37 1    
    74   37   38 1    
    75   37   39 1    
    76   37  160 1    
    77   38  161 1    
    78   38  162 1    
    79   38  163 1    
    80   39   40 am   BACKBONE|DICT|INTERRES
    81   39  164 1    
    82   40   41 2    
    83   40   42 1    
    84   42   43 1    
    85   42   44 1    
    86   42  165 1    
    87   43  166 1    
    88   43  167 1    
    89   43  168 1    
    90   44   45 am   BACKBONE|DICT|INTERRES
    91   44  169 1    
    92   45   46 2    
    93   45   47 1    
    94   47   48 1    
    95   47   49 1    
    96   47  170 1    
    97   48  171 1    
    98   48  172 1    
    99   48  173 1    
   100   49   50 am   BACKBONE|DICT|INTERRES
   101   49  174 1    
   102   50   51 2    
   103   50   52 1    
   104   52   53 1    
   105   52   54 1    
   106   52  175 1    
   107   53  176 1    
   108   53  177 1    
   109   53  178 1    
   110   54   55 am   BACKBONE|DICT|INTERRES
   111   54  179 1    
   112   55   56 2    
   113   55   57 1    
   114   57   58 1    
   115   57   59 1    
   116   57  180 1    
   117   58  181 1    
   118   58  182 1    
   119   58  183 1    
   120   59   60 am   BACKBONE|DICT|INTERRES
   121   59  184 1    
   122   60   61 2    
   123   60   62 1    
   124   62   63 1    
   125   62   64 1    
   126   62  185 1    
   127   63  186 1    
   128   63  187 1    
   129   63  188 1    
   130   64   65 am   BACKBONE|DICT|INTERRES
   131   64  189 1    
   132   65   66 2    
   133   67   68 2    
   134   67   69 am   BACKBONE|DICT|INTERRES
   135   69   70 1    
   136   69  190 1    
   137   70   71 1    
   138   70   72 1    
   139   70  191 1    
   140   71  192 1    
   141   71  193 1    
   142   71  194 1    
   143   72   73 2    
   144   72   74 am   BACKBONE|DICT|INTERRES
   145   74   75 1    
   146   74  195 1    
   147   75   76 1    
   148   75   77 1    
   149   75  196 1    
   150   76  197 1    
   151   76  198 1    
   152   76  199 1    
   153   77   78 2    
   154   77   79 am   BACKBONE|DICT|INTERRES
   155   79   80 1    
   156   79  200 1    
   157   80   81 1    
   158   80   82 1    
   159   80  201 1    
   160   81  202 1    
   161   81  203 1    
   162   81  204 1    
   163   82   83 2    
   164   82   84 am   BACKBONE|DICT|INTERRES
   165   84   85 1    
   166   84  205 1    
   167   85   86 1    
   168   85   87 1    
   169   85  206 1    
   170   86  207 1    
   171   86  208 1    
   172   86  209 1    
   173   87   88 2    
   174   87   89 am   BACKBONE|DICT|INTERRES
   175   89   90 1    
   176   89  210 1    
   177   90   91 1    
   178   90   92 1    
   179   90  211 1    
   180   91  212 1    
   181   91  213 1    
   182   91  214 1    
   183   92   93 2    
   184   92   94 am   BACKBONE|DICT|INTERRES
   185   94   95 1    
   186   94  215 1    
   187   95   96 1    
   188   95   97 1    
   189   95  216 1    
   190   96  217 1    
   191   96  218 1    
   192   96  219 1    
   193   97   98 2    
   194   97   99 am   BACKBONE|DICT|INTERRES
   195   99  100 1    
   196   99  220 1    
   197  100  101 1    
   198  100  102 1    
   199  100  221 1    
   200  101  222 1    
   201  101  223 1    
   202  101  224 1    
   203  102  103 2    
   204  102  104 am   BACKBONE|DICT|INTERRES
   205  104  105 1    
   206  104  225 1    
   207  105  106 1    
   208  105  107 1    
   209  105  226 1    
   210  106  227 1    
   211  106  228 1    
   212  106  229 1    
   213  107  108 2    
   214  107  109 am   BACKBONE|DICT|INTERRES
   215  109  110 1    
   216  109  230 1    
   217  110  111 1    
   218  110  112 1    
   219  110  231 1    
   220  111  232 1    
   221  111  233 1    
   222  111  234 1    
   223  112  113 2    
   224  112  114 am   BACKBONE|DICT|INTERRES
   225  114  115 1    
   226  114  235 1    
   227  115  116 1    
   228  115  117 1    
   229  115  236 1    
   230  116  237 1    
   231  116  238 1    
   232  116  239 1    
   233  117  118 2    
   234  117  119 am   BACKBONE|DICT|INTERRES
   235  119  120 1    
   236  119  240 1    
   237  120  121 1    
   238  120  124 1    
   239  120  241 1    
   240  121  122 am   BACKBONE|DICT|INTERRES
   241  121  123 2    
   242  122  242 1    
   243  122  243 1    
   244  124  125 1    
   245  124  244 1    
   246  124  245 1    
   247  125  126 1    
   248  126  246 1    
   249  126  247 1    
@<TRIPOS>SUBSTRUCTURE
     1 UNK         1 GROUP             0       ****    0 ROOT    
