@<TRIPOS>MOLECULE
3R540
247   249    1
SMALL
USER_CHARGES


@<TRIPOS>ATOM
      1 CA         -3.2604  -12.1023  -45.6598 C.3       0 UNK        -0.1800 
      2 C          -2.5658  -13.0859  -46.5906 C.2       0 UNK         0.5000 
      3 O          -1.8712  -12.6621  -47.5141 O.2       0 UNK        -0.5000 
      4 N          -2.7215  -14.3905  -46.3233 N.am      1 UNK        -0.5000 
      5 CA         -2.2018  -15.5289  -47.1029 C.3       1 UNK         0.1400 
      6 C6         -2.7015  -16.8714  -46.5056 C.3       23 UNK        -0.0398 
      7 S7         -4.4622  -17.1582  -46.9089 S.3       23 UNK        -0.2404 
      8 C8         -4.4020  -18.5622  -48.0754 C.3       23 UNK        -0.0205 
      9 C9         -3.3971  -18.3437  -49.1957 C.ar      23 UNK        -0.0193 
     10 C10        -3.6903  -17.4910  -50.2616 C.ar      23 UNK        -0.1150 
     11 C11        -2.7310  -17.2392  -51.2463 C.ar      23 UNK        -0.0193 
     12 C12        -1.4713  -17.8397  -51.1510 C.ar      23 UNK        -0.1150 
     13 C13        -1.1657  -18.7017  -50.0927 C.ar      23 UNK        -0.0193 
     14 C14        -2.1490  -18.9662  -49.1349 C.ar      23 UNK        -0.1150 
     15 C15         0.2500  -19.2635  -49.9691 C.3       23 UNK        -0.0205 
     16 S16         0.3473  -20.9703  -49.3355 S.3       23 UNK        -0.2404 
     17 C17         0.4928  -20.7250  -47.5293 C.3       23 UNK        -0.0398 
     18 CA          0.0746  -21.9875  -46.7363 C.3       11 UNK         0.1400 
     19 N           0.5975  -21.9780  -45.3686 N.am      11 UNK        -0.5000 
     20 C           0.6187  -23.0499  -44.5634 C.2       10 UNK         0.5000 
     21 O           0.2068  -24.1614  -44.8950 O.2       10 UNK        -0.5000 
     22 CA          1.1449  -22.8350  -43.1338 C.3       10 UNK         0.1400 
     23 CB          2.6770  -22.7252  -43.1192 C.3       10 UNK        -0.1800 
     24 N           0.5571  -21.6571  -42.4960 N.am      10 UNK        -0.5000 
     25 C          -0.7440  -21.5298  -42.1977 C.2       9 UNK         0.5000 
     26 O          -1.5864  -22.3975  -42.4180 O.2       9 UNK        -0.5000 
     27 CA         -1.1867  -20.1906  -41.5877 C.3       9 UNK         0.1400 
     28 CB         -0.9248  -20.1674  -40.0746 C.3       9 UNK        -0.1800 
     29 N          -0.5181  -19.0529  -42.2121 N.am      9 UNK        -0.5000 
     30 C          -0.6820  -18.6770  -43.4877 C.2       8 UNK         0.5000 
     31 O          -1.4299  -19.2358  -44.2894 O.2       8 UNK        -0.5000 
     32 CA          0.1974  -17.5103  -43.9541 C.3       8 UNK         0.1400 
     33 CB         -0.3412  -16.1753  -43.4097 C.3       8 UNK        -0.1800 
     34 N           1.5902  -17.6884  -43.5405 N.am      8 UNK        -0.5000 
     35 C           2.3885  -18.6823  -43.9641 C.2       7 UNK         0.5000 
     36 O           2.0193  -19.5580  -44.7467 O.2       7 UNK        -0.5000 
     37 CA          3.8351  -18.7267  -43.4307 C.3       7 UNK         0.1400 
     38 CB          4.8085  -18.1982  -44.4949 C.3       7 UNK        -0.1800 
     39 N           4.0378  -17.9751  -42.1930 N.am      7 UNK        -0.5000 
     40 C           3.4855  -18.2638  -41.0064 C.2       6 UNK         0.5000 
     41 O           2.7799  -19.2534  -40.8039 O.2       6 UNK        -0.5000 
     42 CA          3.7187  -17.2387  -39.8745 C.3       6 UNK         0.1400 
     43 CB          4.9057  -17.6684  -38.9995 C.3       6 UNK        -0.1800 
     44 N           3.9388  -15.8606  -40.3431 N.am      6 UNK        -0.5000 
     45 C           3.0690  -15.1591  -41.0839 C.2       5 UNK         0.5000 
     46 O           1.9962  -15.6232  -41.4734 O.2       5 UNK        -0.5000 
     47 CA          3.4943  -13.7407  -41.5138 C.3       5 UNK         0.1400 
     48 CB          4.5744  -13.8196  -42.6045 C.3       5 UNK        -0.1800 
     49 N           2.3517  -12.9810  -42.0300 N.am      5 UNK        -0.5000 
     50 C           1.3766  -12.4756  -41.2596 C.2       4 UNK         0.5000 
     51 O           1.4396  -12.4558  -40.0285 O.2       4 UNK        -0.5000 
     52 CA          0.1003  -11.9489  -41.9561 C.3       4 UNK         0.1400 
     53 CB         -0.5052  -10.7213  -41.2418 C.3       4 UNK        -0.1800 
     54 N           0.2339  -11.7114  -43.3989 N.am      4 UNK        -0.5000 
     55 C           0.9711  -10.7747  -44.0148 C.2       3 UNK         0.5000 
     56 O           1.6618   -9.9435  -43.4232 O.2       3 UNK        -0.5000 
     57 CA          0.9270  -10.7969  -45.5615 C.3       3 UNK         0.1400 
     58 CB          2.0775   -9.9934  -46.2030 C.3       3 UNK        -0.1800 
     59 N           0.8731  -12.1534  -46.1299 N.am      3 UNK        -0.5000 
     60 C           1.7626  -13.1389  -45.9250 C.2       2 UNK         0.5000 
     61 O           2.7292  -13.0352  -45.1704 O.2       2 UNK        -0.5000 
     62 CA          1.4797  -14.4741  -46.6321 C.3       2 UNK         0.1400 
     63 CB          2.4010  -15.6147  -46.1599 C.3       2 UNK        -0.1800 
     64 N           0.0719  -14.8215  -46.4427 N.am      2 UNK        -0.5000 
     65 C          -0.6660  -15.5250  -47.3082 C.2       1 UNK         0.5000 
     66 O          -0.1844  -16.1210  -48.2700 O.2       1 UNK        -0.5000 
     67 C          -1.4488  -22.2414  -46.7660 C.2       11 UNK         0.5000 
     68 O          -1.9110  -23.0274  -47.5935 O.2       11 UNK        -0.5000 
     69 N          -2.1961  -21.6313  -45.8329 N.am      12 UNK        -0.5000 
     70 CA         -3.6327  -21.8575  -45.6577 C.3       12 UNK         0.1400 
     71 CB         -4.1998  -20.8446  -44.6521 C.3       12 UNK        -0.1800 
     72 C          -3.9752  -23.2992  -45.2351 C.2       12 UNK         0.5000 
     73 O          -4.9476  -23.8579  -45.7434 O.2       12 UNK        -0.5000 
     74 N          -3.1674  -23.8821  -44.3372 N.am      13 UNK        -0.5000 
     75 CA         -3.2909  -25.2713  -43.8918 C.3       13 UNK         0.1400 
     76 CB         -2.4087  -25.5037  -42.6557 C.3       13 UNK        -0.1800 
     77 C          -2.9494  -26.2825  -45.0003 C.2       13 UNK         0.5000 
     78 O          -3.6368  -27.2974  -45.1231 O.2       13 UNK        -0.5000 
     79 N          -1.9085  -25.9855  -45.7923 N.am      14 UNK        -0.5000 
     80 CA         -1.5076  -26.7710  -46.9602 C.3       14 UNK         0.1400 
     81 CB         -0.1386  -26.2869  -47.4619 C.3       14 UNK        -0.1800 
     82 C          -2.5505  -26.7144  -48.0909 C.2       14 UNK         0.5000 
     83 O          -2.8295  -27.7427  -48.7091 O.2       14 UNK        -0.5000 
     84 N          -3.1022  -25.5152  -48.3299 N.am      15 UNK        -0.5000 
     85 CA         -4.1462  -25.1383  -49.2906 C.3       15 UNK         0.1400 
     86 CB         -5.4599  -25.8971  -49.0259 C.3       15 UNK        -0.1800 
     87 C          -3.7126  -25.2513  -50.7636 C.2       15 UNK         0.5000 
     88 O          -3.8348  -24.2806  -51.5091 O.2       15 UNK        -0.5000 
     89 N          -3.1677  -26.4106  -51.1505 N.am      16 UNK        -0.5000 
     90 CA         -2.6267  -26.7062  -52.4802 C.3       16 UNK         0.1400 
     91 CB         -2.3635  -28.2168  -52.5771 C.3       16 UNK        -0.1800 
     92 C          -1.3486  -25.9106  -52.8181 C.2       16 UNK         0.5000 
     93 O          -0.9707  -25.8368  -53.9876 O.2       16 UNK        -0.5000 
     94 N          -0.7093  -25.3319  -51.7928 N.am      17 UNK        -0.5000 
     95 CA          0.4424  -24.4404  -51.9097 C.3       17 UNK         0.1400 
     96 CB          1.1112  -24.3274  -50.5309 C.3       17 UNK        -0.1800 
     97 C           0.0808  -23.0449  -52.4614 C.2       17 UNK         0.5000 
     98 O           0.9643  -22.3634  -52.9839 O.2       17 UNK        -0.5000 
     99 N          -1.1923  -22.6395  -52.3420 N.am      18 UNK        -0.5000 
    100 CA        -1.7096  -21.3815  -52.8784 C.3       18 UNK         0.1400 
    101 CB        -3.0410  -21.0534  -52.1860 C.3       18 UNK        -0.1800 
    102 C         -1.8934  -21.4610  -54.4060 C.2       18 UNK         0.5000 
    103 O         -2.1257  -22.5456  -54.9474 O.2       18 UNK        -0.5000 
    104 N         -1.8019  -20.3062  -55.0751 N.am      19 UNK        -0.5000 
    105 CA        -2.0288  -20.1678  -56.5142 C.3       19 UNK         0.1400 
    106 CB        -1.4452  -18.8230  -56.9776 C.3       19 UNK        -0.1800 
    107 C         -3.5259  -20.2499  -56.8657 C.2       19 UNK         0.5000 
    108 O         -4.3772  -20.0045  -56.0093 O.2       19 UNK        -0.5000 
    109 N         -3.8285  -20.5283  -58.1411 N.am      20 UNK        -0.5000 
    110 CA        -5.1951  -20.5733  -58.6790 C.3       20 UNK         0.1400 
    111 CB        -5.1490  -21.0600  -60.1353 C.3       20 UNK        -0.1800 
    112 C         -5.9393  -19.2246  -58.5825 C.2       20 UNK         0.5000 
    113 O         -7.1617  -19.2080  -58.4323 O.2       20 UNK        -0.5000 
    114 N         -5.1792  -18.1213  -58.6225 N.am      21 UNK        -0.5000 
    115 CA        -5.6573  -16.7514  -58.4312 C.3       21 UNK         0.1400 
    116 CB        -4.5349  -15.7817  -58.8331 C.3       21 UNK        -0.1800 
    117 C         -6.1371  -16.4509  -56.9951 C.2       21 UNK         0.5000 
    118 O         -6.8676  -15.4781  -56.8017 O.2       21 UNK        -0.5000 
    119 N         -5.7274  -17.2728  -56.0192 N.am      22 UNK        -0.5000 
    120 CA        -6.1141  -17.1549  -54.6037 C.3       22 UNK         0.1400 
    121 C         -7.5451  -17.6856  -54.2913 C.2       22 UNK         0.5000 
    122 N         -8.2352  -18.3420  -55.2177 N.am      22 UNK        -0.7600 
    123 O         -8.0448  -17.4881  -53.1871 O.2       22 UNK        -0.5000 
    124 C124       -5.0693  -17.8069  -53.6605 C.3       23 UNK        -0.0398 
    125 S125       -3.3709  -17.1893  -53.9381 S.3       23 UNK        -0.2404 
    126 C126       -3.0351  -16.2896  -52.3943 C.3       23 UNK        -0.0205 
    127 H127       -2.5309  -11.4260  -45.2139 H         1 UNK         0.0600 
    128 H128       -3.9822  -11.5057  -46.2182 H         1 UNK         0.0600 
    129 H129       -3.7905  -12.6103  -44.8532 H         1 UNK         0.0600 
    130 H130       -3.3235  -14.6495  -45.5545 H         1 UNK         0.3000 
    131 H131       -2.6166  -15.4307  -48.1087 H         1 UNK         0.0600 
    132 H132       -2.6067  -16.8729  -45.4211 H         1 UNK         0.0800 
    133 H133       -2.1014  -17.7178  -46.8352 H         1 UNK         0.0800 
    134 H134       -5.3951  -18.7169  -48.4994 H         1 UNK         0.0800 
    135 H135       -4.1622  -19.4702  -47.5224 H         1 UNK         0.0800 
    136 H136       -4.6554  -17.0066  -50.3080 H         1 UNK         0.1150 
    137 H137       -0.7212  -17.6178  -51.8969 H         1 UNK         0.1150 
    138 H138       -1.9393  -19.6237  -48.3075 H         1 UNK         0.1150 
    139 H139        0.7311  -19.2554  -50.9483 H         1 UNK         0.0800 
    140 H140        0.8395  -18.6012  -49.3336 H         1 UNK         0.0800 
    141 H141        1.5417  -20.5004  -47.3303 H         1 UNK         0.0800 
    142 H142       -0.0601  -19.8454  -47.1980 H         1 UNK         0.0800 
    143 H143        0.5421  -22.8437  -47.2281 H         1 UNK         0.0600 
    144 H144        0.9815  -21.0974  -45.0334 H         1 UNK         0.3000 
    145 H145        0.8638  -23.7081  -42.5411 H         1 UNK         0.0600 
    146 H146        3.0549  -22.5879  -42.1059 H         1 UNK         0.0600 
    147 H147        3.1335  -23.6325  -43.5169 H         1 UNK         0.0600 
    148 H148        3.0300  -21.8917  -43.7257 H         1 UNK         0.0600 
    149 H149        1.1781  -20.8890  -42.2859 H         1 UNK         0.3000 
    150 H150       -2.2611  -20.0855  -41.7526 H         1 UNK         0.0600 
    151 H151       -1.4230  -21.0021  -39.5798 H         1 UNK         0.0600 
    152 H152       -1.3029  -19.2499  -39.6234 H         1 UNK         0.0600 
    153 H153        0.1400  -20.2385  -39.8481 H         1 UNK         0.0600 
    154 H154        0.1534  -18.5533  -41.6468 H         1 UNK         0.3000 
    155 H155        0.1722  -17.4803  -45.0449 H         1 UNK         0.0600 
    156 H156        0.3099  -15.3438  -43.6775 H         1 UNK         0.0600 
    157 H157       -0.4248  -16.1870  -42.3224 H         1 UNK         0.0600 
    158 H158       -1.3329  -15.9540  -43.8006 H         1 UNK         0.0600 
    159 H159        1.9432  -17.0182  -42.8643 H         1 UNK         0.3000 
    160 H160        4.0788  -19.7716  -43.2315 H         1 UNK         0.0600 
    161 H161        4.6388  -17.1418  -44.7066 H         1 UNK         0.0600 
    162 H162        4.6971  -18.7431  -45.4336 H         1 UNK         0.0600 
    163 H163        5.8442  -18.3146  -44.1751 H         1 UNK         0.0600 
    164 H164        4.5996  -17.1397  -42.2604 H         1 UNK         0.3000 
    165 H165        2.8201  -17.2352  -39.2540 H         1 UNK         0.0600 
    166 H166        5.8422  -17.6576  -39.5587 H         1 UNK         0.0600 
    167 H167        5.0200  -17.0102  -38.1379 H         1 UNK         0.0600 
    168 H168        4.7634  -18.6800  -38.6165 H         1 UNK         0.0600 
    169 H169        4.8089  -15.4277  -40.0679 H         1 UNK         0.3000 
    170 H170        3.9050  -13.2190  -40.6469 H         1 UNK         0.0600 
    171 H171        5.4904  -14.2705  -42.2213 H         1 UNK         0.0600 
    172 H172        4.2461  -14.4197  -43.4543 H         1 UNK         0.0600 
    173 H173        4.8336  -12.8280  -42.9766 H         1 UNK         0.0600 
    174 H174        2.2461  -12.9622  -43.0369 H         1 UNK         0.3000 
    175 H175       -0.6255  -12.7586  -41.8649 H         1 UNK         0.0600 
    176 H176       -1.4113  -10.3801  -41.7425 H         1 UNK         0.0600 
    177 H177       -0.7774  -10.9611  -40.2133 H         1 UNK         0.0600 
    178 H178        0.1943   -9.8858  -41.2051 H         1 UNK         0.0600 
    179 H179       -0.2849  -12.3457  -43.9858 H         1 UNK         0.3000 
    180 H180       -0.0085  -10.3111  -45.8424 H         1 UNK         0.0600 
    181 H181        2.0081  -10.0059  -47.2908 H         1 UNK         0.0600 
    182 H182        2.0492   -8.9490  -45.8901 H         1 UNK         0.0600 
    183 H183        3.0535  -10.3922  -45.9247 H         1 UNK         0.0600 
    184 H184        0.1010  -12.3287  -46.7652 H         1 UNK         0.3000 
    185 H185        1.6616  -14.3055  -47.6957 H         1 UNK         0.0600 
    186 H186        2.1114  -16.5751  -46.5864 H         1 UNK         0.0600 
    187 H187        3.4327  -15.4246  -46.4575 H         1 UNK         0.0600 
    188 H188        2.3926  -15.7051  -45.0753 H         1 UNK         0.0600 
    189 H189       -0.4040  -14.3492  -45.6895 H         1 UNK         0.3000 
    190 H190       -1.7618  -20.9715  -45.1943 H         1 UNK         0.3000 
    191 H191       -4.1143  -21.6819  -46.6215 H         1 UNK         0.0600 
    192 H192       -5.2738  -20.9821  -44.5214 H         1 UNK         0.0600 
    193 H193       -4.0429  -19.8205  -44.9909 H         1 UNK         0.0600 
    194 H194       -3.7328  -20.9476  -43.6722 H         1 UNK         0.0600 
    195 H195       -2.4283  -23.3340  -43.9068 H         1 UNK         0.3000 
    196 H196       -4.3295  -25.4394  -43.5994 H         1 UNK         0.0600 
    197 H197       -2.4825  -26.5355  -42.3102 H         1 UNK         0.0600 
    198 H198       -2.7139  -24.8624  -41.8288 H         1 UNK         0.0600 
    199 H199       -1.3581  -25.3011  -42.8664 H         1 UNK         0.0600 
    200 H200       -1.3476  -25.1665  -45.5772 H         1 UNK         0.3000 
    201 H201       -1.4073  -27.8132  -46.6503 H         1 UNK         0.0600 
    202 H202        0.6264  -26.4090  -46.6948 H         1 UNK         0.0600 
    203 H203       -0.1622  -25.2339  -47.7420 H         1 UNK         0.0600 
    204 H204        0.1830  -26.8546  -48.3360 H         1 UNK         0.0600 
    205 H205       -2.7244  -24.7245  -47.8128 H         1 UNK         0.3000 
    206 H206       -4.3400  -24.0809  -49.1026 H         1 UNK         0.0600 
    207 H207       -5.7927  -25.7545  -47.9975 H         1 UNK         0.0600 
    208 H208       -6.2550  -25.5353  -49.6789 H         1 UNK         0.0600 
    209 H209       -5.3585  -26.9686  -49.1997 H         1 UNK         0.0600 
    210 H210       -3.0778  -27.1368  -50.4434 H         1 UNK         0.3000 
    211 H211       -3.3828  -26.4382  -53.2209 H         1 UNK         0.0600 
    212 H212       -1.6270  -28.5432  -51.8417 H         1 UNK         0.0600 
    213 H213       -1.9860  -28.4872  -53.5642 H         1 UNK         0.0600 
    214 H214       -3.2777  -28.7876  -52.4124 H         1 UNK         0.0600 
    215 H215       -1.0929  -25.4577  -50.8686 H         1 UNK         0.3000 
    216 H216        1.1588  -24.8898  -52.6007 H         1 UNK         0.0600 
    217 H217        1.9684  -23.6536  -50.5639 H         1 UNK         0.0600 
    218 H218        1.4727  -25.2963  -50.1864 H         1 UNK         0.0600 
    219 H219        0.4191  -23.9418  -49.7817 H         1 UNK         0.0600 
    220 H220       -1.8799  -23.2774  -51.9628 H         1 UNK         0.3000 
    221 H221       -0.9961  -20.5879  -52.6464 H         1 UNK         0.0600 
    222 H222       -3.8274  -21.7539  -52.4684 H         1 UNK         0.0600 
    223 H223       -2.9408  -21.0792  -51.1008 H         1 UNK         0.0600 
    224 H224       -3.3805  -20.0534  -52.4546 H         1 UNK         0.0600 
    225 H225       -1.6821  -19.4467  -54.5589 H         1 UNK         0.3000 
    226 H226       -1.5047  -20.9746  -57.0310 H         1 UNK         0.0600 
    227 H227       -1.5311  -18.7077  -58.0587 H         1 UNK         0.0600 
    228 H228       -1.9595  -17.9785  -56.5175 H         1 UNK         0.0600 
    229 H229       -0.3865  -18.7458  -56.7293 H         1 UNK         0.0600 
    230 H230       -3.0815  -20.7123  -58.7956 H         1 UNK         0.3000 
    231 H231       -5.7604  -21.3006  -58.0924 H         1 UNK         0.0600 
    232 H232       -6.1530  -21.1267  -60.5567 H         1 UNK         0.0600 
    233 H233       -4.7022  -22.0519  -60.2062 H         1 UNK         0.0600 
    234 H234       -4.5718  -20.3843  -60.7678 H         1 UNK         0.0600 
    235 H235       -4.1848  -18.2366  -58.7477 H         1 UNK         0.3000 
    236 H236       -6.5059  -16.5920  -59.0996 H         1 UNK         0.0600 
    237 H237       -3.6520  -15.9071  -58.2048 H         1 UNK         0.0600 
    238 H238       -4.2347  -15.9320  -59.8703 H         1 UNK         0.0600 
    239 H239       -4.8605  -14.7449  -58.7382 H         1 UNK         0.0600 
    240 H240       -5.1504  -18.0741  -56.2458 H         1 UNK         0.3000 
    241 H241       -6.1370  -16.0910  -54.3600 H         1 UNK         0.0600 
    242 H242       -9.1620  -18.6748  -55.0032 H         1 UNK         0.3800 
    243 H243       -7.8399  -18.5119  -56.1311 H         1 UNK         0.3800 
    244 H244       -5.0637  -18.8891  -53.7914 H         1 UNK         0.0800 
    245 H245       -5.3473  -17.6393  -52.6195 H         1 UNK         0.0800 
    246 H246       -2.1797  -15.6310  -52.5509 H         1 UNK         0.0800 
    247 H247       -3.8783  -15.6399  -52.1544 H         1 UNK         0.0800 
@<TRIPOS>BOND
     1    1    2 1    
     2    1  127 1    
     3    1  128 1    
     4    1  129 1    
     5    2    3 2    
     6    2    4 am   BACKBONE|DICT|INTERRES
     7    4    5 1    
     8    4  130 1    
     9    5    6 1    
    10    5   65 1    
    11    5  131 1    
    12    6    7 1    
    13    6  132 1    
    14    6  133 1    
    15    7    8 1    
    16    8    9 1    
    17    8  134 1    
    18    8  135 1    
    19    9   10 ar   
    20    9   14 ar   
    21   10   11 ar   
    22   10  136 1    
    23   11   12 ar   
    24   11  126 1    
    25   12   13 ar   
    26   12  137 1    
    27   13   14 ar   
    28   13   15 1    
    29   14  138 1    
    30   15   16 1    
    31   15  139 1    
    32   15  140 1    
    33   16   17 1    
    34   17   18 1    
    35   17  141 1    
    36   17  142 1    
    37   18   19 1    
    38   18   67 1    
    39   18  143 1    
    40   19   20 am   BACKBONE|DICT|INTERRES
    41   19  144 1    
    42   20   21 2    
    43   20   22 1    
    44   22   23 1    
    45   22   24 1    
    46   22  145 1    
    47   23  146 1    
    48   23  147 1    
    49   23  148 1    
    50   24   25 am   BACKBONE|DICT|INTERRES
    51   24  149 1    
    52   25   26 2    
    53   25   27 1    
    54   27   28 1    
    55   27   29 1    
    56   27  150 1    
    57   28  151 1    
    58   28  152 1    
    59   28  153 1    
    60   29   30 am   BACKBONE|DICT|INTERRES
    61   29  154 1    
    62   30   31 2    
    63   30   32 1    
    64   32   33 1    
    65   32   34 1    
    66   32  155 1    
    67   33  156 1    
    68   33  157 1    
    69   33  158 1    
    70   34   35 am   BACKBONE|DICT|INTERRES
    71   34  159 1    
    72   35   36 2    
    73   35   37 1    
    74   37   38 1    
    75   37   39 1    
    76   37  160 1    
    77   38  161 1    
    78   38  162 1    
    79   38  163 1    
    80   39   40 am   BACKBONE|DICT|INTERRES
    81   39  164 1    
    82   40   41 2    
    83   40   42 1    
    84   42   43 1    
    85   42   44 1    
    86   42  165 1    
    87   43  166 1    
    88   43  167 1    
    89   43  168 1    
    90   44   45 am   BACKBONE|DICT|INTERRES
    91   44  169 1    
    92   45   46 2    
    93   45   47 1    
    94   47   48 1    
    95   47   49 1    
    96   47  170 1    
    97   48  171 1    
    98   48  172 1    
    99   48  173 1    
   100   49   50 am   BACKBONE|DICT|INTERRES
   101   49  174 1    
   102   50   51 2    
   103   50   52 1    
   104   52   53 1    
   105   52   54 1    
   106   52  175 1    
   107   53  176 1    
   108   53  177 1    
   109   53  178 1    
   110   54   55 am   BACKBONE|DICT|INTERRES
   111   54  179 1    
   112   55   56 2    
   113   55   57 1    
   114   57   58 1    
   115   57   59 1    
   116   57  180 1    
   117   58  181 1    
   118   58  182 1    
   119   58  183 1    
   120   59   60 am   BACKBONE|DICT|INTERRES
   121   59  184 1    
   122   60   61 2    
   123   60   62 1    
   124   62   63 1    
   125   62   64 1    
   126   62  185 1    
   127   63  186 1    
   128   63  187 1    
   129   63  188 1    
   130   64   65 am   BACKBONE|DICT|INTERRES
   131   64  189 1    
   132   65   66 2    
   133   67   68 2    
   134   67   69 am   BACKBONE|DICT|INTERRES
   135   69   70 1    
   136   69  190 1    
   137   70   71 1    
   138   70   72 1    
   139   70  191 1    
   140   71  192 1    
   141   71  193 1    
   142   71  194 1    
   143   72   73 2    
   144   72   74 am   BACKBONE|DICT|INTERRES
   145   74   75 1    
   146   74  195 1    
   147   75   76 1    
   148   75   77 1    
   149   75  196 1    
   150   76  197 1    
   151   76  198 1    
   152   76  199 1    
   153   77   78 2    
   154   77   79 am   BACKBONE|DICT|INTERRES
   155   79   80 1    
   156   79  200 1    
   157   80   81 1    
   158   80   82 1    
   159   80  201 1    
   160   81  202 1    
   161   81  203 1    
   162   81  204 1    
   163   82   83 2    
   164   82   84 am   BACKBONE|DICT|INTERRES
   165   84   85 1    
   166   84  205 1    
   167   85   86 1    
   168   85   87 1    
   169   85  206 1    
   170   86  207 1    
   171   86  208 1    
   172   86  209 1    
   173   87   88 2    
   174   87   89 am   BACKBONE|DICT|INTERRES
   175   89   90 1    
   176   89  210 1    
   177   90   91 1    
   178   90   92 1    
   179   90  211 1    
   180   91  212 1    
   181   91  213 1    
   182   91  214 1    
   183   92   93 2    
   184   92   94 am   BACKBONE|DICT|INTERRES
   185   94   95 1    
   186   94  215 1    
   187   95   96 1    
   188   95   97 1    
   189   95  216 1    
   190   96  217 1    
   191   96  218 1    
   192   96  219 1    
   193   97   98 2    
   194   97   99 am   BACKBONE|DICT|INTERRES
   195   99  100 1    
   196   99  220 1    
   197  100  101 1    
   198  100  102 1    
   199  100  221 1    
   200  101  222 1    
   201  101  223 1    
   202  101  224 1    
   203  102  103 2    
   204  102  104 am   BACKBONE|DICT|INTERRES
   205  104  105 1    
   206  104  225 1    
   207  105  106 1    
   208  105  107 1    
   209  105  226 1    
   210  106  227 1    
   211  106  228 1    
   212  106  229 1    
   213  107  108 2    
   214  107  109 am   BACKBONE|DICT|INTERRES
   215  109  110 1    
   216  109  230 1    
   217  110  111 1    
   218  110  112 1    
   219  110  231 1    
   220  111  232 1    
   221  111  233 1    
   222  111  234 1    
   223  112  113 2    
   224  112  114 am   BACKBONE|DICT|INTERRES
   225  114  115 1    
   226  114  235 1    
   227  115  116 1    
   228  115  117 1    
   229  115  236 1    
   230  116  237 1    
   231  116  238 1    
   232  116  239 1    
   233  117  118 2    
   234  117  119 am   BACKBONE|DICT|INTERRES
   235  119  120 1    
   236  119  240 1    
   237  120  121 1    
   238  120  124 1    
   239  120  241 1    
   240  121  122 am   BACKBONE|DICT|INTERRES
   241  121  123 2    
   242  122  242 1    
   243  122  243 1    
   244  124  125 1    
   245  124  244 1    
   246  124  245 1    
   247  125  126 1    
   248  126  246 1    
   249  126  247 1    
@<TRIPOS>SUBSTRUCTURE
     1 UNK         1 GROUP             0       ****    0 ROOT    
