@<TRIPOS>MOLECULE
3R540
247   249    1
SMALL
USER_CHARGES


@<TRIPOS>ATOM
      1 CA          3.7559  -11.1712  -52.7543 C.3       0 UNK        -0.1800 
      2 C           3.3180  -12.0074  -51.5600 C.2       0 UNK         0.5000 
      3 O           2.6059  -12.9935  -51.7451 O.2       0 UNK        -0.5000 
      4 N           3.7329  -11.5942  -50.3528 N.am      1 UNK        -0.5000 
      5 CA          3.5310  -12.1675  -49.0075 C.3       1 UNK         0.1400 
      6 C6          4.4382  -13.3880  -48.6752 C.3       23 UNK        -0.0398 
      7 S7          4.1922  -14.8972  -49.6738 S.3       23 UNK        -0.2404 
      8 C8          3.1969  -15.9032  -48.5344 C.3       23 UNK        -0.0205 
      9 C9          2.3968  -16.9729  -49.2562 C.ar      23 UNK        -0.0193 
     10 C10         1.4208  -16.6023  -50.1829 C.ar      23 UNK        -0.1150 
     11 C11         0.6198  -17.5655  -50.7974 C.ar      23 UNK        -0.0193 
     12 C12         0.7875  -18.9143  -50.4610 C.ar      23 UNK        -0.1150 
     13 C13         1.7627  -19.3038  -49.5328 C.ar      23 UNK        -0.0193 
     14 C14         2.5795  -18.3238  -48.9535 C.ar      23 UNK        -0.1150 
     15 C15         1.9218  -20.7799  -49.1683 C.3       23 UNK        -0.0205 
     16 S16         2.2608  -21.0592  -47.3936 S.3       23 UNK        -0.2404 
     17 C17         2.2419  -22.8802  -47.2878 C.3       23 UNK        -0.0398 
     18 CA          1.1261  -23.4536  -46.3807 C.3       11 UNK         0.1400 
     19 N           1.2484  -23.0251  -44.9843 N.am      11 UNK        -0.5000 
     20 C           0.6756  -23.6455  -43.9427 C.2       10 UNK         0.5000 
     21 O           0.0094  -24.6758  -44.0618 O.2       10 UNK        -0.5000 
     22 CA          0.8049  -22.9851  -42.5537 C.3       10 UNK         0.1400 
     23 CB          1.1634  -24.0017  -41.4512 C.3       10 UNK        -0.1800 
     24 N           1.6909  -21.8159  -42.5209 N.am      10 UNK        -0.5000 
     25 C           3.0260  -21.7652  -42.6336 C.2       9 UNK         0.5000 
     26 O           3.7459  -22.7554  -42.7609 O.2       9 UNK        -0.5000 
     27 CA          3.6671  -20.3618  -42.6351 C.3       9 UNK         0.1400 
     28 CB          4.0799  -19.9704  -44.0627 C.3       9 UNK        -0.1800 
     29 N           2.7883  -19.3178  -42.1020 N.am      9 UNK        -0.5000 
     30 C           2.4734  -19.1566  -40.8095 C.2       8 UNK         0.5000 
     31 O           2.9444  -19.8397  -39.8997 O.2       8 UNK        -0.5000 
     32 CA          1.4264  -18.0727  -40.4867 C.3       8 UNK         0.1400 
     33 CB          2.0773  -16.6833  -40.4087 C.3       8 UNK        -0.1800 
     34 N           0.3299  -18.0471  -41.4581 N.am      8 UNK        -0.5000 
     35 C          -0.5884  -19.0154  -41.5909 C.2       7 UNK         0.5000 
     36 O          -0.6308  -20.0205  -40.8820 O.2       7 UNK        -0.5000 
     37 CA         -1.6058  -18.8584  -42.7340 C.3       7 UNK         0.1400 
     38 CB         -2.7784  -17.9627  -42.3098 C.3       7 UNK        -0.1800 
     39 N          -0.9981  -18.3209  -43.9488 N.am      7 UNK        -0.5000 
     40 C          -0.1083  -18.9721  -44.7101 C.2       6 UNK         0.5000 
     41 O           0.2348  -20.1386  -44.5158 O.2       6 UNK        -0.5000 
     42 CA          0.5003  -18.1798  -45.8803 C.3       6 UNK         0.1400 
     43 CB         -0.4290  -18.2638  -47.0989 C.3       6 UNK        -0.1800 
     44 N           0.7659  -16.7791  -45.5391 N.am      6 UNK        -0.5000 
     45 C           1.6174  -16.3903  -44.5773 C.2       5 UNK         0.5000 
     46 O           2.3060  -17.1725  -43.9242 O.2       5 UNK        -0.5000 
     47 CA          1.6735  -14.8919  -44.2390 C.3       5 UNK         0.1400 
     48 CB          2.7616  -14.1795  -45.0484 C.3       5 UNK        -0.1800 
     49 N           0.3835  -14.2384  -44.4518 N.am      5 UNK        -0.5000 
     50 C          -0.6470  -14.3454  -43.6015 C.2       4 UNK         0.5000 
     51 O          -0.5894  -14.9575  -42.5341 O.2       4 UNK        -0.5000 
     52 CA         -1.9748  -13.7000  -44.0405 C.3       4 UNK         0.1400 
     53 CB         -1.9530  -12.1844  -43.7916 C.3       4 UNK        -0.1800 
     54 N          -2.2869  -13.9567  -45.4477 N.am      4 UNK        -0.5000 
     55 C          -2.5281  -15.1709  -45.9617 C.2       3 UNK         0.5000 
     56 O          -2.5607  -16.1988  -45.2862 O.2       3 UNK        -0.5000 
     57 CA         -2.7347  -15.2640  -47.4873 C.3       3 UNK         0.1400 
     58 CB         -4.2312  -15.2731  -47.8307 C.3       3 UNK        -0.1800 
     59 N          -2.0680  -14.2133  -48.2620 N.am      3 UNK        -0.5000 
     60 C          -0.7472  -13.9838  -48.2911 C.2       2 UNK         0.5000 
     61 O           0.0605  -14.6005  -47.5927 O.2       2 UNK        -0.5000 
     62 CA         -0.2926  -12.8875  -49.2787 C.3       2 UNK         0.1400 
     63 CB         -0.9332  -11.5224  -48.9473 C.3       2 UNK        -0.1800 
     64 N           1.1608  -12.7514  -49.4256 N.am      2 UNK        -0.5000 
     65 C           2.0623  -12.3240  -48.5335 C.2       1 UNK         0.5000 
     66 O           1.7762  -11.9941  -47.3816 O.2       1 UNK        -0.5000 
     67 C          -0.2837  -23.1912  -46.9500 C.2       11 UNK         0.5000 
     68 O          -0.6579  -23.8313  -47.9329 O.2       11 UNK        -0.5000 
     69 N          -1.0550  -22.2961  -46.3090 N.am      12 UNK        -0.5000 
     70 CA         -2.4480  -22.0060  -46.6452 C.3       12 UNK         0.1400 
     71 CB         -3.0165  -20.9254  -45.7156 C.3       12 UNK        -0.1800 
     72 C          -3.3517  -23.2474  -46.6271 C.2       12 UNK         0.5000 
     73 O          -4.1248  -23.4369  -47.5642 O.2       12 UNK        -0.5000 
     74 N          -3.2045  -24.0742  -45.5834 N.am      13 UNK        -0.5000 
     75 CA         -3.9396  -25.3260  -45.4127 C.3       13 UNK         0.1400 
     76 CB         -3.8135  -25.7891  -43.9535 C.3       13 UNK        -0.1800 
     77 C          -3.4565  -26.4253  -46.3739 C.2       13 UNK         0.5000 
     78 O          -4.2776  -27.1887  -46.8832 O.2       13 UNK        -0.5000 
     79 N          -2.1390  -26.4736  -46.6223 N.am      14 UNK        -0.5000 
     80 CA         -1.4994  -27.4202  -47.5403 C.3       14 UNK         0.1400 
     81 CB          0.0271  -27.3248  -47.3976 C.3       14 UNK        -0.1800 
     82 C          -1.9268  -27.1998  -49.0030 C.2       14 UNK         0.5000 
     83 O          -2.1660  -28.1695  -49.7225 O.2       14 UNK        -0.5000 
     84 N          -2.0654  -25.9269  -49.3928 N.am      15 UNK        -0.5000 
     85 CA         -2.5638  -25.4828  -50.6934 C.3       15 UNK         0.1400 
     86 CB         -1.7097  -24.2938  -51.1631 C.3       15 UNK        -0.1800 
     87 C          -4.0726  -25.1530  -50.6514 C.2       15 UNK         0.5000 
     88 O          -4.5255  -24.2808  -51.3974 O.2       15 UNK        -0.5000 
     89 N          -4.8193  -25.8462  -49.7773 N.am      16 UNK        -0.5000 
     90 CA         -6.2717  -25.8272  -49.5487 C.3       16 UNK         0.1400 
     91 CB         -7.0362  -26.2769  -50.8085 C.3       16 UNK        -0.1800 
     92 C          -6.8359  -24.5007  -49.0026 C.2       16 UNK         0.5000 
     93 O          -7.5360  -24.5080  -47.9891 O.2       16 UNK        -0.5000 
     94 N          -6.5251  -23.3967  -49.6832 N.am      17 UNK        -0.5000 
     95 CA         -6.8879  -22.0277  -49.3335 C.3       17 UNK         0.1400 
     96 CB         -8.3025  -21.7073  -49.8540 C.3       17 UNK        -0.1800 
     97 C          -5.8111  -21.0785  -49.8828 C.2       17 UNK         0.5000 
     98 O          -6.1326  -20.0864  -50.5402 O.2       17 UNK        -0.5000 
     99 N          -4.5391  -21.4417  -49.6583 N.am      18 UNK        -0.5000 
    100 CA        -3.3329  -20.7591  -50.1454 C.3       18 UNK         0.1400 
    101 CB        -3.1563  -19.4025  -49.4266 C.3       18 UNK        -0.1800 
    102 C         -3.2974  -20.6319  -51.6825 C.2       18 UNK         0.5000 
    103 O         -2.9228  -19.5812  -52.1974 O.2       18 UNK        -0.5000 
    104 N         -3.7385  -21.6850  -52.3891 N.am      19 UNK        -0.5000 
    105 CA        -3.9144  -21.7442  -53.8461 C.3       19 UNK         0.1400 
    106 CB        -2.5479  -21.7058  -54.5635 C.3       19 UNK        -0.1800 
    107 C         -4.8993  -20.6700  -54.3610 C.2       19 UNK         0.5000 
    108 O         -4.6399  -20.0290  -55.3805 O.2       19 UNK        -0.5000 
    109 N         -5.9938  -20.4777  -53.6070 N.am      20 UNK        -0.5000 
    110 CA        -7.0012  -19.4202  -53.7446 C.3       20 UNK         0.1400 
    111 CB        -7.7871  -19.5640  -55.0649 C.3       20 UNK        -0.1800 
    112 C         -6.3752  -18.0245  -53.5492 C.2       20 UNK         0.5000 
    113 O         -6.5003  -17.1568  -54.4164 O.2       20 UNK        -0.5000 
    114 N         -5.6631  -17.8641  -52.4223 N.am      21 UNK        -0.5000 
    115 CA        -4.8851  -16.6829  -52.0206 C.3       21 UNK         0.1400 
    116 CB        -5.8322  -15.5418  -51.5974 C.3       21 UNK        -0.1800 
    117 C         -3.8486  -16.2435  -53.0802 C.2       21 UNK         0.5000 
    118 O         -3.6410  -15.0465  -53.2864 O.2       21 UNK        -0.5000 
    119 N         -3.2415  -17.2324  -53.7486 N.am      22 UNK        -0.5000 
    120 CA        -2.3375  -17.1021  -54.9018 C.3       22 UNK         0.1400 
    121 C         -2.9845  -16.4562  -56.1697 C.2       22 UNK         0.5000 
    122 N         -4.3053  -16.3656  -56.2798 N.am      22 UNK        -0.7600 
    123 O         -2.2816  -16.0577  -57.0949 O.2       22 UNK        -0.5000 
    124 C124       -0.9721  -16.4638  -54.5162 C.3       23 UNK        -0.0398 
    125 S125        0.0683  -17.5718  -53.5034 S.3       23 UNK        -0.2404 
    126 C126       -0.4303  -17.1337  -51.8096 C.3       23 UNK        -0.0205 
    127 H127        4.3297  -11.7841  -53.4495 H         1 UNK         0.0600 
    128 H128        2.8836  -10.7835  -53.2804 H         1 UNK         0.0600 
    129 H129        4.3762  -10.3259  -52.4551 H         1 UNK         0.0600 
    130 H130        4.2841  -10.7475  -50.3371 H         1 UNK         0.3000 
    131 H131        3.9103  -11.3692  -48.3669 H         1 UNK         0.0600 
    132 H132        4.3595  -13.6388  -47.6166 H         1 UNK         0.0800 
    133 H133        5.4787  -13.0918  -48.8128 H         1 UNK         0.0800 
    134 H134        2.4864  -15.2638  -48.0177 H         1 UNK         0.0800 
    135 H135        3.8435  -16.3362  -47.7698 H         1 UNK         0.0800 
    136 H136        1.2842  -15.5560  -50.4175 H         1 UNK         0.1150 
    137 H137        0.1567  -19.6575  -50.9285 H         1 UNK         0.1150 
    138 H138        3.3357  -18.6078  -48.2359 H         1 UNK         0.1150 
    139 H139        1.0180  -21.3295  -49.4372 H         1 UNK         0.0800 
    140 H140        2.7359  -21.2006  -49.7597 H         1 UNK         0.0800 
    141 H141        3.2134  -23.1983  -46.9074 H         1 UNK         0.0800 
    142 H142        2.1695  -23.3076  -48.2896 H         1 UNK         0.0800 
    143 H143        1.2534  -24.5377  -46.3876 H         1 UNK         0.0600 
    144 H144        1.7110  -22.1413  -44.8225 H         1 UNK         0.3000 
    145 H145       -0.1881  -22.5966  -42.3234 H         1 UNK         0.0600 
    146 H146        1.2396  -23.5167  -40.4780 H         1 UNK         0.0600 
    147 H147        0.3973  -24.7735  -41.3688 H         1 UNK         0.0600 
    148 H148        2.1088  -24.5056  -41.6524 H         1 UNK         0.0600 
    149 H149        1.2094  -20.9275  -42.4785 H         1 UNK         0.3000 
    150 H150        4.5655  -20.4086  -42.0164 H         1 UNK         0.0600 
    151 H151        4.7423  -20.7170  -44.5026 H         1 UNK         0.0600 
    152 H152        4.6105  -19.0182  -44.0724 H         1 UNK         0.0600 
    153 H153        3.2125  -19.8737  -44.7164 H         1 UNK         0.0600 
    154 H154        2.4182  -18.6533  -42.7779 H         1 UNK         0.3000 
    155 H155        1.0016  -18.3011  -39.5070 H         1 UNK         0.0600 
    156 H156        2.5496  -16.4029  -41.3500 H         1 UNK         0.0600 
    157 H157        2.8480  -16.6588  -39.6373 H         1 UNK         0.0600 
    158 H158        1.3433  -15.9163  -40.1608 H         1 UNK         0.0600 
    159 H159        0.2864  -17.2501  -42.0785 H         1 UNK         0.3000 
    160 H160       -2.0012  -19.8497  -42.9607 H         1 UNK         0.0600 
    161 H161       -3.5342  -17.9089  -43.0937 H         1 UNK         0.0600 
    162 H162       -2.4514  -16.9456  -42.0922 H         1 UNK         0.0600 
    163 H163       -3.2642  -18.3520  -41.4143 H         1 UNK         0.0600 
    164 H164       -1.2990  -17.3960  -44.2388 H         1 UNK         0.3000 
    165 H165        1.4588  -18.6294  -46.1386 H         1 UNK         0.0600 
    166 H166       -0.1278  -17.5723  -47.8840 H         1 UNK         0.0600 
    167 H167       -0.4172  -19.2692  -47.5212 H         1 UNK         0.0600 
    168 H168       -1.4618  -18.0433  -46.8367 H         1 UNK         0.0600 
    169 H169        0.2789  -16.0700  -46.0750 H         1 UNK         0.3000 
    170 H170        1.9408  -14.8041  -43.1838 H         1 UNK         0.0600 
    171 H171        3.7287  -14.6694  -44.9286 H         1 UNK         0.0600 
    172 H172        2.5203  -14.1750  -46.1074 H         1 UNK         0.0600 
    173 H173        2.8757  -13.1435  -44.7295 H         1 UNK         0.0600 
    174 H174        0.2517  -13.7698  -45.3388 H         1 UNK         0.3000 
    175 H175       -2.7718  -14.1350  -43.4337 H         1 UNK         0.0600 
    176 H176       -2.9184  -11.7333  -44.0219 H         1 UNK         0.0600 
    177 H177       -1.7337  -11.9642  -42.7460 H         1 UNK         0.0600 
    178 H178       -1.1959  -11.6858  -44.3983 H         1 UNK         0.0600 
    179 H179       -2.2734  -13.1650  -46.0730 H         1 UNK         0.3000 
    180 H180       -2.3160  -16.2135  -47.8192 H         1 UNK         0.0600 
    181 H181       -4.7096  -14.3273  -47.5735 H         1 UNK         0.0600 
    182 H182       -4.7519  -16.0636  -47.2881 H         1 UNK         0.0600 
    183 H183       -4.3907  -15.4547  -48.8932 H         1 UNK         0.0600 
    184 H184       -2.6667  -13.6589  -48.8564 H         1 UNK         0.3000 
    185 H185       -0.6507  -13.1941  -50.2625 H         1 UNK         0.0600 
    186 H186       -0.7023  -11.2001  -47.9315 H         1 UNK         0.0600 
    187 H187       -0.5836  -10.7480  -49.6304 H         1 UNK         0.0600 
    188 H188       -2.0192  -11.5578  -49.0370 H         1 UNK         0.0600 
    189 H189        1.5348  -12.9940  -50.3423 H         1 UNK         0.3000 
    190 H190       -0.6452  -21.7715  -45.5442 H         1 UNK         0.3000 
    191 H191       -2.4477  -21.6172  -47.6591 H         1 UNK         0.0600 
    192 H192       -2.5084  -19.9747  -45.8561 H         1 UNK         0.0600 
    193 H193       -2.9282  -21.2095  -44.6671 H         1 UNK         0.0600 
    194 H194       -4.0736  -20.7490  -45.9202 H         1 UNK         0.0600 
    195 H195       -2.5184  -23.8492  -44.8776 H         1 UNK         0.3000 
    196 H196       -4.9950  -25.1385  -45.6235 H         1 UNK         0.0600 
    197 H197       -4.3615  -26.7180  -43.7899 H         1 UNK         0.0600 
    198 H198       -4.2220  -25.0465  -43.2680 H         1 UNK         0.0600 
    199 H199       -2.7737  -25.9669  -43.6749 H         1 UNK         0.0600 
    200 H200       -1.5379  -25.8033  -46.1655 H         1 UNK         0.3000 
    201 H201       -1.8066  -28.4268  -47.2489 H         1 UNK         0.0600 
    202 H202        0.3397  -27.4729  -46.3637 H         1 UNK         0.0600 
    203 H203        0.4044  -26.3577  -47.7292 H         1 UNK         0.0600 
    204 H204        0.5202  -28.0891  -47.9995 H         1 UNK         0.0600 
    205 H205       -1.8031  -25.1912  -48.7423 H         1 UNK         0.3000 
    206 H206       -2.4422  -26.2815  -51.4275 H         1 UNK         0.0600 
    207 H207       -0.6555  -24.5664  -51.2152 H         1 UNK         0.0600 
    208 H208       -2.0038  -23.9609  -52.1584 H         1 UNK         0.0600 
    209 H209       -1.7969  -23.4485  -50.4833 H         1 UNK         0.0600 
    210 H210       -4.3206  -26.4819  -49.1689 H         1 UNK         0.3000 
    211 H211       -6.4506  -26.5778  -48.7772 H         1 UNK         0.0600 
    212 H212       -6.8996  -25.5846  -51.6397 H         1 UNK         0.0600 
    213 H213       -8.1070  -26.3406  -50.6113 H         1 UNK         0.0600 
    214 H214       -6.7073  -27.2628  -51.1368 H         1 UNK         0.0600 
    215 H215       -5.8974  -23.5119  -50.4756 H         1 UNK         0.3000 
    216 H216       -6.8785  -21.9190  -48.2471 H         1 UNK         0.0600 
    217 H217       -8.5955  -20.6899  -49.5921 H         1 UNK         0.0600 
    218 H218       -9.0445  -22.3784  -49.4214 H         1 UNK         0.0600 
    219 H219       -8.3601  -21.7994  -50.9392 H         1 UNK         0.0600 
    220 H220       -4.3890  -22.2754  -49.0950 H         1 UNK         0.3000 
    221 H221       -2.4800  -21.3827  -49.8838 H         1 UNK         0.0600 
    222 H222       -3.9481  -18.7020  -49.6868 H         1 UNK         0.0600 
    223 H223       -3.1707  -19.5156  -48.3440 H         1 UNK         0.0600 
    224 H224       -2.2051  -18.9383  -49.6876 H         1 UNK         0.0600 
    225 H225       -4.0298  -22.5212  -51.8899 H         1 UNK         0.3000 
    226 H226       -4.3735  -22.7101  -54.0612 H         1 UNK         0.0600 
    227 H227       -1.8816  -22.4806  -54.1855 H         1 UNK         0.0600 
    228 H228       -2.6650  -21.8743  -55.6345 H         1 UNK         0.0600 
    229 H229       -2.0483  -20.7446  -54.4379 H         1 UNK         0.0600 
    230 H230       -6.0686  -21.0219  -52.7593 H         1 UNK         0.3000 
    231 H231       -7.7086  -19.5582  -52.9254 H         1 UNK         0.0600 
    232 H232       -8.2242  -20.5581  -55.1565 H         1 UNK         0.0600 
    233 H233       -7.1571  -19.3926  -55.9381 H         1 UNK         0.0600 
    234 H234       -8.6049  -18.8440  -55.1088 H         1 UNK         0.0600 
    235 H235       -5.6373  -18.6474  -51.7746 H         1 UNK         0.3000 
    236 H236       -4.3072  -16.9731  -51.1439 H         1 UNK         0.0600 
    237 H237       -5.2741  -14.6947  -51.1971 H         1 UNK         0.0600 
    238 H238       -6.4237  -15.1768  -52.4376 H         1 UNK         0.0600 
    239 H239       -6.5211  -15.8710  -50.8195 H         1 UNK         0.0600 
    240 H240       -3.4066  -18.1844  -53.4347 H         1 UNK         0.3000 
    241 H241       -2.1367  -18.1271  -55.2154 H         1 UNK         0.0600 
    242 H242       -4.7034  -15.9587  -57.1107 H         1 UNK         0.3800 
    243 H243       -4.9200  -16.6972  -55.5431 H         1 UNK         0.3800 
    244 H244       -0.3830  -16.2447  -55.4076 H         1 UNK         0.0800 
    245 H245       -1.1077  -15.5055  -54.0142 H         1 UNK         0.0800 
    246 H246       -1.3822  -17.6064  -51.5733 H         1 UNK         0.0800 
    247 H247       -0.5982  -16.0578  -51.7445 H         1 UNK         0.0800 
@<TRIPOS>BOND
     1    1    2 1    
     2    1  127 1    
     3    1  128 1    
     4    1  129 1    
     5    2    3 2    
     6    2    4 am   BACKBONE|DICT|INTERRES
     7    4    5 1    
     8    4  130 1    
     9    5    6 1    
    10    5   65 1    
    11    5  131 1    
    12    6    7 1    
    13    6  132 1    
    14    6  133 1    
    15    7    8 1    
    16    8    9 1    
    17    8  134 1    
    18    8  135 1    
    19    9   10 ar   
    20    9   14 ar   
    21   10   11 ar   
    22   10  136 1    
    23   11   12 ar   
    24   11  126 1    
    25   12   13 ar   
    26   12  137 1    
    27   13   14 ar   
    28   13   15 1    
    29   14  138 1    
    30   15   16 1    
    31   15  139 1    
    32   15  140 1    
    33   16   17 1    
    34   17   18 1    
    35   17  141 1    
    36   17  142 1    
    37   18   19 1    
    38   18   67 1    
    39   18  143 1    
    40   19   20 am   BACKBONE|DICT|INTERRES
    41   19  144 1    
    42   20   21 2    
    43   20   22 1    
    44   22   23 1    
    45   22   24 1    
    46   22  145 1    
    47   23  146 1    
    48   23  147 1    
    49   23  148 1    
    50   24   25 am   BACKBONE|DICT|INTERRES
    51   24  149 1    
    52   25   26 2    
    53   25   27 1    
    54   27   28 1    
    55   27   29 1    
    56   27  150 1    
    57   28  151 1    
    58   28  152 1    
    59   28  153 1    
    60   29   30 am   BACKBONE|DICT|INTERRES
    61   29  154 1    
    62   30   31 2    
    63   30   32 1    
    64   32   33 1    
    65   32   34 1    
    66   32  155 1    
    67   33  156 1    
    68   33  157 1    
    69   33  158 1    
    70   34   35 am   BACKBONE|DICT|INTERRES
    71   34  159 1    
    72   35   36 2    
    73   35   37 1    
    74   37   38 1    
    75   37   39 1    
    76   37  160 1    
    77   38  161 1    
    78   38  162 1    
    79   38  163 1    
    80   39   40 am   BACKBONE|DICT|INTERRES
    81   39  164 1    
    82   40   41 2    
    83   40   42 1    
    84   42   43 1    
    85   42   44 1    
    86   42  165 1    
    87   43  166 1    
    88   43  167 1    
    89   43  168 1    
    90   44   45 am   BACKBONE|DICT|INTERRES
    91   44  169 1    
    92   45   46 2    
    93   45   47 1    
    94   47   48 1    
    95   47   49 1    
    96   47  170 1    
    97   48  171 1    
    98   48  172 1    
    99   48  173 1    
   100   49   50 am   BACKBONE|DICT|INTERRES
   101   49  174 1    
   102   50   51 2    
   103   50   52 1    
   104   52   53 1    
   105   52   54 1    
   106   52  175 1    
   107   53  176 1    
   108   53  177 1    
   109   53  178 1    
   110   54   55 am   BACKBONE|DICT|INTERRES
   111   54  179 1    
   112   55   56 2    
   113   55   57 1    
   114   57   58 1    
   115   57   59 1    
   116   57  180 1    
   117   58  181 1    
   118   58  182 1    
   119   58  183 1    
   120   59   60 am   BACKBONE|DICT|INTERRES
   121   59  184 1    
   122   60   61 2    
   123   60   62 1    
   124   62   63 1    
   125   62   64 1    
   126   62  185 1    
   127   63  186 1    
   128   63  187 1    
   129   63  188 1    
   130   64   65 am   BACKBONE|DICT|INTERRES
   131   64  189 1    
   132   65   66 2    
   133   67   68 2    
   134   67   69 am   BACKBONE|DICT|INTERRES
   135   69   70 1    
   136   69  190 1    
   137   70   71 1    
   138   70   72 1    
   139   70  191 1    
   140   71  192 1    
   141   71  193 1    
   142   71  194 1    
   143   72   73 2    
   144   72   74 am   BACKBONE|DICT|INTERRES
   145   74   75 1    
   146   74  195 1    
   147   75   76 1    
   148   75   77 1    
   149   75  196 1    
   150   76  197 1    
   151   76  198 1    
   152   76  199 1    
   153   77   78 2    
   154   77   79 am   BACKBONE|DICT|INTERRES
   155   79   80 1    
   156   79  200 1    
   157   80   81 1    
   158   80   82 1    
   159   80  201 1    
   160   81  202 1    
   161   81  203 1    
   162   81  204 1    
   163   82   83 2    
   164   82   84 am   BACKBONE|DICT|INTERRES
   165   84   85 1    
   166   84  205 1    
   167   85   86 1    
   168   85   87 1    
   169   85  206 1    
   170   86  207 1    
   171   86  208 1    
   172   86  209 1    
   173   87   88 2    
   174   87   89 am   BACKBONE|DICT|INTERRES
   175   89   90 1    
   176   89  210 1    
   177   90   91 1    
   178   90   92 1    
   179   90  211 1    
   180   91  212 1    
   181   91  213 1    
   182   91  214 1    
   183   92   93 2    
   184   92   94 am   BACKBONE|DICT|INTERRES
   185   94   95 1    
   186   94  215 1    
   187   95   96 1    
   188   95   97 1    
   189   95  216 1    
   190   96  217 1    
   191   96  218 1    
   192   96  219 1    
   193   97   98 2    
   194   97   99 am   BACKBONE|DICT|INTERRES
   195   99  100 1    
   196   99  220 1    
   197  100  101 1    
   198  100  102 1    
   199  100  221 1    
   200  101  222 1    
   201  101  223 1    
   202  101  224 1    
   203  102  103 2    
   204  102  104 am   BACKBONE|DICT|INTERRES
   205  104  105 1    
   206  104  225 1    
   207  105  106 1    
   208  105  107 1    
   209  105  226 1    
   210  106  227 1    
   211  106  228 1    
   212  106  229 1    
   213  107  108 2    
   214  107  109 am   BACKBONE|DICT|INTERRES
   215  109  110 1    
   216  109  230 1    
   217  110  111 1    
   218  110  112 1    
   219  110  231 1    
   220  111  232 1    
   221  111  233 1    
   222  111  234 1    
   223  112  113 2    
   224  112  114 am   BACKBONE|DICT|INTERRES
   225  114  115 1    
   226  114  235 1    
   227  115  116 1    
   228  115  117 1    
   229  115  236 1    
   230  116  237 1    
   231  116  238 1    
   232  116  239 1    
   233  117  118 2    
   234  117  119 am   BACKBONE|DICT|INTERRES
   235  119  120 1    
   236  119  240 1    
   237  120  121 1    
   238  120  124 1    
   239  120  241 1    
   240  121  122 am   BACKBONE|DICT|INTERRES
   241  121  123 2    
   242  122  242 1    
   243  122  243 1    
   244  124  125 1    
   245  124  244 1    
   246  124  245 1    
   247  125  126 1    
   248  126  246 1    
   249  126  247 1    
@<TRIPOS>SUBSTRUCTURE
     1 UNK         1 GROUP             0       ****    0 ROOT    
