@<TRIPOS>MOLECULE
3R540
247   249    1
SMALL
USER_CHARGES


@<TRIPOS>ATOM
      1 CA         -1.3986  -11.8059  -51.0333 C.3       0 UNK        -0.1800 
      2 C          -0.1202  -11.0919  -50.6158 C.2       0 UNK         0.5000 
      3 O          -0.0572   -9.8630  -50.6656 O.2       0 UNK        -0.5000 
      4 N           0.8978  -11.8599  -50.2128 N.am      1 UNK        -0.5000 
      5 CA          2.1661  -11.3687  -49.6677 C.3       1 UNK         0.1400 
      6 C6          3.2644  -12.4615  -49.7400 C.3       23 UNK        -0.0398 
      7 S7          2.9128  -13.9299  -48.7145 S.3       23 UNK        -0.2404 
      8 C8          2.5416  -15.2148  -49.9459 C.3       23 UNK        -0.0205 
      9 C9          1.9443  -16.4340  -49.2609 C.ar      23 UNK        -0.0193 
     10 C10         0.5852  -16.7312  -49.3975 C.ar      23 UNK        -0.1150 
     11 C11         0.0228  -17.8110  -48.7099 C.ar      23 UNK        -0.0193 
     12 C12         0.8330  -18.6072  -47.8961 C.ar      23 UNK        -0.1150 
     13 C13         2.1939  -18.3217  -47.7552 C.ar      23 UNK        -0.0193 
     14 C14         2.7449  -17.2406  -48.4476 C.ar      23 UNK        -0.1150 
     15 C15         3.0633  -19.1402  -46.8155 C.3       23 UNK        -0.0205 
     16 S16         3.9317  -20.4850  -47.6796 S.3       23 UNK        -0.2404 
     17 C17         2.6838  -21.8140  -47.6322 C.3       23 UNK        -0.0398 
     18 CA          2.9227  -22.7948  -46.4570 C.3       11 UNK         0.1400 
     19 N           2.7260  -22.1393  -45.1668 N.am      11 UNK        -0.5000 
     20 C           3.6311  -22.0370  -44.1861 C.2       10 UNK         0.5000 
     21 O           4.7885  -22.4484  -44.2756 O.2       10 UNK        -0.5000 
     22 CA          3.1706  -21.3635  -42.8741 C.3       10 UNK         0.1400 
     23 CB          3.6708  -19.9110  -42.8099 C.3       10 UNK        -0.1800 
     24 N           1.7170  -21.3618  -42.7064 N.am      10 UNK        -0.5000 
     25 C           0.9546  -22.4503  -42.5346 C.2       9 UNK         0.5000 
     26 O           1.4137  -23.5749  -42.3314 O.2       9 UNK        -0.5000 
     27 CA         -0.5738  -22.2597  -42.6250 C.3       9 UNK         0.1400 
     28 CB         -1.2310  -22.4996  -41.2567 C.3       9 UNK        -0.1800 
     29 N          -1.0015  -20.9472  -43.1205 N.am      9 UNK        -0.5000 
     30 C          -0.7983  -20.4375  -44.3415 C.2       8 UNK         0.5000 
     31 O          -0.1425  -21.0034  -45.2157 O.2       8 UNK        -0.5000 
     32 CA         -1.3907  -19.0431  -44.6211 C.3       8 UNK         0.1400 
     33 CB         -2.9021  -19.1226  -44.9009 C.3       8 UNK        -0.1800 
     34 N          -1.0835  -18.0275  -43.6061 N.am      8 UNK        -0.5000 
     35 C          -1.4546  -17.9543  -42.3185 C.2       7 UNK         0.5000 
     36 O          -2.1317  -18.8059  -41.7414 O.2       7 UNK        -0.5000 
     37 CA         -0.9959  -16.7005  -41.5511 C.3       7 UNK         0.1400 
     38 CB          0.5094  -16.7606  -41.2451 C.3       7 UNK        -0.1800 
     39 N          -1.2998  -15.4744  -42.2883 N.am      7 UNK        -0.5000 
     40 C          -2.5386  -15.0055  -42.5020 C.2       6 UNK         0.5000 
     41 O          -3.5531  -15.4913  -42.0006 O.2       6 UNK        -0.5000 
     42 CA         -2.6690  -13.8103  -43.4623 C.3       6 UNK         0.1400 
     43 CB         -2.5019  -12.4766  -42.7176 C.3       6 UNK        -0.1800 
     44 N          -1.6990  -13.8977  -44.5543 N.am      6 UNK        -0.5000 
     45 C          -1.8345  -14.7154  -45.6087 C.2       5 UNK         0.5000 
     46 O          -2.8324  -15.4064  -45.8128 O.2       5 UNK        -0.5000 
     47 CA         -0.6605  -14.7878  -46.5999 C.3       5 UNK         0.1400 
     48 CB         -0.9124  -13.8604  -47.7960 C.3       5 UNK        -0.1800 
     49 N           0.6328  -14.4772  -45.9859 N.am      5 UNK        -0.5000 
     50 C           1.2806  -15.3172  -45.1652 C.2       4 UNK         0.5000 
     51 O           0.8624  -16.4370  -44.8732 O.2       4 UNK        -0.5000 
     52 CA          2.5692  -14.8104  -44.4914 C.3       4 UNK         0.1400 
     53 CB          3.8243  -15.2171  -45.2741 C.3       4 UNK        -0.1800 
     54 N           2.5849  -13.3680  -44.2463 N.am      4 UNK        -0.5000 
     55 C           1.7596  -12.7309  -43.4093 C.2       3 UNK         0.5000 
     56 O           0.8313  -13.2931  -42.8266 O.2       3 UNK        -0.5000 
     57 CA          1.9974  -11.2256  -43.1773 C.3       3 UNK         0.1400 
     58 CB          3.1838  -10.9979  -42.2218 C.3       3 UNK        -0.1800 
     59 N           2.1295  -10.4098  -44.3931 N.am      3 UNK        -0.5000 
     60 C           3.0781  -10.4379  -45.3399 C.2       2 UNK         0.5000 
     61 O           4.0218  -11.2316  -45.3604 O.2       2 UNK        -0.5000 
     62 CA          2.9512   -9.3804  -46.4546 C.3       2 UNK         0.1400 
     63 CB          4.0982   -8.3613  -46.3702 C.3       2 UNK        -0.1800 
     64 N           2.9383   -9.9806  -47.7892 N.am      2 UNK        -0.5000 
     65 C           1.9848  -10.8085  -48.2351 C.2       1 UNK         0.5000 
     66 O           1.0075  -11.1378  -47.5566 O.2       1 UNK        -0.5000 
     67 C           1.9412  -23.9757  -46.5478 C.2       11 UNK         0.5000 
     68 O           0.8956  -23.9706  -45.8914 O.2       11 UNK        -0.5000 
     69 N           2.2569  -24.9507  -47.4091 N.am      12 UNK        -0.5000 
     70 CA          1.4046  -26.0985  -47.7349 C.3       12 UNK         0.1400 
     71 CB          2.2895  -27.2311  -48.2862 C.3       12 UNK        -0.1800 
     72 C           0.2654  -25.7049  -48.7027 C.2       12 UNK         0.5000 
     73 O           0.1366  -26.2821  -49.7831 O.2       12 UNK        -0.5000 
     74 N          -0.5226  -24.6965  -48.3074 N.am      13 UNK        -0.5000 
     75 CA         -1.6073  -24.1142  -49.0969 C.3       13 UNK         0.1400 
     76 CB         -1.9661  -22.7359  -48.5172 C.3       13 UNK        -0.1800 
     77 C          -2.8572  -25.0063  -49.1755 C.2       13 UNK         0.5000 
     78 O          -3.6289  -24.8718  -50.1286 O.2       13 UNK        -0.5000 
     79 N          -3.0321  -25.8821  -48.1729 N.am      14 UNK        -0.5000 
     80 CA         -4.1291  -26.8425  -48.0053 C.3       14 UNK         0.1400 
     81 CB         -4.0480  -27.9439  -49.0829 C.3       14 UNK        -0.1800 
     82 C          -5.5060  -26.1510  -47.9571 C.2       14 UNK         0.5000 
     83 O          -6.4185  -26.5387  -48.6850 O.2       14 UNK        -0.5000 
     84 N          -5.6071  -25.0859  -47.1462 N.am      15 UNK        -0.5000 
     85 CA         -6.7685  -24.1891  -47.0270 C.3       15 UNK         0.1400 
     86 CB         -7.9649  -24.9211  -46.3830 C.3       15 UNK        -0.1800 
     87 C          -7.1291  -23.5020  -48.3650 C.2       15 UNK         0.5000 
     88 O          -8.3055  -23.2939  -48.6646 O.2       15 UNK        -0.5000 
     89 N          -6.0845  -23.1907  -49.1457 N.am      16 UNK        -0.5000 
     90 CA         -6.0892  -22.6259  -50.4973 C.3       16 UNK         0.1400 
     91 CB         -6.8138  -21.2658  -50.5439 C.3       16 UNK        -0.1800 
     92 C          -6.5811  -23.5963  -51.5927 C.2       16 UNK         0.5000 
     93 O          -6.8363  -23.1539  -52.7132 O.2       16 UNK        -0.5000 
     94 N          -6.6860  -24.8991  -51.2880 N.am      17 UNK        -0.5000 
     95 CA         -7.0177  -25.9299  -52.2738 C.3       17 UNK         0.1400 
     96 CB         -7.5421  -27.1887  -51.5677 C.3       17 UNK        -0.1800 
     97 C          -5.8177  -26.2797  -53.1717 C.2       17 UNK         0.5000 
     98 O          -6.0197  -26.5938  -54.3455 O.2       17 UNK        -0.5000 
     99 N          -4.5993  -26.2194  -52.6146 N.am      18 UNK        -0.5000 
    100 CA        -3.3560  -26.4640  -53.3443 C.3       18 UNK         0.1400 
    101 CB        -2.3403  -27.1682  -52.4308 C.3       18 UNK        -0.1800 
    102 C         -2.7844  -25.1504  -53.8968 C.2       18 UNK         0.5000 
    103 O         -2.4075  -25.0989  -55.0682 O.2       18 UNK        -0.5000 
    104 N         -2.7524  -24.1079  -53.0564 N.am      19 UNK        -0.5000 
    105 CA        -2.2978  -22.7696  -53.4220 C.3       19 UNK         0.1400 
    106 CB        -1.3797  -22.2194  -52.3182 C.3       19 UNK        -0.1800 
    107 C         -3.5241  -21.8764  -53.6446 C.2       19 UNK         0.5000 
    108 O         -3.9513  -21.1797  -52.7243 O.2       19 UNK        -0.5000 
    109 N         -4.0758  -21.9107  -54.8647 N.am      20 UNK        -0.5000 
    110 CA        -5.2589  -21.1403  -55.2727 C.3       20 UNK         0.1400 
    111 CB        -5.6138  -21.4957  -56.7240 C.3       20 UNK        -0.1800 
    112 C         -5.1045  -19.6132  -55.1100 C.2       20 UNK         0.5000 
    113 O         -6.0933  -18.9219  -54.8606 O.2       20 UNK        -0.5000 
    114 N         -3.8585  -19.1244  -55.1959 N.am      21 UNK        -0.5000 
    115 CA        -3.4609  -17.7388  -54.9364 C.3       21 UNK         0.1400 
    116 CB        -1.9690  -17.5832  -55.2693 C.3       21 UNK        -0.1800 
    117 C         -3.7409  -17.2610  -53.4953 C.2       21 UNK         0.5000 
    118 O         -3.8717  -16.0551  -53.2812 O.2       21 UNK        -0.5000 
    119 N         -3.8467  -18.1986  -52.5437 N.am      22 UNK        -0.5000 
    120 CA        -4.2498  -17.9368  -51.1538 C.3       22 UNK         0.1400 
    121 C         -5.7842  -17.7351  -50.9696 C.2       22 UNK         0.5000 
    122 N         -6.6193  -17.9173  -51.9876 N.am      22 UNK        -0.7600 
    123 O         -6.2281  -17.3908  -49.8781 O.2       22 UNK        -0.5000 
    124 C124       -3.7041  -19.0143  -50.1794 C.3       23 UNK        -0.0398 
    125 S125       -1.8832  -19.1338  -50.2124 S.3       23 UNK        -0.2404 
    126 C126       -1.4711  -18.0741  -48.7979 C.3       23 UNK        -0.0205 
    127 H127       -1.2973  -12.8898  -50.9707 H         1 UNK         0.0600 
    128 H128       -2.2231  -11.5049  -50.3871 H         1 UNK         0.0600 
    129 H129       -1.6559  -11.5475  -52.0605 H         1 UNK         0.0600 
    130 H130        0.7696  -12.8583  -50.1559 H         1 UNK         0.3000 
    131 H131        2.4919  -10.5377  -50.2970 H         1 UNK         0.0600 
    132 H132        3.4116  -12.7696  -50.7761 H         1 UNK         0.0800 
    133 H133        4.2244  -12.0526  -49.4213 H         1 UNK         0.0800 
    134 H134        3.4564  -15.4952  -50.4700 H         1 UNK         0.0800 
    135 H135        1.8554  -14.8217  -50.6972 H         1 UNK         0.0800 
    136 H136       -0.0443  -16.1057  -50.0144 H         1 UNK         0.1150 
    137 H137        0.3986  -19.4348  -47.3549 H         1 UNK         0.1150 
    138 H138        3.7930  -17.0045  -48.3280 H         1 UNK         0.1150 
    139 H139        3.8091  -18.4948  -46.3511 H         1 UNK         0.0800 
    140 H140        2.4615  -19.5367  -45.9973 H         1 UNK         0.0800 
    141 H141        2.7406  -22.3377  -48.5880 H         1 UNK         0.0800 
    142 H142        1.6818  -21.3852  -47.5846 H         1 UNK         0.0800 
    143 H143        3.9350  -23.1977  -46.5306 H         1 UNK         0.0600 
    144 H144        1.7731  -21.8369  -44.9920 H         1 UNK         0.3000 
    145 H145        3.6108  -21.9197  -42.0441 H         1 UNK         0.0600 
    146 H146        3.4203  -19.4492  -41.8547 H         1 UNK         0.0600 
    147 H147        4.7554  -19.8656  -42.9170 H         1 UNK         0.0600 
    148 H148        3.2372  -19.2989  -43.6017 H         1 UNK         0.0600 
    149 H149        1.2459  -20.4826  -42.8567 H         1 UNK         0.3000 
    150 H150       -0.9453  -23.0123  -43.3234 H         1 UNK         0.0600 
    151 H151       -0.9119  -21.7570  -40.5242 H         1 UNK         0.0600 
    152 H152       -0.9735  -23.4835  -40.8625 H         1 UNK         0.0600 
    153 H153       -2.3179  -22.4545  -41.3281 H         1 UNK         0.0600 
    154 H154       -1.5219  -20.3646  -42.4678 H         1 UNK         0.3000 
    155 H155       -0.9144  -18.6802  -45.5318 H         1 UNK         0.0600 
    156 H156       -3.4616  -19.4681  -44.0312 H         1 UNK         0.0600 
    157 H157       -3.1103  -19.8130  -45.7192 H         1 UNK         0.0600 
    158 H158       -3.2987  -18.1488  -45.1886 H         1 UNK         0.0600 
    159 H159       -0.4637  -17.2966  -43.9512 H         1 UNK         0.3000 
    160 H160       -1.5338  -16.6704  -40.6011 H         1 UNK         0.0600 
    161 H161        1.1099  -16.7914  -42.1542 H         1 UNK         0.0600 
    162 H162        0.7528  -17.6498  -40.6623 H         1 UNK         0.0600 
    163 H163        0.8277  -15.8940  -40.6653 H         1 UNK         0.0600 
    164 H164       -0.5186  -14.9719  -42.6919 H         1 UNK         0.3000 
    165 H165       -3.6752  -13.8300  -43.8868 H         1 UNK         0.0600 
    166 H166       -2.5961  -11.6300  -43.3978 H         1 UNK         0.0600 
    167 H167       -3.2695  -12.3643  -41.9510 H         1 UNK         0.0600 
    168 H168       -1.5352  -12.4024  -42.2205 H         1 UNK         0.0600 
    169 H169       -0.8303  -13.3962  -44.4325 H         1 UNK         0.3000 
    170 H170       -0.6205  -15.8122  -46.9688 H         1 UNK         0.0600 
    171 H171       -0.0991  -13.9206  -48.5164 H         1 UNK         0.0600 
    172 H172       -1.0152  -12.8208  -47.4851 H         1 UNK         0.0600 
    173 H173       -1.8288  -14.1379  -48.3181 H         1 UNK         0.0600 
    174 H174        1.0377  -13.5740  -46.1906 H         1 UNK         0.3000 
    175 H175        2.6224  -15.3033  -43.5186 H         1 UNK         0.0600 
    176 H176        3.7960  -16.2726  -45.5431 H         1 UNK         0.0600 
    177 H177        3.9322  -14.6435  -46.1920 H         1 UNK         0.0600 
    178 H178        4.7235  -15.0577  -44.6791 H         1 UNK         0.0600 
    179 H179        3.2994  -12.8156  -44.7148 H         1 UNK         0.3000 
    180 H180        1.1044  -10.8515  -42.6737 H         1 UNK         0.0600 
    181 H181        3.2947   -9.9417  -41.9766 H         1 UNK         0.0600 
    182 H182        4.1258  -11.3432  -42.6488 H         1 UNK         0.0600 
    183 H183        3.0363  -11.5350  -41.2839 H         1 UNK         0.0600 
    184 H184        1.3847   -9.7380  -44.5170 H         1 UNK         0.3000 
    185 H185        2.0110   -8.8400  -46.3253 H         1 UNK         0.0600 
    186 H186        3.9812   -7.5716  -47.1127 H         1 UNK         0.0600 
    187 H187        4.1237   -7.8834  -45.3900 H         1 UNK         0.0600 
    188 H188        5.0688   -8.8327  -46.5304 H         1 UNK         0.0600 
    189 H189        3.7297   -9.7716  -48.3799 H         1 UNK         0.3000 
    190 H190        3.1155  -24.8786  -47.9364 H         1 UNK         0.3000 
    191 H191        0.9361  -26.4630  -46.8182 H         1 UNK         0.0600 
    192 H192        1.6969  -28.1209  -48.5029 H         1 UNK         0.0600 
    193 H193        3.0536  -27.5209  -47.5647 H         1 UNK         0.0600 
    194 H194        2.7926  -26.9379  -49.2085 H         1 UNK         0.0600 
    195 H195       -0.3235  -24.2722  -47.4060 H         1 UNK         0.3000 
    196 H196       -1.2441  -23.9817  -50.1160 H         1 UNK         0.0600 
    197 H197       -2.2833  -22.8053  -47.4759 H         1 UNK         0.0600 
    198 H198       -1.1137  -22.0571  -48.5602 H         1 UNK         0.0600 
    199 H199       -2.7772  -22.2686  -49.0776 H         1 UNK         0.0600 
    200 H200       -2.3311  -25.8913  -47.4459 H         1 UNK         0.3000 
    201 H201       -3.9868  -27.3179  -47.0338 H         1 UNK         0.0600 
    202 H202       -4.2453  -27.5516  -50.0799 H         1 UNK         0.0600 
    203 H203       -4.7792  -28.7303  -48.8928 H         1 UNK         0.0600 
    204 H204       -3.0633  -28.4111  -49.0968 H         1 UNK         0.0600 
    205 H205       -4.8000  -24.8347  -46.5927 H         1 UNK         0.3000 
    206 H206       -6.4706  -23.3886  -46.3483 H         1 UNK         0.0600 
    207 H207       -7.6795  -25.3902  -45.4415 H         1 UNK         0.0600 
    208 H208       -8.7765  -24.2261  -46.1649 H         1 UNK         0.0600 
    209 H209       -8.3668  -25.6964  -47.0359 H         1 UNK         0.0600 
    210 H210       -5.1718  -23.4651  -48.8130 H         1 UNK         0.3000 
    211 H211       -5.0395  -22.4405  -50.7244 H         1 UNK         0.0600 
    212 H212       -6.6237  -20.7624  -51.4925 H         1 UNK         0.0600 
    213 H213       -6.4696  -20.6035  -49.7500 H         1 UNK         0.0600 
    214 H214       -7.8938  -21.3754  -50.4466 H         1 UNK         0.0600 
    215 H215       -6.4816  -25.2149  -50.3468 H         1 UNK         0.3000 
    216 H216       -7.8186  -25.5533  -52.9138 H         1 UNK         0.0600 
    217 H217       -6.7582  -27.6902  -50.9996 H         1 UNK         0.0600 
    218 H218       -7.9249  -27.9074  -52.2932 H         1 UNK         0.0600 
    219 H219       -8.3563  -26.9507  -50.8829 H         1 UNK         0.0600 
    220 H220       -4.5104  -25.9058  -51.6542 H         1 UNK         0.3000 
    221 H221       -3.5469  -27.1283  -54.1899 H         1 UNK         0.0600 
    222 H222       -2.7329  -28.1157  -52.0620 H         1 UNK         0.0600 
    223 H223       -2.0709  -26.5595  -51.5686 H         1 UNK         0.0600 
    224 H224       -1.4191  -27.3878  -52.9717 H         1 UNK         0.0600 
    225 H225       -3.1192  -24.2241  -52.1197 H         1 UNK         0.3000 
    226 H226       -1.7168  -22.7921  -54.3464 H         1 UNK         0.0600 
    227 H227       -1.0044  -21.2305  -52.5845 H         1 UNK         0.0600 
    228 H228       -1.9032  -22.1185  -51.3683 H         1 UNK         0.0600 
    229 H229       -0.5145  -22.8642  -52.1646 H         1 UNK         0.0600 
    230 H230       -3.6806  -22.5305  -55.5578 H         1 UNK         0.3000 
    231 H231       -6.0882  -21.4479  -54.6335 H         1 UNK         0.0600 
    232 H232       -4.8048  -21.2417  -57.4100 H         1 UNK         0.0600 
    233 H233       -6.5042  -20.9572  -57.0516 H         1 UNK         0.0600 
    234 H234       -5.8234  -22.5604  -56.8291 H         1 UNK         0.0600 
    235 H235       -3.1131  -19.7729  -55.4002 H         1 UNK         0.3000 
    236 H236       -4.0335  -17.0978  -55.6097 H         1 UNK         0.0600 
    237 H237       -1.7667  -17.8388  -56.3096 H         1 UNK         0.0600 
    238 H238       -1.6401  -16.5540  -55.1194 H         1 UNK         0.0600 
    239 H239       -1.3486  -18.2209  -54.6380 H         1 UNK         0.0600 
    240 H240       -3.7485  -19.1780  -52.7898 H         1 UNK         0.3000 
    241 H241       -3.8005  -16.9876  -50.8557 H         1 UNK         0.0600 
    242 H242       -7.6057  -17.7719  -51.8448 H         1 UNK         0.3800 
    243 H243       -6.2848  -18.2016  -52.9004 H         1 UNK         0.3800 
    244 H244       -4.1115  -19.9938  -50.4279 H         1 UNK         0.0800 
    245 H245       -4.0247  -18.8116  -49.1560 H         1 UNK         0.0800 
    246 H246       -2.0048  -17.1262  -48.8847 H         1 UNK         0.0800 
    247 H247       -1.8274  -18.5441  -47.8802 H         1 UNK         0.0800 
@<TRIPOS>BOND
     1    1    2 1    
     2    1  127 1    
     3    1  128 1    
     4    1  129 1    
     5    2    3 2    
     6    2    4 am   BACKBONE|DICT|INTERRES
     7    4    5 1    
     8    4  130 1    
     9    5    6 1    
    10    5   65 1    
    11    5  131 1    
    12    6    7 1    
    13    6  132 1    
    14    6  133 1    
    15    7    8 1    
    16    8    9 1    
    17    8  134 1    
    18    8  135 1    
    19    9   10 ar   
    20    9   14 ar   
    21   10   11 ar   
    22   10  136 1    
    23   11   12 ar   
    24   11  126 1    
    25   12   13 ar   
    26   12  137 1    
    27   13   14 ar   
    28   13   15 1    
    29   14  138 1    
    30   15   16 1    
    31   15  139 1    
    32   15  140 1    
    33   16   17 1    
    34   17   18 1    
    35   17  141 1    
    36   17  142 1    
    37   18   19 1    
    38   18   67 1    
    39   18  143 1    
    40   19   20 am   BACKBONE|DICT|INTERRES
    41   19  144 1    
    42   20   21 2    
    43   20   22 1    
    44   22   23 1    
    45   22   24 1    
    46   22  145 1    
    47   23  146 1    
    48   23  147 1    
    49   23  148 1    
    50   24   25 am   BACKBONE|DICT|INTERRES
    51   24  149 1    
    52   25   26 2    
    53   25   27 1    
    54   27   28 1    
    55   27   29 1    
    56   27  150 1    
    57   28  151 1    
    58   28  152 1    
    59   28  153 1    
    60   29   30 am   BACKBONE|DICT|INTERRES
    61   29  154 1    
    62   30   31 2    
    63   30   32 1    
    64   32   33 1    
    65   32   34 1    
    66   32  155 1    
    67   33  156 1    
    68   33  157 1    
    69   33  158 1    
    70   34   35 am   BACKBONE|DICT|INTERRES
    71   34  159 1    
    72   35   36 2    
    73   35   37 1    
    74   37   38 1    
    75   37   39 1    
    76   37  160 1    
    77   38  161 1    
    78   38  162 1    
    79   38  163 1    
    80   39   40 am   BACKBONE|DICT|INTERRES
    81   39  164 1    
    82   40   41 2    
    83   40   42 1    
    84   42   43 1    
    85   42   44 1    
    86   42  165 1    
    87   43  166 1    
    88   43  167 1    
    89   43  168 1    
    90   44   45 am   BACKBONE|DICT|INTERRES
    91   44  169 1    
    92   45   46 2    
    93   45   47 1    
    94   47   48 1    
    95   47   49 1    
    96   47  170 1    
    97   48  171 1    
    98   48  172 1    
    99   48  173 1    
   100   49   50 am   BACKBONE|DICT|INTERRES
   101   49  174 1    
   102   50   51 2    
   103   50   52 1    
   104   52   53 1    
   105   52   54 1    
   106   52  175 1    
   107   53  176 1    
   108   53  177 1    
   109   53  178 1    
   110   54   55 am   BACKBONE|DICT|INTERRES
   111   54  179 1    
   112   55   56 2    
   113   55   57 1    
   114   57   58 1    
   115   57   59 1    
   116   57  180 1    
   117   58  181 1    
   118   58  182 1    
   119   58  183 1    
   120   59   60 am   BACKBONE|DICT|INTERRES
   121   59  184 1    
   122   60   61 2    
   123   60   62 1    
   124   62   63 1    
   125   62   64 1    
   126   62  185 1    
   127   63  186 1    
   128   63  187 1    
   129   63  188 1    
   130   64   65 am   BACKBONE|DICT|INTERRES
   131   64  189 1    
   132   65   66 2    
   133   67   68 2    
   134   67   69 am   BACKBONE|DICT|INTERRES
   135   69   70 1    
   136   69  190 1    
   137   70   71 1    
   138   70   72 1    
   139   70  191 1    
   140   71  192 1    
   141   71  193 1    
   142   71  194 1    
   143   72   73 2    
   144   72   74 am   BACKBONE|DICT|INTERRES
   145   74   75 1    
   146   74  195 1    
   147   75   76 1    
   148   75   77 1    
   149   75  196 1    
   150   76  197 1    
   151   76  198 1    
   152   76  199 1    
   153   77   78 2    
   154   77   79 am   BACKBONE|DICT|INTERRES
   155   79   80 1    
   156   79  200 1    
   157   80   81 1    
   158   80   82 1    
   159   80  201 1    
   160   81  202 1    
   161   81  203 1    
   162   81  204 1    
   163   82   83 2    
   164   82   84 am   BACKBONE|DICT|INTERRES
   165   84   85 1    
   166   84  205 1    
   167   85   86 1    
   168   85   87 1    
   169   85  206 1    
   170   86  207 1    
   171   86  208 1    
   172   86  209 1    
   173   87   88 2    
   174   87   89 am   BACKBONE|DICT|INTERRES
   175   89   90 1    
   176   89  210 1    
   177   90   91 1    
   178   90   92 1    
   179   90  211 1    
   180   91  212 1    
   181   91  213 1    
   182   91  214 1    
   183   92   93 2    
   184   92   94 am   BACKBONE|DICT|INTERRES
   185   94   95 1    
   186   94  215 1    
   187   95   96 1    
   188   95   97 1    
   189   95  216 1    
   190   96  217 1    
   191   96  218 1    
   192   96  219 1    
   193   97   98 2    
   194   97   99 am   BACKBONE|DICT|INTERRES
   195   99  100 1    
   196   99  220 1    
   197  100  101 1    
   198  100  102 1    
   199  100  221 1    
   200  101  222 1    
   201  101  223 1    
   202  101  224 1    
   203  102  103 2    
   204  102  104 am   BACKBONE|DICT|INTERRES
   205  104  105 1    
   206  104  225 1    
   207  105  106 1    
   208  105  107 1    
   209  105  226 1    
   210  106  227 1    
   211  106  228 1    
   212  106  229 1    
   213  107  108 2    
   214  107  109 am   BACKBONE|DICT|INTERRES
   215  109  110 1    
   216  109  230 1    
   217  110  111 1    
   218  110  112 1    
   219  110  231 1    
   220  111  232 1    
   221  111  233 1    
   222  111  234 1    
   223  112  113 2    
   224  112  114 am   BACKBONE|DICT|INTERRES
   225  114  115 1    
   226  114  235 1    
   227  115  116 1    
   228  115  117 1    
   229  115  236 1    
   230  116  237 1    
   231  116  238 1    
   232  116  239 1    
   233  117  118 2    
   234  117  119 am   BACKBONE|DICT|INTERRES
   235  119  120 1    
   236  119  240 1    
   237  120  121 1    
   238  120  124 1    
   239  120  241 1    
   240  121  122 am   BACKBONE|DICT|INTERRES
   241  121  123 2    
   242  122  242 1    
   243  122  243 1    
   244  124  125 1    
   245  124  244 1    
   246  124  245 1    
   247  125  126 1    
   248  126  246 1    
   249  126  247 1    
@<TRIPOS>SUBSTRUCTURE
     1 UNK         1 GROUP             0       ****    0 ROOT    
