@<TRIPOS>MOLECULE
3R540
247   249    1
SMALL
USER_CHARGES


@<TRIPOS>ATOM
      1 CA         -3.0698  -10.6865  -48.6724 C.3       0 UNK        -0.1800 
      2 C          -2.3344  -11.7846  -47.9193 C.2       0 UNK         0.5000 
      3 O          -1.2529  -12.1969  -48.3358 O.2       0 UNK        -0.5000 
      4 N          -2.9012  -12.2475  -46.7972 N.am      1 UNK        -0.5000 
      5 CA         -2.4017  -13.3832  -46.0041 C.3       1 UNK         0.1400 
      6 C6         -3.4970  -14.0198  -45.1054 C.3       23 UNK        -0.0398 
      7 S7         -5.0763  -14.3334  -45.9797 S.3       23 UNK        -0.2404 
      8 C8         -4.8563  -16.0202  -46.6403 C.3       23 UNK        -0.0205 
      9 C9         -3.6521  -16.1152  -47.5645 C.ar      23 UNK        -0.0193 
     10 C10        -3.6478  -15.4528  -48.7957 C.ar      23 UNK        -0.1150 
     11 C11        -2.5040  -15.4578  -49.6002 C.ar      23 UNK        -0.0193 
     12 C12        -1.3685  -16.1551  -49.1752 C.ar      23 UNK        -0.1150 
     13 C13        -1.3698  -16.8404  -47.9573 C.ar      23 UNK        -0.0193 
     14 C14        -2.5152  -16.8160  -47.1576 C.ar      23 UNK        -0.1150 
     15 C15        -0.1238  -17.5726  -47.4846 C.3       23 UNK        -0.0205 
     16 S16        -0.0503  -19.2810  -48.1079 S.3       23 UNK        -0.2404 
     17 C17        -1.4909  -20.0538  -47.2950 C.3       23 UNK        -0.0398 
     18 CA         -1.2479  -21.5519  -47.0088 C.3       11 UNK         0.1400 
     19 N          -0.2190  -21.7720  -45.9895 N.am      11 UNK        -0.5000 
     20 C           0.3083  -22.9679  -45.6940 C.2       10 UNK         0.5000 
     21 O           0.0227  -24.0072  -46.2874 O.2       10 UNK        -0.5000 
     22 CA          1.2694  -23.0204  -44.4963 C.3       10 UNK         0.1400 
     23 CB          2.6801  -22.5652  -44.8980 C.3       10 UNK        -0.1800 
     24 N           0.7808  -22.2100  -43.3804 N.am      10 UNK        -0.5000 
     25 C          -0.2753  -22.5361  -42.6217 C.2       9 UNK         0.5000 
     26 O          -0.9268  -23.5702  -42.7680 O.2       9 UNK        -0.5000 
     27 CA         -0.6958  -21.5213  -41.5420 C.3       9 UNK         0.1400 
     28 CB          0.1361  -21.7133  -40.2654 C.3       9 UNK        -0.1800 
     29 N          -0.5821  -20.1327  -41.9909 N.am      9 UNK        -0.5000 
     30 C          -1.3330  -19.5880  -42.9580 C.2       8 UNK         0.5000 
     31 O          -2.2171  -20.1926  -43.5608 O.2       8 UNK        -0.5000 
     32 CA         -1.0060  -18.1420  -43.3641 C.3       8 UNK         0.1400 
     33 CB         -1.7529  -17.1355  -42.4778 C.3       8 UNK        -0.1800 
     34 N           0.4231  -17.8321  -43.3533 N.am      8 UNK        -0.5000 
     35 C           1.3683  -18.4565  -44.0683 C.2       7 UNK         0.5000 
     36 O           1.1339  -19.4527  -44.7544 O.2       7 UNK        -0.5000 
     37 CA          2.7988  -17.8713  -44.0213 C.3       7 UNK         0.1400 
     38 CB          3.6107  -18.2609  -45.2667 C.3       7 UNK        -0.1800 
     39 N           2.8288  -16.4109  -43.8778 N.am      7 UNK        -0.5000 
     40 C           2.6088  -15.7384  -42.7408 C.2       6 UNK         0.5000 
     41 O           2.3416  -16.2902  -41.6717 O.2       6 UNK        -0.5000 
     42 CA          2.6584  -14.2031  -42.8350 C.3       6 UNK         0.1400 
     43 CB          2.3757  -13.4950  -41.4943 C.3       6 UNK        -0.1800 
     44 N           3.8999  -13.7088  -43.4310 N.am      6 UNK        -0.5000 
     45 C           5.1534  -13.8915  -42.9935 C.2       5 UNK         0.5000 
     46 O           5.4504  -14.5183  -41.9748 O.2       5 UNK        -0.5000 
     47 CA          6.2503  -13.2503  -43.8686 C.3       5 UNK         0.1400 
     48 CB          7.6834  -13.5513  -43.3799 C.3       5 UNK        -0.1800 
     49 N           6.0877  -13.5923  -45.2865 N.am      5 UNK        -0.5000 
     50 C           6.1485  -14.8149  -45.8381 C.2       4 UNK         0.5000 
     51 O           6.4287  -15.8401  -45.2159 O.2       4 UNK        -0.5000 
     52 CA          5.8324  -14.8830  -47.3486 C.3       4 UNK         0.1400 
     53 CB          5.6392  -16.3190  -47.8764 C.3       4 UNK        -0.1800 
     54 N           4.6983  -14.0369  -47.7405 N.am      4 UNK        -0.5000 
     55 C           3.4458  -14.0828  -47.2621 C.2       3 UNK         0.5000 
     56 O           3.0526  -14.8749  -46.4003 O.2       3 UNK        -0.5000 
     57 CA          2.4699  -13.0569  -47.8727 C.3       3 UNK         0.1400 
     58 CB          1.6679  -13.7106  -49.0081 C.3       3 UNK        -0.1800 
     59 N           1.5348  -12.4773  -46.9061 N.am      3 UNK        -0.5000 
     60 C           1.8549  -11.8985  -45.7378 C.2       2 UNK         0.5000 
     61 O           3.0154  -11.7461  -45.3513 O.2       2 UNK        -0.5000 
     62 CA          0.6994  -11.3976  -44.8410 C.3       2 UNK         0.1400 
     63 CB          0.7059   -9.8632  -44.7625 C.3       2 UNK        -0.1800 
     64 N          -0.6201  -11.8352  -45.2961 N.am      2 UNK        -0.5000 
     65 C          -1.1086  -13.0805  -45.2115 C.2       1 UNK         0.5000 
     66 O          -0.5594  -13.9811  -44.5769 O.2       1 UNK        -0.5000 
     67 C          -2.5625  -22.2788  -46.6581 C.2       11 UNK         0.5000 
     68 O          -3.1514  -22.9028  -47.5391 O.2       11 UNK        -0.5000 
     69 N          -2.9749  -22.2432  -45.3820 N.am      12 UNK        -0.5000 
     70 CA         -4.1324  -22.9776  -44.8667 C.3       12 UNK         0.1400 
     71 CB         -4.4237  -22.5546  -43.4196 C.3       12 UNK        -0.1800 
     72 C          -3.9628  -24.5042  -44.9664 C.2       12 UNK         0.5000 
     73 O          -4.8970  -25.1853  -45.3890 O.2       12 UNK        -0.5000 
     74 N          -2.7667  -25.0123  -44.6333 N.am      13 UNK        -0.5000 
     75 CA         -2.3971  -26.4249  -44.7753 C.3       13 UNK         0.1400 
     76 CB         -1.0356  -26.6715  -44.1086 C.3       13 UNK        -0.1800 
     77 C          -2.3842  -26.9023  -46.2419 C.2       13 UNK         0.5000 
     78 O          -2.7505  -28.0460  -46.5130 O.2       13 UNK        -0.5000 
     79 N          -2.0084  -26.0044  -47.1621 N.am      14 UNK        -0.5000 
     80 CA         -2.0577  -26.2011  -48.6128 C.3       14 UNK         0.1400 
     81 CB         -1.0444  -25.2498  -49.2696 C.3       14 UNK        -0.1800 
     82 C          -3.4681  -26.0075  -49.2165 C.2       14 UNK         0.5000 
     83 O          -3.6256  -26.1727  -50.4264 O.2       14 UNK        -0.5000 
     84 N          -4.4583  -25.6598  -48.3798 N.am      15 UNK        -0.5000 
     85 CA         -5.8618  -25.3931  -48.7075 C.3       15 UNK         0.1400 
     86 CB         -6.5768  -26.6711  -49.1940 C.3       15 UNK        -0.1800 
     87 C          -6.0629  -24.1625  -49.6183 C.2       15 UNK         0.5000 
     88 O          -6.9772  -24.1436  -50.4454 O.2       15 UNK        -0.5000 
     89 N          -5.2206  -23.1406  -49.4065 N.am      16 UNK        -0.5000 
     90 CA         -5.2570  -21.7887  -49.9654 C.3       16 UNK         0.1400 
     91 CB         -6.3372  -20.9572  -49.2413 C.3       16 UNK        -0.1800 
     92 C          -5.3829  -21.7655  -51.5004 C.2       16 UNK         0.5000 
     93 O          -4.3972  -22.0137  -52.1941 O.2       16 UNK        -0.5000 
     94 N          -6.5947  -21.4975  -52.0070 N.am      17 UNK        -0.5000 
     95 CA         -6.9409  -21.4538  -53.4291 C.3       17 UNK         0.1400 
     96 CB         -8.4148  -21.0470  -53.5711 C.3       17 UNK        -0.1800 
     97 C          -6.6670  -22.7650  -54.1928 C.2       17 UNK         0.5000 
     98 O          -6.4494  -22.7153  -55.4033 O.2       17 UNK        -0.5000 
     99 N          -6.6252  -23.9037  -53.4845 N.am      18 UNK        -0.5000 
    100 CA        -6.2361  -25.2067  -54.0315 C.3       18 UNK         0.1400 
    101 CB        -6.5014  -26.2922  -52.9820 C.3       18 UNK        -0.1800 
    102 C         -4.7647  -25.2653  -54.4945 C.2       18 UNK         0.5000 
    103 O         -4.4426  -26.0669  -55.3719 O.2       18 UNK        -0.5000 
    104 N         -3.9077  -24.4028  -53.9287 N.am      19 UNK        -0.5000 
    105 CA        -2.5091  -24.2297  -54.3250 C.3       19 UNK         0.1400 
    106 CB        -1.6991  -23.7893  -53.0945 C.3       19 UNK        -0.1800 
    107 C         -2.3427  -23.2166  -55.4772 C.2       19 UNK         0.5000 
    108 O         -1.2104  -22.9664  -55.8934 O.2       19 UNK        -0.5000 
    109 N         -3.4537  -22.6306  -55.9527 N.am      20 UNK        -0.5000 
    110 CA        -3.5961  -21.5892  -56.9768 C.3       20 UNK         0.1400 
    111 CB        -3.0145  -22.0298  -58.3338 C.3       20 UNK        -0.1800 
    112 C         -3.0456  -20.2211  -56.5368 C.2       20 UNK         0.5000 
    113 O         -3.7814  -19.2339  -56.5541 O.2       20 UNK        -0.5000 
    114 N         -1.7801  -20.1846  -56.1083 N.am      21 UNK        -0.5000 
    115 CA        -1.0549  -19.0035  -55.6393 C.3       21 UNK         0.1400 
    116 CB         0.4491  -19.2330  -55.8757 C.3       21 UNK        -0.1800 
    117 C         -1.3831  -18.6511  -54.1708 C.2       21 UNK         0.5000 
    118 O         -0.4651  -18.4436  -53.3765 O.2       21 UNK        -0.5000 
    119 N         -2.6847  -18.6121  -53.8519 N.am      22 UNK        -0.5000 
    120 CA        -3.3723  -18.2417  -52.5942 C.3       22 UNK         0.1400 
    121 C         -2.8983  -18.8613  -51.2429 C.2       22 UNK         0.5000 
    122 N         -1.7099  -19.4327  -51.1395 N.am      22 UNK        -0.7600 
    123 O         -3.6545  -18.8544  -50.2768 O.2       22 UNK        -0.5000 
    124 C124       -3.6386  -16.7137  -52.4814 C.3       23 UNK        -0.0398 
    125 S125       -2.1396  -15.6733  -52.3666 S.3       23 UNK        -0.2404 
    126 C126       -2.4764  -14.6555  -50.8939 C.3       23 UNK        -0.0205 
    127 H127       -2.4458   -9.7955  -48.7410 H         1 UNK         0.0600 
    128 H128       -4.0035  -10.4129  -48.1804 H         1 UNK         0.0600 
    129 H129       -3.3029  -11.0202  -49.6835 H         1 UNK         0.0600 
    130 H130       -3.7904  -11.8714  -46.4995 H         1 UNK         0.3000 
    131 H131       -2.0908  -14.1384  -46.7235 H         1 UNK         0.0600 
    132 H132       -3.7152  -13.3638  -44.2611 H         1 UNK         0.0800 
    133 H133       -3.1418  -14.9577  -44.6747 H         1 UNK         0.0800 
    134 H134       -5.7531  -16.3062  -47.1915 H         1 UNK         0.0800 
    135 H135       -4.7692  -16.7226  -45.8098 H         1 UNK         0.0800 
    136 H136       -4.5221  -14.8963  -49.1023 H         1 UNK         0.1150 
    137 H137       -0.4816  -16.1591  -49.7928 H         1 UNK         0.1150 
    138 H138       -2.5165  -17.3193  -46.2034 H         1 UNK         0.1150 
    139 H139        0.7670  -17.0380  -47.8180 H         1 UNK         0.0800 
    140 H140       -0.0797  -17.5746  -46.3969 H         1 UNK         0.0800 
    141 H141       -2.3531  -19.9119  -47.9500 H         1 UNK         0.0800 
    142 H142       -1.7167  -19.5310  -46.3655 H         1 UNK         0.0800 
    143 H143       -0.8847  -22.0084  -47.9323 H         1 UNK         0.0600 
    144 H144        0.1163  -20.9529  -45.4900 H         1 UNK         0.3000 
    145 H145        1.3334  -24.0583  -44.1625 H         1 UNK         0.0600 
    146 H146        3.3676  -22.6150  -44.0536 H         1 UNK         0.0600 
    147 H147        2.6848  -21.5434  -45.2762 H         1 UNK         0.0600 
    148 H148        3.0832  -23.2044  -45.6843 H         1 UNK         0.0600 
    149 H149        1.2139  -21.3070  -43.2524 H         1 UNK         0.3000 
    150 H150       -1.7428  -21.7124  -41.2974 H         1 UNK         0.0600 
    151 H151        0.0552  -22.7372  -39.8978 H         1 UNK         0.0600 
    152 H152        1.1936  -21.5088  -40.4375 H         1 UNK         0.0600 
    153 H153       -0.2082  -21.0548  -39.4678 H         1 UNK         0.0600 
    154 H154        0.1310  -19.5651  -41.5568 H         1 UNK         0.3000 
    155 H155       -1.3549  -18.0109  -44.3877 H         1 UNK         0.0600 
    156 H156       -1.4217  -17.1896  -41.4401 H         1 UNK         0.0600 
    157 H157       -2.8273  -17.3238  -42.4920 H         1 UNK         0.0600 
    158 H158       -1.5983  -16.1140  -42.8265 H         1 UNK         0.0600 
    159 H159        0.7184  -17.0612  -42.7679 H         1 UNK         0.3000 
    160 H160        3.2923  -18.3123  -43.1532 H         1 UNK         0.0600 
    161 H161        3.1310  -17.9029  -46.1784 H         1 UNK         0.0600 
    162 H162        3.7128  -19.3428  -45.3518 H         1 UNK         0.0600 
    163 H163        4.6180  -17.8480  -45.2260 H         1 UNK         0.0600 
    164 H164        2.9925  -15.8807  -44.7310 H         1 UNK         0.3000 
    165 H165        1.8614  -13.9288  -43.5237 H         1 UNK         0.0600 
    166 H166        2.3726  -12.4117  -41.6146 H         1 UNK         0.0600 
    167 H167        3.1187  -13.7468  -40.7370 H         1 UNK         0.0600 
    168 H168        1.3987  -13.7801  -41.1023 H         1 UNK         0.0600 
    169 H169        3.7742  -13.1643  -44.2796 H         1 UNK         0.3000 
    170 H170        6.1033  -12.1716  -43.7960 H         1 UNK         0.0600 
    171 H171        7.8336  -13.1783  -42.3662 H         1 UNK         0.0600 
    172 H172        7.8959  -14.6205  -43.3667 H         1 UNK         0.0600 
    173 H173        8.4259  -13.0694  -44.0158 H         1 UNK         0.0600 
    174 H174        5.8232  -12.8245  -45.8880 H         1 UNK         0.3000 
    175 H175        6.7100  -14.4719  -47.8496 H         1 UNK         0.0600 
    176 H176        4.7532  -16.7887  -47.4537 H         1 UNK         0.0600 
    177 H177        5.5304  -16.3252  -48.9608 H         1 UNK         0.0600 
    178 H178        6.4954  -16.9497  -47.6345 H         1 UNK         0.0600 
    179 H179        4.9098  -13.3434  -48.4447 H         1 UNK         0.3000 
    180 H180        3.0496  -12.2311  -48.2895 H         1 UNK         0.0600 
    181 H181        0.9979  -14.4816  -48.6266 H         1 UNK         0.0600 
    182 H182        2.3265  -14.1792  -49.7406 H         1 UNK         0.0600 
    183 H183        1.0640  -12.9760  -49.5407 H         1 UNK         0.0600 
    184 H184        0.5561  -12.5297  -47.1613 H         1 UNK         0.3000 
    185 H185        0.8658  -11.7891  -43.8362 H         1 UNK         0.0600 
    186 H186        1.6608   -9.4942  -44.3858 H         1 UNK         0.0600 
    187 H187        0.5414   -9.4097  -45.7408 H         1 UNK         0.0600 
    188 H188       -0.0693   -9.4991  -44.0880 H         1 UNK         0.0600 
    189 H189       -1.1461  -11.1709  -45.8453 H         1 UNK         0.3000 
    190 H190       -2.4814  -21.6555  -44.7150 H         1 UNK         0.3000 
    191 H191       -4.9953  -22.7024  -45.4770 H         1 UNK         0.0600 
    192 H192       -5.2863  -23.0905  -43.0215 H         1 UNK         0.0600 
    193 H193       -4.6478  -21.4896  -43.3586 H         1 UNK         0.0600 
    194 H194       -3.5785  -22.7573  -42.7619 H         1 UNK         0.0600 
    195 H195       -2.0609  -24.3950  -44.2448 H         1 UNK         0.3000 
    196 H196       -3.1449  -27.0174  -44.2444 H         1 UNK         0.0600 
    197 H197       -0.2439  -26.0896  -44.5802 H         1 UNK         0.0600 
    198 H198       -1.0608  -26.4068  -43.0514 H         1 UNK         0.0600 
    199 H199       -0.7535  -27.7230  -44.1739 H         1 UNK         0.0600 
    200 H200       -1.6575  -25.1075  -46.8435 H         1 UNK         0.3000 
    201 H201       -1.7497  -27.2249  -48.8341 H         1 UNK         0.0600 
    202 H202       -1.3422  -24.2066  -49.1616 H         1 UNK         0.0600 
    203 H203       -0.9487  -25.4578  -50.3350 H         1 UNK         0.0600 
    204 H204       -0.0529  -25.3625  -48.8306 H         1 UNK         0.0600 
    205 H205       -4.2216  -25.5315  -47.4036 H         1 UNK         0.3000 
    206 H206       -6.3332  -25.1155  -47.7640 H         1 UNK         0.0600 
    207 H207       -6.5477  -27.4446  -48.4266 H         1 UNK         0.0600 
    208 H208       -7.6272  -26.4795  -49.4158 H         1 UNK         0.0600 
    209 H209       -6.1208  -27.0850  -50.0911 H         1 UNK         0.0600 
    210 H210       -4.4760  -23.2799  -48.7253 H         1 UNK         0.3000 
    211 H211       -4.2881  -21.3461  -49.7326 H         1 UNK         0.0600 
    212 H212       -6.3768  -19.9394  -49.6323 H         1 UNK         0.0600 
    213 H213       -6.1137  -20.8805  -48.1770 H         1 UNK         0.0600 
    214 H214       -7.3311  -21.3954  -49.3374 H         1 UNK         0.0600 
    215 H215       -7.3538  -21.3506  -51.3580 H         1 UNK         0.3000 
    216 H216       -6.3250  -20.6790  -53.8902 H         1 UNK         0.0600 
    217 H217       -9.0783  -21.7716  -53.0973 H         1 UNK         0.0600 
    218 H218       -8.7019  -20.9761  -54.6212 H         1 UNK         0.0600 
    219 H219       -8.6015  -20.0729  -53.1187 H         1 UNK         0.0600 
    220 H220       -6.8026  -23.8655  -52.4852 H         1 UNK         0.3000 
    221 H221       -6.8669  -25.4071  -54.8999 H         1 UNK         0.0600 
    222 H222       -7.5318  -26.2652  -52.6270 H         1 UNK         0.0600 
    223 H223       -5.8431  -26.1659  -52.1236 H         1 UNK         0.0600 
    224 H224       -6.3197  -27.2867  -53.3911 H         1 UNK         0.0600 
    225 H225       -4.2485  -23.7529  -53.2267 H         1 UNK         0.3000 
    226 H226       -2.1095  -25.1865  -54.6669 H         1 UNK         0.0600 
    227 H227       -1.9534  -22.7761  -52.7817 H         1 UNK         0.0600 
    228 H228       -1.8765  -24.4540  -52.2498 H         1 UNK         0.0600 
    229 H229       -0.6291  -23.8056  -53.3044 H         1 UNK         0.0600 
    230 H230       -4.3315  -22.9043  -55.5278 H         1 UNK         0.3000 
    231 H231       -4.6707  -21.4619  -57.1157 H         1 UNK         0.0600 
    232 H232       -1.9320  -22.1540  -58.2998 H         1 UNK         0.0600 
    233 H233       -3.2304  -21.2894  -59.1050 H         1 UNK         0.0600 
    234 H234       -3.4501  -22.9744  -58.6595 H         1 UNK         0.0600 
    235 H235       -1.2840  -21.0709  -56.0664 H         1 UNK         0.3000 
    236 H236       -1.3554  -18.1454  -56.2440 H         1 UNK         0.0600 
    237 H237        0.6562  -19.4359  -56.9266 H         1 UNK         0.0600 
    238 H238        1.0305  -18.3532  -55.5969 H         1 UNK         0.0600 
    239 H239        0.8226  -20.0754  -55.2920 H         1 UNK         0.0600 
    240 H240       -3.3138  -18.8227  -54.6183 H         1 UNK         0.3000 
    241 H241       -4.3554  -18.6953  -52.7285 H         1 UNK         0.0600 
    242 H242       -1.0563  -19.3082  -51.9080 H         1 UNK         0.3800 
    243 H243       -1.3984  -19.7887  -50.2517 H         1 UNK         0.3800 
    244 H244       -4.2926  -16.5090  -51.6321 H         1 UNK         0.0800 
    245 H245       -4.1969  -16.3819  -53.3574 H         1 UNK         0.0800 
    246 H246       -1.6990  -13.8947  -50.8092 H         1 UNK         0.0800 
    247 H247       -3.4137  -14.1166  -51.0407 H         1 UNK         0.0800 
@<TRIPOS>BOND
     1    1    2 1    
     2    1  127 1    
     3    1  128 1    
     4    1  129 1    
     5    2    3 2    
     6    2    4 am   BACKBONE|DICT|INTERRES
     7    4    5 1    
     8    4  130 1    
     9    5    6 1    
    10    5   65 1    
    11    5  131 1    
    12    6    7 1    
    13    6  132 1    
    14    6  133 1    
    15    7    8 1    
    16    8    9 1    
    17    8  134 1    
    18    8  135 1    
    19    9   10 ar   
    20    9   14 ar   
    21   10   11 ar   
    22   10  136 1    
    23   11   12 ar   
    24   11  126 1    
    25   12   13 ar   
    26   12  137 1    
    27   13   14 ar   
    28   13   15 1    
    29   14  138 1    
    30   15   16 1    
    31   15  139 1    
    32   15  140 1    
    33   16   17 1    
    34   17   18 1    
    35   17  141 1    
    36   17  142 1    
    37   18   19 1    
    38   18   67 1    
    39   18  143 1    
    40   19   20 am   BACKBONE|DICT|INTERRES
    41   19  144 1    
    42   20   21 2    
    43   20   22 1    
    44   22   23 1    
    45   22   24 1    
    46   22  145 1    
    47   23  146 1    
    48   23  147 1    
    49   23  148 1    
    50   24   25 am   BACKBONE|DICT|INTERRES
    51   24  149 1    
    52   25   26 2    
    53   25   27 1    
    54   27   28 1    
    55   27   29 1    
    56   27  150 1    
    57   28  151 1    
    58   28  152 1    
    59   28  153 1    
    60   29   30 am   BACKBONE|DICT|INTERRES
    61   29  154 1    
    62   30   31 2    
    63   30   32 1    
    64   32   33 1    
    65   32   34 1    
    66   32  155 1    
    67   33  156 1    
    68   33  157 1    
    69   33  158 1    
    70   34   35 am   BACKBONE|DICT|INTERRES
    71   34  159 1    
    72   35   36 2    
    73   35   37 1    
    74   37   38 1    
    75   37   39 1    
    76   37  160 1    
    77   38  161 1    
    78   38  162 1    
    79   38  163 1    
    80   39   40 am   BACKBONE|DICT|INTERRES
    81   39  164 1    
    82   40   41 2    
    83   40   42 1    
    84   42   43 1    
    85   42   44 1    
    86   42  165 1    
    87   43  166 1    
    88   43  167 1    
    89   43  168 1    
    90   44   45 am   BACKBONE|DICT|INTERRES
    91   44  169 1    
    92   45   46 2    
    93   45   47 1    
    94   47   48 1    
    95   47   49 1    
    96   47  170 1    
    97   48  171 1    
    98   48  172 1    
    99   48  173 1    
   100   49   50 am   BACKBONE|DICT|INTERRES
   101   49  174 1    
   102   50   51 2    
   103   50   52 1    
   104   52   53 1    
   105   52   54 1    
   106   52  175 1    
   107   53  176 1    
   108   53  177 1    
   109   53  178 1    
   110   54   55 am   BACKBONE|DICT|INTERRES
   111   54  179 1    
   112   55   56 2    
   113   55   57 1    
   114   57   58 1    
   115   57   59 1    
   116   57  180 1    
   117   58  181 1    
   118   58  182 1    
   119   58  183 1    
   120   59   60 am   BACKBONE|DICT|INTERRES
   121   59  184 1    
   122   60   61 2    
   123   60   62 1    
   124   62   63 1    
   125   62   64 1    
   126   62  185 1    
   127   63  186 1    
   128   63  187 1    
   129   63  188 1    
   130   64   65 am   BACKBONE|DICT|INTERRES
   131   64  189 1    
   132   65   66 2    
   133   67   68 2    
   134   67   69 am   BACKBONE|DICT|INTERRES
   135   69   70 1    
   136   69  190 1    
   137   70   71 1    
   138   70   72 1    
   139   70  191 1    
   140   71  192 1    
   141   71  193 1    
   142   71  194 1    
   143   72   73 2    
   144   72   74 am   BACKBONE|DICT|INTERRES
   145   74   75 1    
   146   74  195 1    
   147   75   76 1    
   148   75   77 1    
   149   75  196 1    
   150   76  197 1    
   151   76  198 1    
   152   76  199 1    
   153   77   78 2    
   154   77   79 am   BACKBONE|DICT|INTERRES
   155   79   80 1    
   156   79  200 1    
   157   80   81 1    
   158   80   82 1    
   159   80  201 1    
   160   81  202 1    
   161   81  203 1    
   162   81  204 1    
   163   82   83 2    
   164   82   84 am   BACKBONE|DICT|INTERRES
   165   84   85 1    
   166   84  205 1    
   167   85   86 1    
   168   85   87 1    
   169   85  206 1    
   170   86  207 1    
   171   86  208 1    
   172   86  209 1    
   173   87   88 2    
   174   87   89 am   BACKBONE|DICT|INTERRES
   175   89   90 1    
   176   89  210 1    
   177   90   91 1    
   178   90   92 1    
   179   90  211 1    
   180   91  212 1    
   181   91  213 1    
   182   91  214 1    
   183   92   93 2    
   184   92   94 am   BACKBONE|DICT|INTERRES
   185   94   95 1    
   186   94  215 1    
   187   95   96 1    
   188   95   97 1    
   189   95  216 1    
   190   96  217 1    
   191   96  218 1    
   192   96  219 1    
   193   97   98 2    
   194   97   99 am   BACKBONE|DICT|INTERRES
   195   99  100 1    
   196   99  220 1    
   197  100  101 1    
   198  100  102 1    
   199  100  221 1    
   200  101  222 1    
   201  101  223 1    
   202  101  224 1    
   203  102  103 2    
   204  102  104 am   BACKBONE|DICT|INTERRES
   205  104  105 1    
   206  104  225 1    
   207  105  106 1    
   208  105  107 1    
   209  105  226 1    
   210  106  227 1    
   211  106  228 1    
   212  106  229 1    
   213  107  108 2    
   214  107  109 am   BACKBONE|DICT|INTERRES
   215  109  110 1    
   216  109  230 1    
   217  110  111 1    
   218  110  112 1    
   219  110  231 1    
   220  111  232 1    
   221  111  233 1    
   222  111  234 1    
   223  112  113 2    
   224  112  114 am   BACKBONE|DICT|INTERRES
   225  114  115 1    
   226  114  235 1    
   227  115  116 1    
   228  115  117 1    
   229  115  236 1    
   230  116  237 1    
   231  116  238 1    
   232  116  239 1    
   233  117  118 2    
   234  117  119 am   BACKBONE|DICT|INTERRES
   235  119  120 1    
   236  119  240 1    
   237  120  121 1    
   238  120  124 1    
   239  120  241 1    
   240  121  122 am   BACKBONE|DICT|INTERRES
   241  121  123 2    
   242  122  242 1    
   243  122  243 1    
   244  124  125 1    
   245  124  244 1    
   246  124  245 1    
   247  125  126 1    
   248  126  246 1    
   249  126  247 1    
@<TRIPOS>SUBSTRUCTURE
     1 UNK         1 GROUP             0       ****    0 ROOT    
