@<TRIPOS>MOLECULE
3R540
247   249    1
SMALL
USER_CHARGES


@<TRIPOS>ATOM
      1 CA          5.6286  -13.9704  -47.8937 C.3       0 UNK        -0.1800 
      2 C           4.3331  -13.7194  -47.1367 C.2       0 UNK         0.5000 
      3 O           4.1300  -12.6245  -46.6120 O.2       0 UNK        -0.5000 
      4 N           3.4638  -14.7361  -47.0625 N.am      1 UNK        -0.5000 
      5 CA          2.1691  -14.7243  -46.3725 C.3       1 UNK         0.1400 
      6 C6          1.1238  -13.8005  -47.0674 C.3       23 UNK        -0.0398 
      7 S7         -0.5447  -14.5397  -47.0417 S.3       23 UNK        -0.2404 
      8 C8         -1.1842  -14.0741  -48.6869 C.3       23 UNK        -0.0205 
      9 C9         -0.9038  -15.0915  -49.7928 C.ar      23 UNK        -0.0193 
     10 C10        -1.9167  -15.4060  -50.7033 C.ar      23 UNK        -0.1150 
     11 C11        -1.6811  -16.2841  -51.7652 C.ar      23 UNK        -0.0193 
     12 C12        -0.4211  -16.8728  -51.9053 C.ar      23 UNK        -0.1150 
     13 C13         0.6079  -16.5585  -51.0139 C.ar      23 UNK        -0.0193 
     14 C14         0.3601  -15.6660  -49.9669 C.ar      23 UNK        -0.1150 
     15 C15         2.0065  -17.1269  -51.2193 C.3       23 UNK        -0.0205 
     16 S16         2.1985  -18.8117  -50.5553 S.3       23 UNK        -0.2404 
     17 C17         2.0026  -18.5396  -48.7591 C.3       23 UNK        -0.0398 
     18 CA          1.0036  -19.4968  -48.0658 C.3       11 UNK         0.1400 
     19 N           1.0169  -19.2810  -46.6149 N.am      11 UNK        -0.5000 
     20 C           0.3765  -20.0172  -45.6971 C.2       10 UNK         0.5000 
     21 O          -0.3474  -20.9705  -45.9878 O.2       10 UNK        -0.5000 
     22 CA          0.5716  -19.6183  -44.2202 C.3       10 UNK         0.1400 
     23 CB          1.3837  -18.3191  -44.0353 C.3       10 UNK        -0.1800 
     24 N          -0.7271  -19.4625  -43.5660 N.am      10 UNK        -0.5000 
     25 C          -1.3617  -20.4204  -42.8733 C.2       9 UNK         0.5000 
     26 O          -0.8885  -21.5418  -42.6841 O.2       9 UNK        -0.5000 
     27 CA         -2.7445  -20.0891  -42.2701 C.3       9 UNK         0.1400 
     28 CB         -2.7584  -20.3195  -40.7505 C.3       9 UNK        -0.1800 
     29 N          -3.1669  -18.7141  -42.5330 N.am      9 UNK        -0.5000 
     30 C          -3.9481  -18.3274  -43.5505 C.2       8 UNK         0.5000 
     31 O          -4.4456  -19.1022  -44.3657 O.2       8 UNK        -0.5000 
     32 CA         -4.2035  -16.8134  -43.7019 C.3       8 UNK         0.1400 
     33 CB         -5.5320  -16.4263  -43.0355 C.3       8 UNK        -0.1800 
     34 N          -3.1368  -15.9704  -43.1577 N.am      8 UNK        -0.5000 
     35 C          -1.8527  -15.9945  -43.5396 C.2       7 UNK         0.5000 
     36 O          -1.4238  -16.7327  -44.4261 O.2       7 UNK        -0.5000 
     37 CA         -0.8776  -15.0724  -42.7798 C.3       7 UNK         0.1400 
     38 CB         -1.5642  -13.8409  -42.1524 C.3       7 UNK        -0.1800 
     39 N          -0.0821  -15.7638  -41.7564 N.am      7 UNK        -0.5000 
     40 C          -0.5122  -16.5676  -40.7727 C.2       6 UNK         0.5000 
     41 O          -1.6724  -16.9731  -40.6805 O.2       6 UNK        -0.5000 
     42 CA          0.5264  -16.9581  -39.6935 C.3       6 UNK         0.1400 
     43 CB         -0.0308  -17.9441  -38.6507 C.3       6 UNK        -0.1800 
     44 N           1.7741  -17.5114  -40.2262 N.am      6 UNK        -0.5000 
     45 C           2.7660  -16.8157  -40.7944 C.2       5 UNK         0.5000 
     46 O           2.6937  -15.6064  -41.0123 O.2       5 UNK        -0.5000 
     47 CA          4.0423  -17.5843  -41.1825 C.3       5 UNK         0.1400 
     48 CB          3.8435  -19.1123  -41.3273 C.3       5 UNK        -0.1800 
     49 N           4.5996  -17.0041  -42.4024 N.am      5 UNK        -0.5000 
     50 C           5.8579  -17.1651  -42.8305 C.2       4 UNK         0.5000 
     51 O           6.7000  -17.8503  -42.2486 O.2       4 UNK        -0.5000 
     52 CA          6.2521  -16.4181  -44.1136 C.3       4 UNK         0.1400 
     53 CB          5.6069  -17.0628  -45.3522 C.3       4 UNK        -0.1800 
     54 N           5.8809  -15.0060  -44.0326 N.am      4 UNK        -0.5000 
     55 C           6.6682  -14.0468  -43.5218 C.2       3 UNK         0.5000 
     56 O           7.8052  -14.2568  -43.0977 O.2       3 UNK        -0.5000 
     57 CA          6.1151  -12.6078  -43.4825 C.3       3 UNK         0.1400 
     58 CB          6.7741  -11.7431  -44.5687 C.3       3 UNK        -0.1800 
     59 N           4.6623  -12.5636  -43.6494 N.am      3 UNK        -0.5000 
     60 C           3.7878  -12.6944  -42.6414 C.2       2 UNK         0.5000 
     61 O           4.1210  -12.7402  -41.4571 O.2       2 UNK        -0.5000 
     62 CA          2.2929  -12.7954  -43.0105 C.3       2 UNK         0.1400 
     63 CB          1.5998  -11.4377  -42.8221 C.3       2 UNK        -0.1800 
     64 N           2.0533  -13.2587  -44.3793 N.am      2 UNK        -0.5000 
     65 C           2.3699  -14.4693  -44.8601 C.2       1 UNK         0.5000 
     66 O           2.8714  -15.3577  -44.1699 O.2       1 UNK        -0.5000 
     67 C          -0.4197  -19.4600  -48.6768 C.2       11 UNK         0.5000 
     68 O          -0.6899  -20.2022  -49.6208 O.2       11 UNK        -0.5000 
     69 N          -1.3298  -18.6748  -48.0833 N.am      12 UNK        -0.5000 
     70 CA         -2.7463  -18.6436  -48.4531 C.3       12 UNK         0.1400 
     71 CB         -3.4372  -17.5113  -47.6827 C.3       12 UNK        -0.1800 
     72 C          -3.4679  -19.9897  -48.2195 C.2       12 UNK         0.5000 
     73 O          -4.3166  -20.3701  -49.0267 O.2       12 UNK        -0.5000 
     74 N          -3.0942  -20.7100  -47.1507 N.am      13 UNK        -0.5000 
     75 CA         -3.5923  -22.0555  -46.8609 C.3       13 UNK         0.1400 
     76 CB         -3.4472  -22.3720  -45.3671 C.3       13 UNK        -0.1800 
     77 C          -2.8835  -23.1216  -47.7091 C.2       13 UNK         0.5000 
     78 O          -3.5235  -24.0951  -48.1037 O.2       13 UNK        -0.5000 
     79 N          -1.5946  -22.9127  -48.0154 N.am      14 UNK        -0.5000 
     80 CA         -0.8239  -23.7649  -48.9252 C.3       14 UNK         0.1400 
     81 CB          0.6561  -23.3567  -48.9119 C.3       14 UNK        -0.1800 
     82 C          -1.3910  -23.7424  -50.3572 C.2       14 UNK         0.5000 
     83 O          -1.4958  -24.7956  -50.9838 O.2       14 UNK        -0.5000 
     84 N          -1.8099  -22.5568  -50.8227 N.am      15 UNK        -0.5000 
     85 CA         -2.5175  -22.3618  -52.0877 C.3       15 UNK         0.1400 
     86 CB         -2.6826  -20.8591  -52.3607 C.3       15 UNK        -0.1800 
     87 C          -3.8835  -23.0714  -52.1204 C.2       15 UNK         0.5000 
     88 O          -4.2543  -23.6218  -53.1578 O.2       15 UNK        -0.5000 
     89 N          -4.6065  -23.0668  -50.9918 N.am      16 UNK        -0.5000 
     90 CA         -5.8688  -23.7895  -50.8228 C.3       16 UNK         0.1400 
     91 CB         -6.5892  -23.3041  -49.5569 C.3       16 UNK        -0.1800 
     92 C          -5.6712  -25.3152  -50.8134 C.2       16 UNK         0.5000 
     93 O          -6.4294  -26.0228  -51.4756 O.2       16 UNK        -0.5000 
     94 N          -4.6270  -25.7922  -50.1213 N.am      17 UNK        -0.5000 
     95 CA         -4.2139  -27.1990  -50.0909 C.3       17 UNK         0.1400 
     96 CB         -3.1036  -27.3845  -49.0460 C.3       17 UNK        -0.1800 
     97 C          -3.7640  -27.7244  -51.4692 C.2       17 UNK         0.5000 
     98 O          -4.0405  -28.8769  -51.8024 O.2       17 UNK        -0.5000 
     99 N          -3.1247  -26.8539  -52.2623 N.am      18 UNK        -0.5000 
    100 CA        -2.7464  -27.0906  -53.6577 C.3       18 UNK         0.1400 
    101 CB        -1.6601  -26.0759  -54.0503 C.3       18 UNK        -0.1800 
    102 C         -3.9320  -27.0209  -54.6460 C.2       18 UNK         0.5000 
    103 O         -3.7381  -27.3055  -55.8283 O.2       18 UNK        -0.5000 
    104 N         -5.1213  -26.6321  -54.1602 N.am      19 UNK        -0.5000 
    105 CA        -6.3849  -26.4600  -54.8863 C.3       19 UNK         0.1400 
    106 CB        -6.8468  -27.7820  -55.5345 C.3       19 UNK        -0.1800 
    107 C         -6.3889  -25.2737  -55.8739 C.2       19 UNK         0.5000 
    108 O         -7.2681  -25.2024  -56.7343 O.2       19 UNK        -0.5000 
    109 N         -5.4377  -24.3437  -55.7177 N.am      20 UNK        -0.5000 
    110 CA        -5.3982  -23.0714  -56.4374 C.3       20 UNK         0.1400 
    111 CB        -3.9462  -22.5725  -56.5085 C.3       20 UNK        -0.1800 
    112 C         -6.2960  -22.0278  -55.7514 C.2       20 UNK         0.5000 
    113 O         -6.9440  -21.2341  -56.4352 O.2       20 UNK        -0.5000 
    114 N         -6.3031  -22.0502  -54.4082 N.am      21 UNK        -0.5000 
    115 CA        -7.1091  -21.2306  -53.4923 C.3       21 UNK         0.1400 
    116 CB        -8.5764  -21.7021  -53.5238 C.3       21 UNK        -0.1800 
    117 C         -6.9638  -19.7091  -53.7062 C.2       21 UNK         0.5000 
    118 O         -7.9045  -18.9582  -53.4429 O.2       21 UNK        -0.5000 
    119 N         -5.7889  -19.2931  -54.1984 N.am      22 UNK        -0.5000 
    120 CA        -5.4562  -17.9208  -54.6142 C.3       22 UNK         0.1400 
    121 C         -6.2625  -17.4084  -55.8503 C.2       22 UNK         0.5000 
    122 N         -6.8925  -18.2712  -56.6405 N.am      22 UNK        -0.7600 
    123 O         -6.2923  -16.2117  -56.1250 O.2       22 UNK        -0.5000 
    124 C124       -5.4485  -16.9103  -53.4318 C.3       23 UNK        -0.0398 
    125 S125       -4.2341  -17.3413  -52.1361 S.3       23 UNK        -0.2404 
    126 C126       -2.7607  -16.5131  -52.8108 C.3       23 UNK        -0.0205 
    127 H127        5.8156  -13.1598  -48.5979 H         1 UNK         0.0600 
    128 H128        5.5949  -14.9050  -48.4540 H         1 UNK         0.0600 
    129 H129        6.4656  -14.0203  -47.1975 H         1 UNK         0.0600 
    130 H130        3.7150  -15.6147  -47.4915 H         1 UNK         0.3000 
    131 H131        1.8161  -15.7539  -46.4494 H         1 UNK         0.0600 
    132 H132        1.4110  -13.6339  -48.1050 H         1 UNK         0.0800 
    133 H133        1.0780  -12.7938  -46.6536 H         1 UNK         0.0800 
    134 H134       -0.7843  -13.1033  -48.9821 H         1 UNK         0.0800 
    135 H135       -2.2612  -13.9341  -48.5825 H         1 UNK         0.0800 
    136 H136       -2.8892  -14.9435  -50.6073 H         1 UNK         0.1150 
    137 H137       -0.2265  -17.5445  -52.7296 H         1 UNK         0.1150 
    138 H138        1.1669  -15.4131  -49.2998 H         1 UNK         0.1150 
    139 H139        2.2333  -17.1464  -52.2863 H         1 UNK         0.0800 
    140 H140        2.7554  -16.4748  -50.7669 H         1 UNK         0.0800 
    141 H141        1.7250  -17.5073  -48.5583 H         1 UNK         0.0800 
    142 H142        2.9906  -18.6658  -48.3139 H         1 UNK         0.0800 
    143 H143        1.3767  -20.5101  -48.2190 H         1 UNK         0.0600 
    144 H144        1.5855  -18.5170  -46.2829 H         1 UNK         0.3000 
    145 H145        1.1306  -20.4249  -43.7420 H         1 UNK         0.0600 
    146 H146        1.3731  -18.0051  -42.9948 H         1 UNK         0.0600 
    147 H147        0.9891  -17.4879  -44.6182 H         1 UNK         0.0600 
    148 H148        2.4275  -18.4573  -44.3198 H         1 UNK         0.0600 
    149 H149       -1.1937  -18.5751  -43.7231 H         1 UNK         0.3000 
    150 H150       -3.4604  -20.7845  -42.7097 H         1 UNK         0.0600 
    151 H151       -2.4816  -21.3447  -40.5019 H         1 UNK         0.0600 
    152 H152       -3.7511  -20.1436  -40.3359 H         1 UNK         0.0600 
    153 H153       -2.0625  -19.6568  -40.2391 H         1 UNK         0.0600 
    154 H154       -2.7804  -18.0047  -41.9150 H         1 UNK         0.3000 
    155 H155       -4.2829  -16.5949  -44.7677 H         1 UNK         0.0600 
    156 H156       -5.5039  -16.5926  -41.9578 H         1 UNK         0.0600 
    157 H157       -6.3572  -17.0159  -43.4375 H         1 UNK         0.0600 
    158 H158       -5.7703  -15.3767  -43.2086 H         1 UNK         0.0600 
    159 H159       -3.3915  -15.3660  -42.3904 H         1 UNK         0.3000 
    160 H160       -0.1767  -14.7081  -43.5284 H         1 UNK         0.0600 
    161 H161       -2.2336  -14.1126  -41.3354 H         1 UNK         0.0600 
    162 H162       -2.1450  -13.2917  -42.8947 H         1 UNK         0.0600 
    163 H163       -0.8251  -13.1495  -41.7483 H         1 UNK         0.0600 
    164 H164        0.9092  -15.5397  -41.7434 H         1 UNK         0.3000 
    165 H165        0.7661  -16.0346  -39.1623 H         1 UNK         0.0600 
    166 H166        0.6690  -18.0762  -37.8254 H         1 UNK         0.0600 
    167 H167       -0.9668  -17.5850  -38.2208 H         1 UNK         0.0600 
    168 H168       -0.2180  -18.9254  -39.0855 H         1 UNK         0.0600 
    169 H169        1.8960  -18.5072  -40.1148 H         1 UNK         0.3000 
    170 H170        4.7537  -17.4096  -40.3730 H         1 UNK         0.0600 
    171 H171        3.1131  -19.3611  -42.0951 H         1 UNK         0.0600 
    172 H172        4.7748  -19.6127  -41.5912 H         1 UNK         0.0600 
    173 H173        3.5105  -19.5618  -40.3914 H         1 UNK         0.0600 
    174 H174        3.9733  -16.3829  -42.9100 H         1 UNK         0.3000 
    175 H175        7.3347  -16.5027  -44.2313 H         1 UNK         0.0600 
    176 H176        4.5187  -17.0312  -45.3152 H         1 UNK         0.0600 
    177 H177        5.9279  -16.5637  -46.2661 H         1 UNK         0.0600 
    178 H178        5.8976  -18.1105  -45.4377 H         1 UNK         0.0600 
    179 H179        4.9268  -14.7767  -44.2765 H         1 UNK         0.3000 
    180 H180        6.3829  -12.1810  -42.5136 H         1 UNK         0.0600 
    181 H181        6.4043  -10.7182  -44.5349 H         1 UNK         0.0600 
    182 H182        6.5874  -12.1334  -45.5686 H         1 UNK         0.0600 
    183 H183        7.8553  -11.7023  -44.4316 H         1 UNK         0.0600 
    184 H184        4.3172  -12.5019  -44.6025 H         1 UNK         0.3000 
    185 H185        1.8319  -13.5092  -42.3271 H         1 UNK         0.0600 
    186 H186        1.7048  -11.0855  -41.7951 H         1 UNK         0.0600 
    187 H187        2.0256  -10.6754  -43.4759 H         1 UNK         0.0600 
    188 H188        0.5328  -11.5035  -43.0346 H         1 UNK         0.0600 
    189 H189        1.7005  -12.5637  -45.0202 H         1 UNK         0.3000 
    190 H190       -1.0491  -18.0983  -47.3034 H         1 UNK         0.3000 
    191 H191       -2.8076  -18.4171  -49.5199 H         1 UNK         0.0600 
    192 H192       -3.0024  -16.5430  -47.9304 H         1 UNK         0.0600 
    193 H193       -3.3446  -17.6549  -46.6069 H         1 UNK         0.0600 
    194 H194       -4.5000  -17.4634  -47.9229 H         1 UNK         0.0600 
    195 H195       -2.3435  -20.3716  -46.5628 H         1 UNK         0.3000 
    196 H196       -4.6565  -22.0948  -47.1024 H         1 UNK         0.0600 
    197 H197       -4.0436  -21.6877  -44.7671 H         1 UNK         0.0600 
    198 H198       -2.4117  -22.3086  -45.0345 H         1 UNK         0.0600 
    199 H199       -3.7992  -23.3806  -45.1467 H         1 UNK         0.0600 
    200 H200       -1.1241  -22.1118  -47.6112 H         1 UNK         0.3000 
    201 H201       -0.8935  -24.7886  -48.5520 H         1 UNK         0.0600 
    202 H202        1.0407  -23.2794  -47.8947 H         1 UNK         0.0600 
    203 H203        0.8171  -22.4019  -49.4107 H         1 UNK         0.0600 
    204 H204        1.2621  -24.0971  -49.4352 H         1 UNK         0.0600 
    205 H205       -1.6125  -21.7222  -50.2754 H         1 UNK         0.3000 
    206 H206       -1.9028  -22.7874  -52.8831 H         1 UNK         0.0600 
    207 H207       -3.2904  -20.3738  -51.5963 H         1 UNK         0.0600 
    208 H208       -1.7171  -20.3532  -52.3850 H         1 UNK         0.0600 
    209 H209       -3.1641  -20.6857  -53.3234 H         1 UNK         0.0600 
    210 H210       -4.2467  -22.5758  -50.1847 H         1 UNK         0.3000 
    211 H211       -6.5093  -23.5591  -51.6753 H         1 UNK         0.0600 
    212 H212       -6.0306  -23.5415  -48.6524 H         1 UNK         0.0600 
    213 H213       -7.5697  -23.7728  -49.4658 H         1 UNK         0.0600 
    214 H214       -6.7446  -22.2252  -49.5810 H         1 UNK         0.0600 
    215 H215       -4.0853  -25.1461  -49.5521 H         1 UNK         0.3000 
    216 H216       -5.0768  -27.7904  -49.7779 H         1 UNK         0.0600 
    217 H217       -2.8135  -28.4329  -48.9669 H         1 UNK         0.0600 
    218 H218       -3.4335  -27.0619  -48.0583 H         1 UNK         0.0600 
    219 H219       -2.2101  -26.8155  -49.3021 H         1 UNK         0.0600 
    220 H220       -2.8575  -25.9559  -51.8710 H         1 UNK         0.3000 
    221 H221       -2.3198  -28.0927  -53.7336 H         1 UNK         0.0600 
    222 H222       -2.0322  -25.0523  -54.0054 H         1 UNK         0.0600 
    223 H223       -0.7959  -26.1474  -53.3897 H         1 UNK         0.0600 
    224 H224       -1.3053  -26.2515  -55.0666 H         1 UNK         0.0600 
    225 H225       -5.1744  -26.4162  -53.1721 H         1 UNK         0.3000 
    226 H226       -7.1233  -26.2029  -54.1260 H         1 UNK         0.0600 
    227 H227       -6.8349  -28.5996  -54.8137 H         1 UNK         0.0600 
    228 H228       -7.8675  -27.6976  -55.9093 H         1 UNK         0.0600 
    229 H229       -6.2154  -28.0657  -56.3766 H         1 UNK         0.0600 
    230 H230       -4.7877  -24.4479  -54.9465 H         1 UNK         0.3000 
    231 H231       -5.7597  -23.2159  -57.4577 H         1 UNK         0.0600 
    232 H232       -3.8841  -21.6306  -57.0550 H         1 UNK         0.0600 
    233 H233       -3.3102  -23.2910  -57.0259 H         1 UNK         0.0600 
    234 H234       -3.5222  -22.4061  -55.5176 H         1 UNK         0.0600 
    235 H235       -5.6832  -22.7199  -53.9609 H         1 UNK         0.3000 
    236 H236       -6.7229  -21.4134  -52.4898 H         1 UNK         0.0600 
    237 H237       -9.0416  -21.5005  -54.4893 H         1 UNK         0.0600 
    238 H238       -8.6494  -22.7730  -53.3337 H         1 UNK         0.0600 
    239 H239       -9.1700  -21.1983  -52.7602 H         1 UNK         0.0600 
    240 H240       -5.0882  -19.9906  -54.3948 H         1 UNK         0.3000 
    241 H241       -4.4324  -17.9790  -54.9845 H         1 UNK         0.0600 
    242 H242       -7.3982  -17.9256  -57.4405 H         1 UNK         0.3800 
    243 H243       -6.8814  -19.2692  -56.4525 H         1 UNK         0.3800 
    244 H244       -5.2334  -15.9003  -53.7828 H         1 UNK         0.0800 
    245 H245       -6.4348  -16.8495  -52.9715 H         1 UNK         0.0800 
    246 H246       -3.0359  -15.5418  -53.2237 H         1 UNK         0.0800 
    247 H247       -2.3758  -17.1033  -53.6438 H         1 UNK         0.0800 
@<TRIPOS>BOND
     1    1    2 1    
     2    1  127 1    
     3    1  128 1    
     4    1  129 1    
     5    2    3 2    
     6    2    4 am   BACKBONE|DICT|INTERRES
     7    4    5 1    
     8    4  130 1    
     9    5    6 1    
    10    5   65 1    
    11    5  131 1    
    12    6    7 1    
    13    6  132 1    
    14    6  133 1    
    15    7    8 1    
    16    8    9 1    
    17    8  134 1    
    18    8  135 1    
    19    9   10 ar   
    20    9   14 ar   
    21   10   11 ar   
    22   10  136 1    
    23   11   12 ar   
    24   11  126 1    
    25   12   13 ar   
    26   12  137 1    
    27   13   14 ar   
    28   13   15 1    
    29   14  138 1    
    30   15   16 1    
    31   15  139 1    
    32   15  140 1    
    33   16   17 1    
    34   17   18 1    
    35   17  141 1    
    36   17  142 1    
    37   18   19 1    
    38   18   67 1    
    39   18  143 1    
    40   19   20 am   BACKBONE|DICT|INTERRES
    41   19  144 1    
    42   20   21 2    
    43   20   22 1    
    44   22   23 1    
    45   22   24 1    
    46   22  145 1    
    47   23  146 1    
    48   23  147 1    
    49   23  148 1    
    50   24   25 am   BACKBONE|DICT|INTERRES
    51   24  149 1    
    52   25   26 2    
    53   25   27 1    
    54   27   28 1    
    55   27   29 1    
    56   27  150 1    
    57   28  151 1    
    58   28  152 1    
    59   28  153 1    
    60   29   30 am   BACKBONE|DICT|INTERRES
    61   29  154 1    
    62   30   31 2    
    63   30   32 1    
    64   32   33 1    
    65   32   34 1    
    66   32  155 1    
    67   33  156 1    
    68   33  157 1    
    69   33  158 1    
    70   34   35 am   BACKBONE|DICT|INTERRES
    71   34  159 1    
    72   35   36 2    
    73   35   37 1    
    74   37   38 1    
    75   37   39 1    
    76   37  160 1    
    77   38  161 1    
    78   38  162 1    
    79   38  163 1    
    80   39   40 am   BACKBONE|DICT|INTERRES
    81   39  164 1    
    82   40   41 2    
    83   40   42 1    
    84   42   43 1    
    85   42   44 1    
    86   42  165 1    
    87   43  166 1    
    88   43  167 1    
    89   43  168 1    
    90   44   45 am   BACKBONE|DICT|INTERRES
    91   44  169 1    
    92   45   46 2    
    93   45   47 1    
    94   47   48 1    
    95   47   49 1    
    96   47  170 1    
    97   48  171 1    
    98   48  172 1    
    99   48  173 1    
   100   49   50 am   BACKBONE|DICT|INTERRES
   101   49  174 1    
   102   50   51 2    
   103   50   52 1    
   104   52   53 1    
   105   52   54 1    
   106   52  175 1    
   107   53  176 1    
   108   53  177 1    
   109   53  178 1    
   110   54   55 am   BACKBONE|DICT|INTERRES
   111   54  179 1    
   112   55   56 2    
   113   55   57 1    
   114   57   58 1    
   115   57   59 1    
   116   57  180 1    
   117   58  181 1    
   118   58  182 1    
   119   58  183 1    
   120   59   60 am   BACKBONE|DICT|INTERRES
   121   59  184 1    
   122   60   61 2    
   123   60   62 1    
   124   62   63 1    
   125   62   64 1    
   126   62  185 1    
   127   63  186 1    
   128   63  187 1    
   129   63  188 1    
   130   64   65 am   BACKBONE|DICT|INTERRES
   131   64  189 1    
   132   65   66 2    
   133   67   68 2    
   134   67   69 am   BACKBONE|DICT|INTERRES
   135   69   70 1    
   136   69  190 1    
   137   70   71 1    
   138   70   72 1    
   139   70  191 1    
   140   71  192 1    
   141   71  193 1    
   142   71  194 1    
   143   72   73 2    
   144   72   74 am   BACKBONE|DICT|INTERRES
   145   74   75 1    
   146   74  195 1    
   147   75   76 1    
   148   75   77 1    
   149   75  196 1    
   150   76  197 1    
   151   76  198 1    
   152   76  199 1    
   153   77   78 2    
   154   77   79 am   BACKBONE|DICT|INTERRES
   155   79   80 1    
   156   79  200 1    
   157   80   81 1    
   158   80   82 1    
   159   80  201 1    
   160   81  202 1    
   161   81  203 1    
   162   81  204 1    
   163   82   83 2    
   164   82   84 am   BACKBONE|DICT|INTERRES
   165   84   85 1    
   166   84  205 1    
   167   85   86 1    
   168   85   87 1    
   169   85  206 1    
   170   86  207 1    
   171   86  208 1    
   172   86  209 1    
   173   87   88 2    
   174   87   89 am   BACKBONE|DICT|INTERRES
   175   89   90 1    
   176   89  210 1    
   177   90   91 1    
   178   90   92 1    
   179   90  211 1    
   180   91  212 1    
   181   91  213 1    
   182   91  214 1    
   183   92   93 2    
   184   92   94 am   BACKBONE|DICT|INTERRES
   185   94   95 1    
   186   94  215 1    
   187   95   96 1    
   188   95   97 1    
   189   95  216 1    
   190   96  217 1    
   191   96  218 1    
   192   96  219 1    
   193   97   98 2    
   194   97   99 am   BACKBONE|DICT|INTERRES
   195   99  100 1    
   196   99  220 1    
   197  100  101 1    
   198  100  102 1    
   199  100  221 1    
   200  101  222 1    
   201  101  223 1    
   202  101  224 1    
   203  102  103 2    
   204  102  104 am   BACKBONE|DICT|INTERRES
   205  104  105 1    
   206  104  225 1    
   207  105  106 1    
   208  105  107 1    
   209  105  226 1    
   210  106  227 1    
   211  106  228 1    
   212  106  229 1    
   213  107  108 2    
   214  107  109 am   BACKBONE|DICT|INTERRES
   215  109  110 1    
   216  109  230 1    
   217  110  111 1    
   218  110  112 1    
   219  110  231 1    
   220  111  232 1    
   221  111  233 1    
   222  111  234 1    
   223  112  113 2    
   224  112  114 am   BACKBONE|DICT|INTERRES
   225  114  115 1    
   226  114  235 1    
   227  115  116 1    
   228  115  117 1    
   229  115  236 1    
   230  116  237 1    
   231  116  238 1    
   232  116  239 1    
   233  117  118 2    
   234  117  119 am   BACKBONE|DICT|INTERRES
   235  119  120 1    
   236  119  240 1    
   237  120  121 1    
   238  120  124 1    
   239  120  241 1    
   240  121  122 am   BACKBONE|DICT|INTERRES
   241  121  123 2    
   242  122  242 1    
   243  122  243 1    
   244  124  125 1    
   245  124  244 1    
   246  124  245 1    
   247  125  126 1    
   248  126  246 1    
   249  126  247 1    
@<TRIPOS>SUBSTRUCTURE
     1 UNK         1 GROUP             0       ****    0 ROOT    
