@<TRIPOS>MOLECULE
3R540
247   249    1
SMALL
USER_CHARGES


@<TRIPOS>ATOM
      1 CA          4.0564  -14.4322  -47.3490 C.3       0 UNK        -0.1800 
      2 C           2.9445  -14.8141  -48.3152 C.2       0 UNK         0.5000 
      3 O           1.8703  -15.2323  -47.8819 O.2       0 UNK        -0.5000 
      4 N           3.1953  -14.6813  -49.6232 N.am      1 UNK        -0.5000 
      5 CA          2.2434  -15.0190  -50.6849 C.3       1 UNK         0.1400 
      6 C6          2.8813  -15.0366  -52.1003 C.3       23 UNK        -0.0398 
      7 S7          4.4438  -15.9858  -52.2002 S.3       23 UNK        -0.2404 
      8 C8          3.8710  -17.6817  -52.5598 C.3       23 UNK        -0.0205 
      9 C9          2.9658  -18.2242  -51.4636 C.ar      23 UNK        -0.0193 
     10 C10         1.6393  -18.5592  -51.7484 C.ar      23 UNK        -0.1150 
     11 C11         0.7744  -18.9647  -50.7284 C.ar      23 UNK        -0.0193 
     12 C12         1.2488  -19.0448  -49.4157 C.ar      23 UNK        -0.1150 
     13 C13         2.5746  -18.7130  -49.1171 C.ar      23 UNK        -0.0193 
     14 C14         3.4323  -18.3242  -50.1491 C.ar      23 UNK        -0.1150 
     15 C15         3.0588  -18.6775  -47.6744 C.3       23 UNK        -0.0205 
     16 S16         4.3977  -19.8611  -47.3338 S.3       23 UNK        -0.2404 
     17 C17         3.5027  -21.4474  -47.2992 C.3       23 UNK        -0.0398 
     18 CA          3.9964  -22.3656  -46.1520 C.3       11 UNK         0.1400 
     19 N           3.6530  -21.8289  -44.8274 N.am      11 UNK        -0.5000 
     20 C           4.2482  -22.1876  -43.6811 C.2       10 UNK         0.5000 
     21 O           5.2039  -22.9616  -43.6207 O.2       10 UNK        -0.5000 
     22 CA          3.6480  -21.6225  -42.3801 C.3       10 UNK         0.1400 
     23 CB          4.2574  -20.2543  -42.0372 C.3       10 UNK        -0.1800 
     24 N           2.1886  -21.5151  -42.4475 N.am      10 UNK        -0.5000 
     25 C           1.3533  -22.5619  -42.3745 C.2       9 UNK         0.5000 
     26 O           1.7291  -23.7221  -42.2080 O.2       9 UNK        -0.5000 
     27 CA         -0.1510  -22.2809  -42.5545 C.3       9 UNK         0.1400 
     28 CB         -0.8042  -21.9467  -41.2057 C.3       9 UNK        -0.1800 
     29 N          -0.4322  -21.2045  -43.5032 N.am      9 UNK        -0.5000 
     30 C          -0.1248  -21.2300  -44.8059 C.2       8 UNK         0.5000 
     31 O           0.3922  -22.1934  -45.3686 O.2       8 UNK        -0.5000 
     32 CA         -0.3921  -19.9474  -45.6095 C.3       8 UNK         0.1400 
     33 CB         -1.8427  -19.9104  -46.0978 C.3       8 UNK        -0.1800 
     34 N          -0.0873  -18.7226  -44.8687 N.am      8 UNK        -0.5000 
     35 C           1.1145  -18.4237  -44.3531 C.2       7 UNK         0.5000 
     36 O           2.0932  -19.1663  -44.4279 O.2       7 UNK        -0.5000 
     37 CA          1.2293  -17.0916  -43.5996 C.3       7 UNK         0.1400 
     38 CB          1.4271  -15.9329  -44.5838 C.3       7 UNK        -0.1800 
     39 N           0.0478  -16.8490  -42.7736 N.am      7 UNK        -0.5000 
     40 C          -0.1839  -17.4783  -41.6124 C.2       6 UNK         0.5000 
     41 O           0.6128  -18.2543  -41.0833 O.2       6 UNK        -0.5000 
     42 CA         -1.5525  -17.2313  -40.9515 C.3       6 UNK         0.1400 
     43 CB         -1.5510  -15.9057  -40.1751 C.3       6 UNK        -0.1800 
     44 N          -2.6565  -17.2275  -41.9122 N.am      6 UNK        -0.5000 
     45 C          -3.0204  -18.2726  -42.6696 C.2       5 UNK         0.5000 
     46 O          -2.4773  -19.3751  -42.6191 O.2       5 UNK        -0.5000 
     47 CA         -4.1649  -18.0425  -43.6752 C.3       5 UNK         0.1400 
     48 CB         -5.5041  -18.4943  -43.0751 C.3       5 UNK        -0.1800 
     49 N          -4.2839  -16.6558  -44.1306 N.am      5 UNK        -0.5000 
     50 C          -3.3490  -15.9815  -44.8149 C.2       4 UNK         0.5000 
     51 O          -2.2618  -16.4708  -45.1379 O.2       4 UNK        -0.5000 
     52 CA         -3.7216  -14.5269  -45.1751 C.3       4 UNK         0.1400 
     53 CB         -4.0960  -13.7012  -43.9237 C.3       4 UNK        -0.1800 
     54 N          -2.7064  -13.8307  -45.9709 N.am      4 UNK        -0.5000 
     55 C          -1.4745  -13.4570  -45.5989 C.2       3 UNK         0.5000 
     56 O          -1.0103  -13.6437  -44.4723 O.2       3 UNK        -0.5000 
     57 CA         -0.6350  -12.7316  -46.6732 C.3       3 UNK         0.1400 
     58 CB          0.8255  -12.5098  -46.2434 C.3       3 UNK        -0.1800 
     59 N          -0.6610  -13.4266  -47.9654 N.am      3 UNK        -0.5000 
     60 C          -1.5951  -13.2449  -48.9117 C.2       2 UNK         0.5000 
     61 O          -2.5675  -12.5077  -48.7454 O.2       2 UNK        -0.5000 
     62 CA         -1.4673  -14.0290  -50.2385 C.3       2 UNK         0.1400 
     63 CB         -1.8568  -13.1785  -51.4678 C.3       2 UNK        -0.1800 
     64 N          -0.1671  -14.6790  -50.4398 N.am      2 UNK        -0.5000 
     65 C           1.0208  -14.0846  -50.6235 C.2       1 UNK         0.5000 
     66 O           1.1880  -12.8657  -50.7019 O.2       1 UNK        -0.5000 
     67 C           3.4736  -23.8047  -46.3675 C.2       11 UNK         0.5000 
     68 O           3.9158  -24.4611  -47.3110 O.2       11 UNK        -0.5000 
     69 N           2.5277  -24.2520  -45.5253 N.am      12 UNK        -0.5000 
     70 CA          1.7206  -25.4725  -45.6567 C.3       12 UNK         0.1400 
     71 CB          2.5921  -26.7401  -45.5423 C.3       12 UNK        -0.1800 
     72 C           0.8397  -25.4430  -46.9266 C.2       12 UNK         0.5000 
     73 O           0.6340  -26.4697  -47.5758 O.2       12 UNK        -0.5000 
     74 N           0.3514  -24.2414  -47.2531 N.am      13 UNK        -0.5000 
     75 CA         -0.4211  -23.9052  -48.4460 C.3       13 UNK         0.1400 
     76 CB          0.2804  -22.7238  -49.1391 C.3       13 UNK        -0.1800 
     77 C          -1.8759  -23.5324  -48.1078 C.2       13 UNK         0.5000 
     78 O          -2.6222  -23.1909  -49.0224 O.2       13 UNK        -0.5000 
     79 N          -2.2421  -23.5729  -46.8168 N.am      14 UNK        -0.5000 
     80 CA         -3.5333  -23.1658  -46.2584 C.3       14 UNK         0.1400 
     81 CB         -3.5319  -23.4280  -44.7435 C.3       14 UNK        -0.1800 
     82 C          -4.7405  -23.8318  -46.9439 C.2       14 UNK         0.5000 
     83 O          -4.9443  -25.0375  -46.7886 O.2       14 UNK        -0.5000 
     84 N          -5.4954  -23.0183  -47.6953 N.am      15 UNK        -0.5000 
     85 CA         -6.6643  -23.3731  -48.5077 C.3       15 UNK         0.1400 
     86 CB         -7.8099  -23.9235  -47.6321 C.3       15 UNK        -0.1800 
     87 C          -6.3267  -24.2862  -49.7069 C.2       15 UNK         0.5000 
     88 O          -7.2049  -24.9884  -50.2121 O.2       15 UNK        -0.5000 
     89 N          -5.0686  -24.2430  -50.1541 N.am      16 UNK        -0.5000 
     90 CA         -4.5383  -24.9374  -51.3197 C.3       16 UNK         0.1400 
     91 CB         -3.7316  -26.1626  -50.8437 C.3       16 UNK        -0.1800 
     92 C          -3.7102  -23.9364  -52.1484 C.2       16 UNK         0.5000 
     93 O          -3.9828  -22.7333  -52.0954 O.2       16 UNK        -0.5000 
     94 N          -2.7248  -24.4495  -52.9005 N.am      17 UNK        -0.5000 
     95 CA         -1.8015  -23.7144  -53.7704 C.3       17 UNK         0.1400 
     96 CB         -0.8342  -22.8528  -52.9256 C.3       17 UNK        -0.1800 
     97 C          -2.5497  -22.9427  -54.8791 C.2       17 UNK         0.5000 
     98 O          -3.3119  -23.5584  -55.6278 O.2       17 UNK        -0.5000 
     99 N          -2.3233  -21.6305  -54.9713 N.am      18 UNK        -0.5000 
    100 CA        -3.0038  -20.7014  -55.8628 C.3       18 UNK         0.1400 
    101 CB        -2.1536  -20.4835  -57.1255 C.3       18 UNK        -0.1800 
    102 C         -3.2158  -19.3887  -55.0969 C.2       18 UNK         0.5000 
    103 O         -2.4564  -19.1091  -54.1668 O.2       18 UNK        -0.5000 
    104 N         -4.2284  -18.6213  -55.5239 N.am      19 UNK        -0.5000 
    105 CA        -4.7818  -17.4121  -54.9029 C.3       19 UNK         0.1400 
    106 CB        -3.7128  -16.3314  -54.6395 C.3       19 UNK        -0.1800 
    107 C         -5.5731  -17.7498  -53.6264 C.2       19 UNK         0.5000 
    108 O         -5.0046  -18.2472  -52.6536 O.2       19 UNK        -0.5000 
    109 N         -6.8784  -17.4452  -53.6388 N.am      20 UNK        -0.5000 
    110 CA        -7.8345  -17.7269  -52.5574 C.3       20 UNK         0.1400 
    111 CB        -9.2475  -17.3661  -53.0420 C.3       20 UNK        -0.1800 
    112 C         -7.5273  -17.0231  -51.2178 C.2       20 UNK         0.5000 
    113 O         -8.0630  -17.4221  -50.1835 O.2       20 UNK        -0.5000 
    114 N         -6.6564  -16.0072  -51.2576 N.am      21 UNK        -0.5000 
    115 CA        -6.1032  -15.3037  -50.1024 C.3       21 UNK         0.1400 
    116 CB        -5.4085  -14.0319  -50.6071 C.3       21 UNK        -0.1800 
    117 C         -5.1296  -16.1512  -49.2543 C.2       21 UNK         0.5000 
    118 O         -4.7994  -15.7348  -48.1440 O.2       21 UNK        -0.5000 
    119 N         -4.6827  -17.3041  -49.7675 N.am      22 UNK        -0.5000 
    120 CA        -3.8157  -18.2489  -49.0522 C.3       22 UNK         0.1400 
    121 C         -4.1269  -19.7309  -49.3936 C.2       22 UNK         0.5000 
    122 N         -4.3251  -20.0898  -50.6551 N.am      22 UNK        -0.7600 
    123 O         -4.2223  -20.5591  -48.4930 O.2       22 UNK        -0.5000 
    124 C124       -2.3073  -17.8992  -49.1820 C.3       23 UNK        -0.0398 
    125 S125       -1.7114  -17.7763  -50.9053 S.3       23 UNK        -0.2404 
    126 C126       -0.6800  -19.2701  -51.0511 C.3       23 UNK        -0.0205 
    127 H127        3.7337  -13.6116  -46.7089 H         1 UNK         0.0600 
    128 H128        4.9594  -14.1199  -47.8741 H         1 UNK         0.0600 
    129 H129        4.3091  -15.2816  -46.7146 H         1 UNK         0.0600 
    130 H130        4.0886  -14.3277  -49.9331 H         1 UNK         0.3000 
    131 H131        1.8840  -16.0238  -50.4685 H         1 UNK         0.0600 
    132 H132        3.1033  -14.0187  -52.4261 H         1 UNK         0.0800 
    133 H133        2.1753  -15.4391  -52.8288 H         1 UNK         0.0800 
    134 H134        3.3656  -17.6905  -53.5267 H         1 UNK         0.0800 
    135 H135        4.7384  -18.3356  -52.6585 H         1 UNK         0.0800 
    136 H136        1.2657  -18.4705  -52.7590 H         1 UNK         0.1150 
    137 H137        0.5729  -19.3294  -48.6250 H         1 UNK         0.1150 
    138 H138        4.4501  -18.0416  -49.9194 H         1 UNK         0.1150 
    139 H139        3.4231  -17.6743  -47.4533 H         1 UNK         0.0800 
    140 H140        2.2330  -18.8505  -46.9896 H         1 UNK         0.0800 
    141 H141        2.4301  -21.2707  -47.2091 H         1 UNK         0.0800 
    142 H142        3.6534  -21.9160  -48.2737 H         1 UNK         0.0800 
    143 H143        5.0849  -22.4260  -46.2187 H         1 UNK         0.0600 
    144 H144        2.9172  -21.1325  -44.7920 H         1 UNK         0.3000 
    145 H145        3.9019  -22.3107  -41.5709 H         1 UNK         0.0600 
    146 H146        3.8314  -19.8509  -41.1183 H         1 UNK         0.0600 
    147 H147        4.0967  -19.5241  -42.8298 H         1 UNK         0.0600 
    148 H148        5.3344  -20.3378  -41.8877 H         1 UNK         0.0600 
    149 H149        1.8092  -20.5970  -42.6382 H         1 UNK         0.3000 
    150 H150       -0.6108  -23.1931  -42.9398 H         1 UNK         0.0600 
    151 H151       -0.6171  -22.7325  -40.4728 H         1 UNK         0.0600 
    152 H152       -1.8851  -21.8470  -41.3069 H         1 UNK         0.0600 
    153 H153       -0.4198  -21.0121  -40.7948 H         1 UNK         0.0600 
    154 H154       -0.9278  -20.3959  -43.1371 H         1 UNK         0.3000 
    155 H155        0.2597  -19.9652  -46.4816 H         1 UNK         0.0600 
    156 H156       -1.9655  -20.5664  -46.9592 H         1 UNK         0.0600 
    157 H157       -2.1445  -18.9095  -46.4022 H         1 UNK         0.0600 
    158 H158       -2.5365  -20.2441  -45.3268 H         1 UNK         0.0600 
    159 H159       -0.8327  -18.0409  -44.7831 H         1 UNK         0.3000 
    160 H160        2.1095  -17.1415  -42.9547 H         1 UNK         0.0600 
    161 H161        0.5878  -15.8412  -45.2745 H         1 UNK         0.0600 
    162 H162        2.3267  -16.0800  -45.1824 H         1 UNK         0.0600 
    163 H163        1.5357  -14.9841  -44.0586 H         1 UNK         0.0600 
    164 H164       -0.6633  -16.2439  -43.1625 H         1 UNK         0.3000 
    165 H165       -1.7297  -18.0434  -40.2431 H         1 UNK         0.0600 
    166 H166       -2.4863  -15.7649  -39.6331 H         1 UNK         0.0600 
    167 H167       -0.7447  -15.8847  -39.4408 H         1 UNK         0.0600 
    168 H168       -1.4144  -15.0500  -40.8378 H         1 UNK         0.0600 
    169 H169       -3.1587  -16.3598  -42.0245 H         1 UNK         0.3000 
    170 H170       -3.9670  -18.6572  -44.5530 H         1 UNK         0.0600 
    171 H171       -5.4557  -19.5355  -42.7530 H         1 UNK         0.0600 
    172 H172       -5.7796  -17.8944  -42.2069 H         1 UNK         0.0600 
    173 H173       -6.3097  -18.4199  -43.8058 H         1 UNK         0.0600 
    174 H174       -5.1533  -16.1913  -43.9123 H         1 UNK         0.3000 
    175 H175       -4.6070  -14.5794  -45.8086 H         1 UNK         0.0600 
    176 H176       -3.3050  -13.7147  -43.1732 H         1 UNK         0.0600 
    177 H177       -4.2917  -12.6607  -44.1831 H         1 UNK         0.0600 
    178 H178       -4.9996  -14.0839  -43.4488 H         1 UNK         0.0600 
    179 H179       -2.9729  -13.6330  -46.9276 H         1 UNK         0.3000 
    180 H180       -1.0786  -11.7414  -46.7961 H         1 UNK         0.0600 
    181 H181        0.8794  -11.8835  -45.3523 H         1 UNK         0.0600 
    182 H182        1.3981  -12.0119  -47.0261 H         1 UNK         0.0600 
    183 H183        1.3220  -13.4499  -46.0095 H         1 UNK         0.0600 
    184 H184        0.0916  -14.0869  -48.1298 H         1 UNK         0.3000 
    185 H185       -2.1970  -14.8359  -50.1647 H         1 UNK         0.0600 
    186 H186       -2.8551  -12.7555  -51.3605 H         1 UNK         0.0600 
    187 H187       -1.1779  -12.3398  -51.6193 H         1 UNK         0.0600 
    188 H188       -1.8569  -13.7803  -52.3767 H         1 UNK         0.0600 
    189 H189       -0.1881  -15.6887  -50.3781 H         1 UNK         0.3000 
    190 H190        2.2236  -23.6132  -44.8030 H         1 UNK         0.3000 
    191 H191        1.0324  -25.4705  -44.8102 H         1 UNK         0.0600 
    192 H192        1.9712  -27.6348  -45.4867 H         1 UNK         0.0600 
    193 H193        3.2060  -26.7152  -44.6419 H         1 UNK         0.0600 
    194 H194        3.2560  -26.8586  -46.3987 H         1 UNK         0.0600 
    195 H195        0.5353  -23.4670  -46.6168 H         1 UNK         0.3000 
    196 H196       -0.4513  -24.7497  -49.1371 H         1 UNK         0.0600 
    197 H197        0.3235  -21.8490  -48.4898 H         1 UNK         0.0600 
    198 H198        1.3007  -22.9812  -49.4239 H         1 UNK         0.0600 
    199 H199       -0.2453  -22.4282  -50.0466 H         1 UNK         0.0600 
    200 H200       -1.5514  -23.8870  -46.1527 H         1 UNK         0.3000 
    201 H201       -3.6251  -22.0897  -46.3985 H         1 UNK         0.0600 
    202 H202       -4.4900  -23.1553  -44.2994 H         1 UNK         0.0600 
    203 H203       -2.7662  -22.8382  -44.2409 H         1 UNK         0.0600 
    204 H204       -3.3516  -24.4794  -44.5166 H         1 UNK         0.0600 
    205 H205       -5.1496  -22.0706  -47.8407 H         1 UNK         0.3000 
    206 H206       -7.0111  -22.4350  -48.9431 H         1 UNK         0.0600 
    207 H207       -8.0230  -23.2572  -46.7962 H         1 UNK         0.0600 
    208 H208       -8.7300  -24.0213  -48.2092 H         1 UNK         0.0600 
    209 H209       -7.5750  -24.9079  -47.2268 H         1 UNK         0.0600 
    210 H210       -4.4004  -23.6275  -49.6950 H         1 UNK         0.3000 
    211 H211       -5.3547  -25.2774  -51.9595 H         1 UNK         0.0600 
    212 H212       -2.8382  -25.8650  -50.2930 H         1 UNK         0.0600 
    213 H213       -3.4190  -26.7877  -51.6804 H         1 UNK         0.0600 
    214 H214       -4.3303  -26.7921  -50.1849 H         1 UNK         0.0600 
    215 H215       -2.6075  -25.4524  -52.9009 H         1 UNK         0.3000 
    216 H216       -1.2009  -24.4656  -54.2851 H         1 UNK         0.0600 
    217 H217       -0.2871  -23.4742  -52.2170 H         1 UNK         0.0600 
    218 H218       -1.3584  -22.0853  -52.3551 H         1 UNK         0.0600 
    219 H219       -0.0909  -22.3573  -53.5513 H         1 UNK         0.0600 
    220 H220       -1.7582  -21.1744  -54.2659 H         1 UNK         0.3000 
    221 H221       -3.9815  -21.1002  -56.1419 H         1 UNK         0.0600 
    222 H222       -2.6402  -19.7887  -57.8109 H         1 UNK         0.0600 
    223 H223       -1.1724  -20.0736  -56.8822 H         1 UNK         0.0600 
    224 H224       -2.0016  -21.4190  -57.6641 H         1 UNK         0.0600 
    225 H225       -4.7648  -18.9647  -56.3084 H         1 UNK         0.3000 
    226 H226       -5.4773  -17.0008  -55.6362 H         1 UNK         0.0600 
    227 H227       -3.1199  -16.1348  -55.5326 H         1 UNK         0.0600 
    228 H228       -4.1798  -15.3913  -54.3442 H         1 UNK         0.0600 
    229 H229       -3.0296  -16.6128  -53.8372 H         1 UNK         0.0600 
    230 H230       -7.2688  -17.0232  -54.4692 H         1 UNK         0.3000 
    231 H231       -7.8034  -18.8012  -52.3644 H         1 UNK         0.0600 
    232 H232       -9.9941  -17.5941  -52.2800 H         1 UNK         0.0600 
    233 H233       -9.5159  -17.9314  -53.9347 H         1 UNK         0.0600 
    234 H234       -9.3323  -16.3043  -53.2769 H         1 UNK         0.0600 
    235 H235       -6.2756  -15.7571  -52.1576 H         1 UNK         0.3000 
    236 H236       -6.9290  -15.0108  -49.4511 H         1 UNK         0.0600 
    237 H237       -6.1132  -13.3690  -51.1093 H         1 UNK         0.0600 
    238 H238       -4.9655  -13.4693  -49.7843 H         1 UNK         0.0600 
    239 H239       -4.6137  -14.2736  -51.3126 H         1 UNK         0.0600 
    240 H240       -4.9720  -17.5876  -50.6969 H         1 UNK         0.3000 
    241 H241       -4.0559  -18.1632  -47.9899 H         1 UNK         0.0600 
    242 H242       -4.3052  -19.4096  -51.4112 H         1 UNK         0.3800 
    243 H243       -4.4424  -21.0669  -50.8901 H         1 UNK         0.3800 
    244 H244       -2.1180  -16.9417  -48.6952 H         1 UNK         0.0800 
    245 H245       -1.6993  -18.6214  -48.6402 H         1 UNK         0.0800 
    246 H246       -0.7584  -19.6425  -52.0732 H         1 UNK         0.0800 
    247 H247       -1.0641  -20.0672  -50.4130 H         1 UNK         0.0800 
@<TRIPOS>BOND
     1    1    2 1    
     2    1  127 1    
     3    1  128 1    
     4    1  129 1    
     5    2    3 2    
     6    2    4 am   BACKBONE|DICT|INTERRES
     7    4    5 1    
     8    4  130 1    
     9    5    6 1    
    10    5   65 1    
    11    5  131 1    
    12    6    7 1    
    13    6  132 1    
    14    6  133 1    
    15    7    8 1    
    16    8    9 1    
    17    8  134 1    
    18    8  135 1    
    19    9   10 ar   
    20    9   14 ar   
    21   10   11 ar   
    22   10  136 1    
    23   11   12 ar   
    24   11  126 1    
    25   12   13 ar   
    26   12  137 1    
    27   13   14 ar   
    28   13   15 1    
    29   14  138 1    
    30   15   16 1    
    31   15  139 1    
    32   15  140 1    
    33   16   17 1    
    34   17   18 1    
    35   17  141 1    
    36   17  142 1    
    37   18   19 1    
    38   18   67 1    
    39   18  143 1    
    40   19   20 am   BACKBONE|DICT|INTERRES
    41   19  144 1    
    42   20   21 2    
    43   20   22 1    
    44   22   23 1    
    45   22   24 1    
    46   22  145 1    
    47   23  146 1    
    48   23  147 1    
    49   23  148 1    
    50   24   25 am   BACKBONE|DICT|INTERRES
    51   24  149 1    
    52   25   26 2    
    53   25   27 1    
    54   27   28 1    
    55   27   29 1    
    56   27  150 1    
    57   28  151 1    
    58   28  152 1    
    59   28  153 1    
    60   29   30 am   BACKBONE|DICT|INTERRES
    61   29  154 1    
    62   30   31 2    
    63   30   32 1    
    64   32   33 1    
    65   32   34 1    
    66   32  155 1    
    67   33  156 1    
    68   33  157 1    
    69   33  158 1    
    70   34   35 am   BACKBONE|DICT|INTERRES
    71   34  159 1    
    72   35   36 2    
    73   35   37 1    
    74   37   38 1    
    75   37   39 1    
    76   37  160 1    
    77   38  161 1    
    78   38  162 1    
    79   38  163 1    
    80   39   40 am   BACKBONE|DICT|INTERRES
    81   39  164 1    
    82   40   41 2    
    83   40   42 1    
    84   42   43 1    
    85   42   44 1    
    86   42  165 1    
    87   43  166 1    
    88   43  167 1    
    89   43  168 1    
    90   44   45 am   BACKBONE|DICT|INTERRES
    91   44  169 1    
    92   45   46 2    
    93   45   47 1    
    94   47   48 1    
    95   47   49 1    
    96   47  170 1    
    97   48  171 1    
    98   48  172 1    
    99   48  173 1    
   100   49   50 am   BACKBONE|DICT|INTERRES
   101   49  174 1    
   102   50   51 2    
   103   50   52 1    
   104   52   53 1    
   105   52   54 1    
   106   52  175 1    
   107   53  176 1    
   108   53  177 1    
   109   53  178 1    
   110   54   55 am   BACKBONE|DICT|INTERRES
   111   54  179 1    
   112   55   56 2    
   113   55   57 1    
   114   57   58 1    
   115   57   59 1    
   116   57  180 1    
   117   58  181 1    
   118   58  182 1    
   119   58  183 1    
   120   59   60 am   BACKBONE|DICT|INTERRES
   121   59  184 1    
   122   60   61 2    
   123   60   62 1    
   124   62   63 1    
   125   62   64 1    
   126   62  185 1    
   127   63  186 1    
   128   63  187 1    
   129   63  188 1    
   130   64   65 am   BACKBONE|DICT|INTERRES
   131   64  189 1    
   132   65   66 2    
   133   67   68 2    
   134   67   69 am   BACKBONE|DICT|INTERRES
   135   69   70 1    
   136   69  190 1    
   137   70   71 1    
   138   70   72 1    
   139   70  191 1    
   140   71  192 1    
   141   71  193 1    
   142   71  194 1    
   143   72   73 2    
   144   72   74 am   BACKBONE|DICT|INTERRES
   145   74   75 1    
   146   74  195 1    
   147   75   76 1    
   148   75   77 1    
   149   75  196 1    
   150   76  197 1    
   151   76  198 1    
   152   76  199 1    
   153   77   78 2    
   154   77   79 am   BACKBONE|DICT|INTERRES
   155   79   80 1    
   156   79  200 1    
   157   80   81 1    
   158   80   82 1    
   159   80  201 1    
   160   81  202 1    
   161   81  203 1    
   162   81  204 1    
   163   82   83 2    
   164   82   84 am   BACKBONE|DICT|INTERRES
   165   84   85 1    
   166   84  205 1    
   167   85   86 1    
   168   85   87 1    
   169   85  206 1    
   170   86  207 1    
   171   86  208 1    
   172   86  209 1    
   173   87   88 2    
   174   87   89 am   BACKBONE|DICT|INTERRES
   175   89   90 1    
   176   89  210 1    
   177   90   91 1    
   178   90   92 1    
   179   90  211 1    
   180   91  212 1    
   181   91  213 1    
   182   91  214 1    
   183   92   93 2    
   184   92   94 am   BACKBONE|DICT|INTERRES
   185   94   95 1    
   186   94  215 1    
   187   95   96 1    
   188   95   97 1    
   189   95  216 1    
   190   96  217 1    
   191   96  218 1    
   192   96  219 1    
   193   97   98 2    
   194   97   99 am   BACKBONE|DICT|INTERRES
   195   99  100 1    
   196   99  220 1    
   197  100  101 1    
   198  100  102 1    
   199  100  221 1    
   200  101  222 1    
   201  101  223 1    
   202  101  224 1    
   203  102  103 2    
   204  102  104 am   BACKBONE|DICT|INTERRES
   205  104  105 1    
   206  104  225 1    
   207  105  106 1    
   208  105  107 1    
   209  105  226 1    
   210  106  227 1    
   211  106  228 1    
   212  106  229 1    
   213  107  108 2    
   214  107  109 am   BACKBONE|DICT|INTERRES
   215  109  110 1    
   216  109  230 1    
   217  110  111 1    
   218  110  112 1    
   219  110  231 1    
   220  111  232 1    
   221  111  233 1    
   222  111  234 1    
   223  112  113 2    
   224  112  114 am   BACKBONE|DICT|INTERRES
   225  114  115 1    
   226  114  235 1    
   227  115  116 1    
   228  115  117 1    
   229  115  236 1    
   230  116  237 1    
   231  116  238 1    
   232  116  239 1    
   233  117  118 2    
   234  117  119 am   BACKBONE|DICT|INTERRES
   235  119  120 1    
   236  119  240 1    
   237  120  121 1    
   238  120  124 1    
   239  120  241 1    
   240  121  122 am   BACKBONE|DICT|INTERRES
   241  121  123 2    
   242  122  242 1    
   243  122  243 1    
   244  124  125 1    
   245  124  244 1    
   246  124  245 1    
   247  125  126 1    
   248  126  246 1    
   249  126  247 1    
@<TRIPOS>SUBSTRUCTURE
     1 UNK         1 GROUP             0       ****    0 ROOT    
