@<TRIPOS>MOLECULE
3R540
247   249    1
SMALL
USER_CHARGES


@<TRIPOS>ATOM
      1 CA         -3.9656  -13.8610  -51.5919 C.3       0 UNK        -0.1800 
      2 C          -3.3918  -14.9515  -50.6908 C.2       0 UNK         0.5000 
      3 O          -4.1544  -15.7519  -50.1575 O.2       0 UNK        -0.5000 
      4 N          -2.0714  -15.0242  -50.4889 N.am      1 UNK        -0.5000 
      5 CA         -1.0537  -14.0891  -50.9718 C.3       1 UNK         0.1400 
      6 C6          0.2573  -14.8045  -51.3698 C.3       23 UNK        -0.0398 
      7 S7          0.0523  -15.8067  -52.8774 S.3       23 UNK        -0.2404 
      8 C8          1.7297  -16.4807  -53.0790 C.3       23 UNK        -0.0205 
      9 C9          2.0672  -17.5469  -52.0444 C.ar      23 UNK        -0.0193 
     10 C10         1.7408  -18.8857  -52.2814 C.ar      23 UNK        -0.1150 
     11 C11         2.1238  -19.8812  -51.3772 C.ar      23 UNK        -0.0193 
     12 C12         2.8262  -19.5261  -50.2212 C.ar      23 UNK        -0.1150 
     13 C13         3.1443  -18.1882  -49.9618 C.ar      23 UNK        -0.0193 
     14 C14         2.7615  -17.2053  -50.8796 C.ar      23 UNK        -0.1150 
     15 C15         3.9596  -17.8042  -48.7308 C.3       23 UNK        -0.0205 
     16 S16         3.2416  -18.3947  -47.1629 S.3       23 UNK        -0.2404 
     17 C17         1.6942  -17.4304  -47.0623 C.3       23 UNK        -0.0398 
     18 CA          0.4636  -18.2583  -47.5013 C.3       11 UNK         0.1400 
     19 N           0.2976  -19.4780  -46.7005 N.am      11 UNK        -0.5000 
     20 C          -0.5578  -20.4764  -46.9665 C.2       10 UNK         0.5000 
     21 O          -1.3452  -20.4688  -47.9101 O.2       10 UNK        -0.5000 
     22 CA         -0.6263  -21.6379  -45.9578 C.3       10 UNK         0.1400 
     23 CB          0.3464  -22.7532  -46.3671 C.3       10 UNK        -0.1800 
     24 N          -0.3530  -21.2410  -44.5746 N.am      10 UNK        -0.5000 
     25 C          -0.9539  -20.2488  -43.8998 C.2       9 UNK         0.5000 
     26 O          -1.8746  -19.5696  -44.3574 O.2       9 UNK        -0.5000 
     27 CA         -0.3917  -19.9196  -42.5045 C.3       9 UNK         0.1400 
     28 CB         -1.2330  -20.6026  -41.4179 C.3       9 UNK        -0.1800 
     29 N           1.0210  -20.2743  -42.3213 N.am      9 UNK        -0.5000 
     30 C           2.0419  -19.7987  -43.0529 C.2       8 UNK         0.5000 
     31 O           1.8833  -19.0636  -44.0280 O.2       8 UNK        -0.5000 
     32 CA          3.4650  -20.2257  -42.6439 C.3       8 UNK         0.1400 
     33 CB          4.4881  -19.0931  -42.8396 C.3       8 UNK        -0.1800 
     34 N           3.5108  -20.6617  -41.2483 N.am      8 UNK        -0.5000 
     35 C           4.0194  -21.8179  -40.8037 C.2       7 UNK         0.5000 
     36 O           4.4939  -22.6812  -41.5431 O.2       7 UNK        -0.5000 
     37 CA          4.0137  -22.0609  -39.2782 C.3       7 UNK         0.1400 
     38 CB          5.4244  -21.8632  -38.7016 C.3       7 UNK        -0.1800 
     39 N           3.0842  -21.2047  -38.5375 N.am      7 UNK        -0.5000 
     40 C           1.7487  -21.2943  -38.5874 C.2       6 UNK         0.5000 
     41 O           1.1463  -22.1402  -39.2487 O.2       6 UNK        -0.5000 
     42 CA          0.9497  -20.2333  -37.8015 C.3       6 UNK         0.1400 
     43 CB          0.6450  -20.7407  -36.3839 C.3       6 UNK        -0.1800 
     44 N           1.5766  -18.9065  -37.7099 N.am      6 UNK        -0.5000 
     45 C           2.0253  -18.1718  -38.7376 C.2       5 UNK         0.5000 
     46 O           2.0875  -18.5852  -39.8965 O.2       5 UNK        -0.5000 
     47 CA          2.5265  -16.7525  -38.4022 C.3       5 UNK         0.1400 
     48 CB          3.9172  -16.8184  -37.7506 C.3       5 UNK        -0.1800 
     49 N           2.6100  -15.8975  -39.5893 N.am      5 UNK        -0.5000 
     50 C           1.5692  -15.5171  -40.3415 C.2       4 UNK         0.5000 
     51 O           0.3898  -15.7420  -40.0508 O.2       4 UNK        -0.5000 
     52 CA          1.9107  -14.7678  -41.6395 C.3       4 UNK         0.1400 
     53 CB          2.7569  -15.6367  -42.5919 C.3       4 UNK        -0.1800 
     54 N           0.6711  -14.3816  -42.3040 N.am      4 UNK        -0.5000 
     55 C           0.5407  -13.3967  -43.1949 C.2       3 UNK         0.5000 
     56 O           1.4624  -12.6485  -43.5324 O.2       3 UNK        -0.5000 
     57 CA         -0.8679  -13.2027  -43.7884 C.3       3 UNK         0.1400 
     58 CB         -1.6970  -12.2457  -42.9181 C.3       3 UNK        -0.1800 
     59 N          -0.8108  -12.6761  -45.1523 N.am      3 UNK        -0.5000 
     60 C          -0.3602  -13.3631  -46.2086 C.2       2 UNK         0.5000 
     61 O          -0.0231  -14.5471  -46.1663 O.2       2 UNK        -0.5000 
     62 CA         -0.2263  -12.5818  -47.5202 C.3       2 UNK         0.1400 
     63 CB          1.1999  -12.0119  -47.6520 C.3       2 UNK        -0.1800 
     64 N          -0.5343  -13.4542  -48.6516 N.am      2 UNK        -0.5000 
     65 C          -0.7827  -13.0238  -49.8960 C.2       1 UNK         0.5000 
     66 O          -0.8184  -11.8336  -50.2116 O.2       1 UNK        -0.5000 
     67 C          -0.8024  -17.3719  -47.5693 C.2       11 UNK         0.5000 
     68 O          -0.8567  -16.4873  -48.4254 O.2       11 UNK        -0.5000 
     69 N          -1.7973  -17.6302  -46.7089 N.am      12 UNK        -0.5000 
     70 CA         -3.1381  -17.0541  -46.7814 C.3       12 UNK         0.1400 
     71 CB         -3.3696  -16.1575  -45.5555 C.3       12 UNK        -0.1800 
     72 C          -4.2205  -18.1471  -46.8642 C.2       12 UNK         0.5000 
     73 O          -5.2278  -17.9457  -47.5418 O.2       12 UNK        -0.5000 
     74 N          -4.0246  -19.2715  -46.1594 N.am      13 UNK        -0.5000 
     75 CA         -5.0241  -20.3318  -46.0136 C.3       13 UNK         0.1400 
     76 CB         -4.7080  -21.1436  -44.7473 C.3       13 UNK        -0.1800 
     77 C          -5.1470  -21.2723  -47.2271 C.2       13 UNK         0.5000 
     78 O          -6.2100  -21.8687  -47.4023 O.2       13 UNK        -0.5000 
     79 N          -4.0735  -21.4240  -48.0132 N.am      14 UNK        -0.5000 
     80 CA         -3.9926  -22.3684  -49.1332 C.3       14 UNK         0.1400 
     81 CB         -3.0619  -23.5214  -48.7231 C.3       14 UNK        -0.1800 
     82 C          -3.5096  -21.7035  -50.4359 C.2       14 UNK         0.5000 
     83 O          -3.7379  -22.2431  -51.5203 O.2       14 UNK        -0.5000 
     84 N          -2.8489  -20.5490  -50.3218 N.am      15 UNK        -0.5000 
     85 CA         -2.3673  -19.7342  -51.4289 C.3       15 UNK         0.1400 
     86 CB         -1.5226  -18.6032  -50.8476 C.3       15 UNK        -0.1800 
     87 C          -3.4965  -19.1589  -52.3016 C.2       15 UNK         0.5000 
     88 O          -4.6444  -19.0606  -51.8609 O.2       15 UNK        -0.5000 
     89 N          -3.1306  -18.7726  -53.5319 N.am      16 UNK        -0.5000 
     90 CA         -4.0112  -18.2264  -54.5660 C.3       16 UNK         0.1400 
     91 CB         -4.4172  -16.7791  -54.2047 C.3       16 UNK        -0.1800 
     92 C          -5.1969  -19.1729  -54.8591 C.2       16 UNK         0.5000 
     93 O          -4.9786  -20.3711  -55.0490 O.2       16 UNK        -0.5000 
     94 N          -6.4224  -18.6394  -54.8748 N.am      17 UNK        -0.5000 
     95 CA         -7.6521  -19.3773  -55.1594 C.3       17 UNK         0.1400 
     96 CB         -8.7510  -18.3645  -55.5209 C.3       17 UNK        -0.1800 
     97 C          -8.1261  -20.3042  -54.0198 C.2       17 UNK         0.5000 
     98 O          -9.0476  -21.0880  -54.2510 O.2       17 UNK        -0.5000 
     99 N          -7.5343  -20.2010  -52.8181 N.am      18 UNK        -0.5000 
    100 CA        -7.9728  -20.9366  -51.6271 C.3       18 UNK         0.1400 
    101 CB        -7.2868  -20.3714  -50.3758 C.3       18 UNK        -0.1800 
    102 C         -7.7656  -22.4595  -51.7313 C.2       18 UNK         0.5000 
    103 O         -8.6453  -23.2152  -51.3158 O.2       18 UNK        -0.5000 
    104 N         -6.6340  -22.8822  -52.3082 N.am      19 UNK        -0.5000 
    105 CA        -6.3081  -24.2846  -52.5690 C.3       19 UNK         0.1400 
    106 CB        -5.7961  -24.9816  -51.2923 C.3       19 UNK        -0.1800 
    107 C         -5.3350  -24.4069  -53.7541 C.2       19 UNK         0.5000 
    108 O         -4.4158  -25.2256  -53.7104 O.2       19 UNK        -0.5000 
    109 N         -5.5613  -23.5932  -54.7973 N.am      20 UNK        -0.5000 
    110 CA        -4.8481  -23.5859  -56.0816 C.3       20 UNK         0.1400 
    111 CB        -5.2306  -24.8332  -56.9057 C.3       20 UNK        -0.1800 
    112 C         -3.3218  -23.4130  -55.9267 C.2       20 UNK         0.5000 
    113 O         -2.5481  -24.2432  -56.4075 O.2       20 UNK        -0.5000 
    114 N         -2.9351  -22.3299  -55.2403 N.am      21 UNK        -0.5000 
    115 CA        -1.5642  -21.9252  -54.9207 C.3       21 UNK         0.1400 
    116 CB        -0.8013  -21.5146  -56.1972 C.3       21 UNK        -0.1800 
    117 C         -0.8154  -22.9688  -54.0668 C.2       21 UNK         0.5000 
    118 O          0.2669  -23.4213  -54.4452 O.2       21 UNK        -0.5000 
    119 N         -1.4075  -23.3072  -52.9149 N.am      22 UNK        -0.5000 
    120 CA        -0.8609  -24.2253  -51.9014 C.3       22 UNK         0.1400 
    121 C         -0.8286  -25.7192  -52.3472 C.2       22 UNK         0.5000 
    122 N         -1.7705  -26.1841  -53.1573 N.am      22 UNK        -0.7600 
    123 O          0.0471  -26.4815  -51.9453 O.2       22 UNK        -0.5000 
    124 C124        0.4889  -23.7547  -51.2805 C.3       23 UNK        -0.0398 
    125 S125        0.4901  -22.0275  -50.6788 S.3       23 UNK        -0.2404 
    126 C126        1.8451  -21.3453  -51.6833 C.3       23 UNK        -0.0205 
    127 H127       -5.0546  -13.9101  -51.6066 H         1 UNK         0.0600 
    128 H128       -3.6134  -13.9839  -52.6161 H         1 UNK         0.0600 
    129 H129       -3.6815  -12.8707  -51.2359 H         1 UNK         0.0600 
    130 H130       -1.7187  -15.7297  -49.8460 H         1 UNK         0.3000 
    131 H131       -1.4106  -13.5641  -51.8589 H         1 UNK         0.0600 
    132 H132        1.0527  -14.0810  -51.5593 H         1 UNK         0.0800 
    133 H133        0.6029  -15.4448  -50.5570 H         1 UNK         0.0800 
    134 H134        2.4566  -15.6679  -53.0398 H         1 UNK         0.0800 
    135 H135        1.8134  -16.9077  -54.0794 H         1 UNK         0.0800 
    136 H136        1.2149  -19.1545  -53.1865 H         1 UNK         0.1150 
    137 H137        3.1370  -20.2949  -49.5277 H         1 UNK         0.1150 
    138 H138        3.0282  -16.1730  -50.7021 H         1 UNK         0.1150 
    139 H139        4.9589  -18.2283  -48.8346 H         1 UNK         0.0800 
    140 H140        4.0931  -16.7229  -48.6715 H         1 UNK         0.0800 
    141 H141        1.7962  -16.5311  -47.6728 H         1 UNK         0.0800 
    142 H142        1.5708  -17.0844  -46.0342 H         1 UNK         0.0800 
    143 H143        0.6491  -18.5876  -48.5235 H         1 UNK         0.0600 
    144 H144        0.8796  -19.5359  -45.8719 H         1 UNK         0.3000 
    145 H145       -1.6403  -22.0400  -45.9902 H         1 UNK         0.0600 
    146 H146        0.2337  -23.6302  -45.7297 H         1 UNK         0.0600 
    147 H147        0.1653  -23.0735  -47.3943 H         1 UNK         0.0600 
    148 H148        1.3841  -22.4226  -46.3068 H         1 UNK         0.0600 
    149 H149        0.3986  -21.7283  -44.1099 H         1 UNK         0.3000 
    150 H150       -0.4755  -18.8389  -42.3723 H         1 UNK         0.0600 
    151 H151       -2.2933  -20.3769  -41.5410 H         1 UNK         0.0600 
    152 H152       -0.9442  -20.2571  -40.4268 H         1 UNK         0.0600 
    153 H153       -1.1209  -21.6872  -41.4432 H         1 UNK         0.0600 
    154 H154        1.2374  -20.8725  -41.5364 H         1 UNK         0.3000 
    155 H155        3.7348  -21.0471  -43.3102 H         1 UNK         0.0600 
    156 H156        4.2660  -18.2439  -42.1934 H         1 UNK         0.0600 
    157 H157        4.4953  -18.7347  -43.8699 H         1 UNK         0.0600 
    158 H158        5.4977  -19.4328  -42.6088 H         1 UNK         0.0600 
    159 H159        3.1032  -20.0068  -40.5838 H         1 UNK         0.3000 
    160 H160        3.7207  -23.1002  -39.1159 H         1 UNK         0.0600 
    161 H161        5.7669  -20.8346  -38.8220 H         1 UNK         0.0600 
    162 H162        6.1465  -22.5102  -39.2016 H         1 UNK         0.0600 
    163 H163        5.4548  -22.1063  -37.6393 H         1 UNK         0.0600 
    164 H164        3.4919  -20.4684  -37.9805 H         1 UNK         0.3000 
    165 H165       -0.0010  -20.0984  -38.3185 H         1 UNK         0.0600 
    166 H166       -0.0223  -20.0600  -35.8547 H         1 UNK         0.0600 
    167 H167        0.1544  -21.7147  -36.4132 H         1 UNK         0.0600 
    168 H168        1.5546  -20.8489  -35.7917 H         1 UNK         0.0600 
    169 H169        1.5915  -18.4949  -36.7878 H         1 UNK         0.3000 
    170 H170        1.8249  -16.2959  -37.7012 H         1 UNK         0.0600 
    171 H171        3.8972  -17.4080  -36.8332 H         1 UNK         0.0600 
    172 H172        4.6519  -17.2734  -38.4165 H         1 UNK         0.0600 
    173 H173        4.2760  -15.8238  -37.4848 H         1 UNK         0.0600 
    174 H174        3.5416  -15.6858  -39.9140 H         1 UNK         0.3000 
    175 H175        2.4691  -13.8693  -41.3688 H         1 UNK         0.0600 
    176 H176        2.2528  -16.5743  -42.8292 H         1 UNK         0.0600 
    177 H177        2.9582  -15.1221  -43.5316 H         1 UNK         0.0600 
    178 H178        3.7231  -15.8822  -42.1515 H         1 UNK         0.0600 
    179 H179       -0.1378  -14.9086  -41.9982 H         1 UNK         0.3000 
    180 H180       -1.3704  -14.1718  -43.8155 H         1 UNK         0.0600 
    181 H181       -1.2431  -11.2553  -42.8642 H         1 UNK         0.0600 
    182 H182       -1.7854  -12.6218  -41.8980 H         1 UNK         0.0600 
    183 H183       -2.7081  -12.1319  -43.3096 H         1 UNK         0.0600 
    184 H184       -1.0222  -11.6950  -45.2595 H         1 UNK         0.3000 
    185 H185       -0.9448  -11.7594  -47.5075 H         1 UNK         0.0600 
    186 H186        1.3007  -11.3753  -48.5307 H         1 UNK         0.0600 
    187 H187        1.4601  -11.4041  -46.7843 H         1 UNK         0.0600 
    188 H188        1.9414  -12.8082  -47.7279 H         1 UNK         0.0600 
    189 H189       -0.5627  -14.4480  -48.4351 H         1 UNK         0.3000 
    190 H190       -1.6552  -18.3562  -46.0174 H         1 UNK         0.3000 
    191 H191       -3.2407  -16.4380  -47.6765 H         1 UNK         0.0600 
    192 H192       -4.3765  -15.7385  -45.5603 H         1 UNK         0.0600 
    193 H193       -2.6712  -15.3219  -45.5483 H         1 UNK         0.0600 
    194 H194       -3.2438  -16.7092  -44.6230 H         1 UNK         0.0600 
    195 H195       -3.2045  -19.3542  -45.5641 H         1 UNK         0.3000 
    196 H196       -5.9998  -19.8626  -45.8690 H         1 UNK         0.0600 
    197 H197       -3.7496  -21.6569  -44.8255 H         1 UNK         0.0600 
    198 H198       -4.6739  -20.5036  -43.8654 H         1 UNK         0.0600 
    199 H199       -5.4713  -21.9020  -44.5682 H         1 UNK         0.0600 
    200 H200       -3.2277  -20.9051  -47.8022 H         1 UNK         0.3000 
    201 H201       -4.9789  -22.7836  -49.3484 H         1 UNK         0.0600 
    202 H202       -3.3482  -23.9362  -47.7565 H         1 UNK         0.0600 
    203 H203       -2.0239  -23.1940  -48.6526 H         1 UNK         0.0600 
    204 H204       -3.1067  -24.3377  -49.4420 H         1 UNK         0.0600 
    205 H205       -2.5937  -20.2281  -49.3968 H         1 UNK         0.3000 
    206 H206       -1.7282  -20.3620  -52.0506 H         1 UNK         0.0600 
    207 H207       -0.6791  -18.9978  -50.2846 H         1 UNK         0.0600 
    208 H208       -1.1161  -17.9760  -51.6355 H         1 UNK         0.0600 
    209 H209       -2.1173  -17.9691  -50.1909 H         1 UNK         0.0600 
    210 H210       -2.1621  -18.8652  -53.7990 H         1 UNK         0.3000 
    211 H211       -3.4237  -18.1869  -55.4841 H         1 UNK         0.0600 
    212 H212       -4.9742  -16.3065  -55.0145 H         1 UNK         0.0600 
    213 H213       -3.5341  -16.1647  -54.0276 H         1 UNK         0.0600 
    214 H214       -5.0295  -16.7360  -53.3028 H         1 UNK         0.0600 
    215 H215       -6.5229  -17.6543  -54.6780 H         1 UNK         0.3000 
    216 H216       -7.4758  -20.0096  -56.0323 H         1 UNK         0.0600 
    217 H217       -8.9709  -17.6959  -54.6877 H         1 UNK         0.0600 
    218 H218       -9.6795  -18.8701  -55.7896 H         1 UNK         0.0600 
    219 H219       -8.4594  -17.7532  -56.3752 H         1 UNK         0.0600 
    220 H220       -6.7539  -19.5663  -52.7004 H         1 UNK         0.3000 
    221 H221       -9.0454  -20.7623  -51.5170 H         1 UNK         0.0600 
    222 H222       -7.4369  -19.2953  -50.2890 H         1 UNK         0.0600 
    223 H223       -6.2144  -20.5596  -50.3819 H         1 UNK         0.0600 
    224 H224       -7.6919  -20.8301  -49.4734 H         1 UNK         0.0600 
    225 H225       -5.9317  -22.2054  -52.5799 H         1 UNK         0.3000 
    226 H226       -7.2206  -24.7949  -52.8841 H         1 UNK         0.0600 
    227 H227       -4.8173  -24.6069  -51.0011 H         1 UNK         0.0600 
    228 H228       -6.4764  -24.8423  -50.4523 H         1 UNK         0.0600 
    229 H229       -5.6954  -26.0557  -51.4515 H         1 UNK         0.0600 
    230 H230       -6.3218  -22.9331  -54.7220 H         1 UNK         0.3000 
    231 H231       -5.2024  -22.7111  -56.6290 H         1 UNK         0.0600 
    232 H232       -4.8977  -25.7540  -56.4254 H         1 UNK         0.0600 
    233 H233       -4.7792  -24.7994  -57.8979 H         1 UNK         0.0600 
    234 H234       -6.3098  -24.8986  -57.0433 H         1 UNK         0.0600 
    235 H235       -3.6691  -21.6956  -54.9321 H         1 UNK         0.3000 
    236 H236       -1.6472  -21.0336  -54.3021 H         1 UNK         0.0600 
    237 H237        0.1821  -21.1127  -55.9502 H         1 UNK         0.0600 
    238 H238       -0.6487  -22.3587  -56.8703 H         1 UNK         0.0600 
    239 H239       -1.3393  -20.7414  -56.7455 H         1 UNK         0.0600 
    240 H240       -2.3117  -22.9069  -52.6827 H         1 UNK         0.3000 
    241 H241       -1.5879  -24.2069  -51.0938 H         1 UNK         0.0600 
    242 H242       -1.7399  -27.1506  -53.4380 H         1 UNK         0.3800 
    243 H243       -2.5610  -25.6130  -53.4452 H         1 UNK         0.3800 
    244 H244        1.2981  -23.8949  -51.9985 H         1 UNK         0.0800 
    245 H245        0.7426  -24.3858  -50.4274 H         1 UNK         0.0800 
    246 H246        2.7517  -21.9248  -51.5026 H         1 UNK         0.0800 
    247 H247        1.6060  -21.4729  -52.7400 H         1 UNK         0.0800 
@<TRIPOS>BOND
     1    1    2 1    
     2    1  127 1    
     3    1  128 1    
     4    1  129 1    
     5    2    3 2    
     6    2    4 am   BACKBONE|DICT|INTERRES
     7    4    5 1    
     8    4  130 1    
     9    5    6 1    
    10    5   65 1    
    11    5  131 1    
    12    6    7 1    
    13    6  132 1    
    14    6  133 1    
    15    7    8 1    
    16    8    9 1    
    17    8  134 1    
    18    8  135 1    
    19    9   10 ar   
    20    9   14 ar   
    21   10   11 ar   
    22   10  136 1    
    23   11   12 ar   
    24   11  126 1    
    25   12   13 ar   
    26   12  137 1    
    27   13   14 ar   
    28   13   15 1    
    29   14  138 1    
    30   15   16 1    
    31   15  139 1    
    32   15  140 1    
    33   16   17 1    
    34   17   18 1    
    35   17  141 1    
    36   17  142 1    
    37   18   19 1    
    38   18   67 1    
    39   18  143 1    
    40   19   20 am   BACKBONE|DICT|INTERRES
    41   19  144 1    
    42   20   21 2    
    43   20   22 1    
    44   22   23 1    
    45   22   24 1    
    46   22  145 1    
    47   23  146 1    
    48   23  147 1    
    49   23  148 1    
    50   24   25 am   BACKBONE|DICT|INTERRES
    51   24  149 1    
    52   25   26 2    
    53   25   27 1    
    54   27   28 1    
    55   27   29 1    
    56   27  150 1    
    57   28  151 1    
    58   28  152 1    
    59   28  153 1    
    60   29   30 am   BACKBONE|DICT|INTERRES
    61   29  154 1    
    62   30   31 2    
    63   30   32 1    
    64   32   33 1    
    65   32   34 1    
    66   32  155 1    
    67   33  156 1    
    68   33  157 1    
    69   33  158 1    
    70   34   35 am   BACKBONE|DICT|INTERRES
    71   34  159 1    
    72   35   36 2    
    73   35   37 1    
    74   37   38 1    
    75   37   39 1    
    76   37  160 1    
    77   38  161 1    
    78   38  162 1    
    79   38  163 1    
    80   39   40 am   BACKBONE|DICT|INTERRES
    81   39  164 1    
    82   40   41 2    
    83   40   42 1    
    84   42   43 1    
    85   42   44 1    
    86   42  165 1    
    87   43  166 1    
    88   43  167 1    
    89   43  168 1    
    90   44   45 am   BACKBONE|DICT|INTERRES
    91   44  169 1    
    92   45   46 2    
    93   45   47 1    
    94   47   48 1    
    95   47   49 1    
    96   47  170 1    
    97   48  171 1    
    98   48  172 1    
    99   48  173 1    
   100   49   50 am   BACKBONE|DICT|INTERRES
   101   49  174 1    
   102   50   51 2    
   103   50   52 1    
   104   52   53 1    
   105   52   54 1    
   106   52  175 1    
   107   53  176 1    
   108   53  177 1    
   109   53  178 1    
   110   54   55 am   BACKBONE|DICT|INTERRES
   111   54  179 1    
   112   55   56 2    
   113   55   57 1    
   114   57   58 1    
   115   57   59 1    
   116   57  180 1    
   117   58  181 1    
   118   58  182 1    
   119   58  183 1    
   120   59   60 am   BACKBONE|DICT|INTERRES
   121   59  184 1    
   122   60   61 2    
   123   60   62 1    
   124   62   63 1    
   125   62   64 1    
   126   62  185 1    
   127   63  186 1    
   128   63  187 1    
   129   63  188 1    
   130   64   65 am   BACKBONE|DICT|INTERRES
   131   64  189 1    
   132   65   66 2    
   133   67   68 2    
   134   67   69 am   BACKBONE|DICT|INTERRES
   135   69   70 1    
   136   69  190 1    
   137   70   71 1    
   138   70   72 1    
   139   70  191 1    
   140   71  192 1    
   141   71  193 1    
   142   71  194 1    
   143   72   73 2    
   144   72   74 am   BACKBONE|DICT|INTERRES
   145   74   75 1    
   146   74  195 1    
   147   75   76 1    
   148   75   77 1    
   149   75  196 1    
   150   76  197 1    
   151   76  198 1    
   152   76  199 1    
   153   77   78 2    
   154   77   79 am   BACKBONE|DICT|INTERRES
   155   79   80 1    
   156   79  200 1    
   157   80   81 1    
   158   80   82 1    
   159   80  201 1    
   160   81  202 1    
   161   81  203 1    
   162   81  204 1    
   163   82   83 2    
   164   82   84 am   BACKBONE|DICT|INTERRES
   165   84   85 1    
   166   84  205 1    
   167   85   86 1    
   168   85   87 1    
   169   85  206 1    
   170   86  207 1    
   171   86  208 1    
   172   86  209 1    
   173   87   88 2    
   174   87   89 am   BACKBONE|DICT|INTERRES
   175   89   90 1    
   176   89  210 1    
   177   90   91 1    
   178   90   92 1    
   179   90  211 1    
   180   91  212 1    
   181   91  213 1    
   182   91  214 1    
   183   92   93 2    
   184   92   94 am   BACKBONE|DICT|INTERRES
   185   94   95 1    
   186   94  215 1    
   187   95   96 1    
   188   95   97 1    
   189   95  216 1    
   190   96  217 1    
   191   96  218 1    
   192   96  219 1    
   193   97   98 2    
   194   97   99 am   BACKBONE|DICT|INTERRES
   195   99  100 1    
   196   99  220 1    
   197  100  101 1    
   198  100  102 1    
   199  100  221 1    
   200  101  222 1    
   201  101  223 1    
   202  101  224 1    
   203  102  103 2    
   204  102  104 am   BACKBONE|DICT|INTERRES
   205  104  105 1    
   206  104  225 1    
   207  105  106 1    
   208  105  107 1    
   209  105  226 1    
   210  106  227 1    
   211  106  228 1    
   212  106  229 1    
   213  107  108 2    
   214  107  109 am   BACKBONE|DICT|INTERRES
   215  109  110 1    
   216  109  230 1    
   217  110  111 1    
   218  110  112 1    
   219  110  231 1    
   220  111  232 1    
   221  111  233 1    
   222  111  234 1    
   223  112  113 2    
   224  112  114 am   BACKBONE|DICT|INTERRES
   225  114  115 1    
   226  114  235 1    
   227  115  116 1    
   228  115  117 1    
   229  115  236 1    
   230  116  237 1    
   231  116  238 1    
   232  116  239 1    
   233  117  118 2    
   234  117  119 am   BACKBONE|DICT|INTERRES
   235  119  120 1    
   236  119  240 1    
   237  120  121 1    
   238  120  124 1    
   239  120  241 1    
   240  121  122 am   BACKBONE|DICT|INTERRES
   241  121  123 2    
   242  122  242 1    
   243  122  243 1    
   244  124  125 1    
   245  124  244 1    
   246  124  245 1    
   247  125  126 1    
   248  126  246 1    
   249  126  247 1    
@<TRIPOS>SUBSTRUCTURE
     1 UNK         1 GROUP             0       ****    0 ROOT    
