@<TRIPOS>MOLECULE
3R540
247   249    1
SMALL
USER_CHARGES


@<TRIPOS>ATOM
      1 CA          5.4743  -18.8714  -45.5441 C.3       0 UNK        -0.1800 
      2 C           4.4997  -17.7971  -46.0050 C.2       0 UNK         0.5000 
      3 O           3.3099  -17.8892  -45.7092 O.2       0 UNK        -0.5000 
      4 N           5.0010  -16.7903  -46.7332 N.am      1 UNK        -0.5000 
      5 CA          4.2189  -15.6646  -47.2490 C.3       1 UNK         0.1400 
      6 C6          4.9732  -14.9186  -48.3801 C.3       23 UNK        -0.0398 
      7 S7          3.9152  -13.7619  -49.3217 S.3       23 UNK        -0.2404 
      8 C8          4.0197  -14.4330  -51.0130 C.3       23 UNK        -0.0205 
      9 C9          3.0565  -15.5907  -51.2269 C.ar      23 UNK        -0.0193 
     10 C10         1.7858  -15.3564  -51.7602 C.ar      23 UNK        -0.1150 
     11 C11         0.8903  -16.4123  -51.9541 C.ar      23 UNK        -0.0193 
     12 C12         1.2763  -17.7130  -51.6150 C.ar      23 UNK        -0.1150 
     13 C13         2.5409  -17.9579  -51.0723 C.ar      23 UNK        -0.0193 
     14 C14         3.4300  -16.8952  -50.8937 C.ar      23 UNK        -0.1150 
     15 C15         2.9539  -19.3620  -50.6603 C.3       23 UNK        -0.0205 
     16 S16         2.7156  -19.6185  -48.8727 S.3       23 UNK        -0.2404 
     17 C17         0.9461  -20.0549  -48.7830 C.3       23 UNK        -0.0398 
     18 CA          0.7388  -21.4294  -48.1158 C.3       11 UNK         0.1400 
     19 N           1.1145  -21.4209  -46.7013 N.am      11 UNK        -0.5000 
     20 C           1.3770  -22.5249  -45.9919 C.2       10 UNK         0.5000 
     21 O           1.3352  -23.6647  -46.4582 O.2       10 UNK        -0.5000 
     22 CA          1.6766  -22.3123  -44.4969 C.3       10 UNK         0.1400 
     23 CB          3.0871  -21.7367  -44.2976 C.3       10 UNK        -0.1800 
     24 N           0.7009  -21.4380  -43.8399 N.am      10 UNK        -0.5000 
     25 C          -0.6153  -21.6702  -43.7653 C.2       9 UNK         0.5000 
     26 O          -1.1528  -22.6550  -44.2688 O.2       9 UNK        -0.5000 
     27 CA         -1.5045  -20.6407  -43.0450 C.3       9 UNK         0.1400 
     28 CB         -1.8626  -21.1188  -41.6256 C.3       9 UNK        -0.1800 
     29 N          -1.0072  -19.2615  -43.0306 N.am      9 UNK        -0.5000 
     30 C           0.0311  -18.7349  -42.3659 C.2       8 UNK         0.5000 
     31 O           0.8675  -19.4035  -41.7587 O.2       8 UNK        -0.5000 
     32 CA          0.1531  -17.1969  -42.3778 C.3       8 UNK         0.1400 
     33 CB          1.2666  -16.7547  -43.3364 C.3       8 UNK        -0.1800 
     34 N          -1.0873  -16.5161  -42.7573 N.am      8 UNK        -0.5000 
     35 C          -2.2284  -16.5053  -42.0535 C.2       7 UNK         0.5000 
     36 O          -2.3545  -17.0202  -40.9423 O.2       7 UNK        -0.5000 
     37 CA         -3.4415  -15.8380  -42.7255 C.3       7 UNK         0.1400 
     38 CB         -3.5001  -14.3437  -42.3748 C.3       7 UNK        -0.1800 
     39 N          -3.4151  -15.9960  -44.1823 N.am      7 UNK        -0.5000 
     40 C          -3.7998  -17.1015  -44.8359 C.2       6 UNK         0.5000 
     41 O          -4.2418  -18.1049  -44.2769 O.2       6 UNK        -0.5000 
     42 CA         -3.6427  -17.0984  -46.3693 C.3       6 UNK         0.1400 
     43 CB         -4.8848  -16.5057  -47.0510 C.3       6 UNK        -0.1800 
     44 N          -2.4518  -16.3731  -46.8125 N.am      6 UNK        -0.5000 
     45 C          -1.2036  -16.8432  -46.6880 C.2       5 UNK         0.5000 
     46 O          -0.9380  -17.9562  -46.2304 O.2       5 UNK        -0.5000 
     47 CA         -0.0607  -15.9107  -47.1339 C.3       5 UNK         0.1400 
     48 CB          0.2677  -16.1207  -48.6153 C.3       5 UNK        -0.1800 
     49 N          -0.2826  -14.4756  -46.9217 N.am      5 UNK        -0.5000 
     50 C          -0.5831  -13.8866  -45.7577 C.2       4 UNK         0.5000 
     51 O          -0.9137  -14.5030  -44.7455 O.2       4 UNK        -0.5000 
     52 CA         -0.4397  -12.3576  -45.7229 C.3       4 UNK         0.1400 
     53 CB         -0.8300  -11.7525  -44.3579 C.3       4 UNK        -0.1800 
     54 N           0.9408  -12.0107  -46.0589 N.am      4 UNK        -0.5000 
     55 C           1.3628  -10.8015  -46.4551 C.2       3 UNK         0.5000 
     56 O           0.5983   -9.8523  -46.6385 O.2       3 UNK        -0.5000 
     57 CA          2.8788  -10.6120  -46.7088 C.3       3 UNK         0.1400 
     58 CB          3.3630   -9.1848  -46.3776 C.3       3 UNK        -0.1800 
     59 N           3.7289  -11.6157  -46.0579 N.am      3 UNK        -0.5000 
     60 C           3.8671  -11.8607  -44.7445 C.2       2 UNK         0.5000 
     61 O           3.3690  -11.1589  -43.8633 O.2       2 UNK        -0.5000 
     62 CA          4.6792  -13.1230  -44.3533 C.3       2 UNK         0.1400 
     63 CB          4.1266  -13.7889  -43.0767 C.3       2 UNK        -0.1800 
     64 N           4.8116  -14.1259  -45.4252 N.am      2 UNK        -0.5000 
     65 C           3.8125  -14.7078  -46.1097 C.2       1 UNK         0.5000 
     66 O           2.6244  -14.4739  -45.9004 O.2       1 UNK        -0.5000 
     67 C          -0.7034  -21.9299  -48.3200 C.2       11 UNK         0.5000 
     68 O          -0.9735  -22.5507  -49.3453 O.2       11 UNK        -0.5000 
     69 N          -1.5995  -21.6901  -47.3500 N.am      12 UNK        -0.5000 
     70 CA         -2.9721  -22.2041  -47.3695 C.3       12 UNK         0.1400 
     71 CB         -3.8123  -21.5301  -46.2761 C.3       12 UNK        -0.1800 
     72 C          -3.0171  -23.7358  -47.2357 C.2       12 UNK         0.5000 
     73 O          -3.7629  -24.3877  -47.9644 O.2       12 UNK        -0.5000 
     74 N          -2.1793  -24.2896  -46.3485 N.am      13 UNK        -0.5000 
     75 CA         -1.9781  -25.7282  -46.1787 C.3       13 UNK         0.1400 
     76 CB         -1.0828  -25.9846  -44.9575 C.3       13 UNK        -0.1800 
     77 C          -1.3955  -26.3872  -47.4417 C.2       13 UNK         0.5000 
     78 O          -1.8929  -27.4325  -47.8620 O.2       13 UNK        -0.5000 
     79 N          -0.3998  -25.7343  -48.0609 N.am      14 UNK        -0.5000 
     80 CA          0.1921  -26.1428  -49.3395 C.3       14 UNK         0.1400 
     81 CB          1.4142  -25.2636  -49.6427 C.3       14 UNK        -0.1800 
     82 C          -0.8122  -26.1042  -50.5104 C.2       14 UNK         0.5000 
     83 O          -0.7546  -26.9616  -51.3917 O.2       14 UNK        -0.5000 
     84 N          -1.7404  -25.1396  -50.4705 N.am      15 UNK        -0.5000 
     85 CA         -2.8526  -24.9763  -51.4073 C.3       15 UNK         0.1400 
     86 CB         -3.2578  -23.4933  -51.4335 C.3       15 UNK        -0.1800 
     87 C          -4.0667  -25.8801  -51.0945 C.2       15 UNK         0.5000 
     88 O          -5.1057  -25.7200  -51.7348 O.2       15 UNK        -0.5000 
     89 N          -3.9331  -26.8012  -50.1275 N.am      16 UNK        -0.5000 
     90 CA         -4.9316  -27.7831  -49.6913 C.3       16 UNK         0.1400 
     91 CB         -5.2436  -28.7911  -50.8178 C.3       16 UNK        -0.1800 
     92 C          -6.1928  -27.1340  -49.0838 C.2       16 UNK         0.5000 
     93 O          -7.3141  -27.5374  -49.3967 O.2       16 UNK        -0.5000 
     94 N          -5.9679  -26.1390  -48.2152 N.am      17 UNK        -0.5000 
     95 CA         -6.9475  -25.3626  -47.4468 C.3       17 UNK         0.1400 
     96 CB         -7.8742  -26.2658  -46.6055 C.3       17 UNK        -0.1800 
     97 C          -7.7160  -24.3135  -48.2751 C.2       17 UNK         0.5000 
     98 O          -8.6863  -23.7406  -47.7753 O.2       17 UNK        -0.5000 
     99 N          -7.2494  -24.0326  -49.4988 N.am      18 UNK        -0.5000 
    100 CA        -7.6450  -22.8593  -50.2781 C.3       18 UNK         0.1400 
    101 CB        -7.3218  -23.1119  -51.7585 C.3       18 UNK        -0.1800 
    102 C         -6.9178  -21.6014  -49.7618 C.2       18 UNK         0.5000 
    103 O         -5.9716  -21.7103  -48.9772 O.2       18 UNK        -0.5000 
    104 N         -7.3418  -20.4216  -50.2324 N.am      19 UNK        -0.5000 
    105 CA        -6.8056  -19.1059  -49.8593 C.3       19 UNK         0.1400 
    106 CB        -7.8414  -18.0290  -50.2287 C.3       19 UNK        -0.1800 
    107 C         -5.4085  -18.8179  -50.4590 C.2       19 UNK         0.5000 
    108 O         -5.2201  -17.8146  -51.1473 O.2       19 UNK        -0.5000 
    109 N         -4.4584  -19.7229  -50.1908 N.am      20 UNK        -0.5000 
    110 CA        -3.0444  -19.6988  -50.5785 C.3       20 UNK         0.1400 
    111 CB        -2.3124  -18.5338  -49.8822 C.3       20 UNK        -0.1800 
    112 C         -2.7893  -19.7612  -52.0997 C.2       20 UNK         0.5000 
    113 O         -1.7127  -19.3763  -52.5504 O.2       20 UNK        -0.5000 
    114 N         -3.7727  -20.2584  -52.8636 N.am      21 UNK        -0.5000 
    115 CA        -3.7853  -20.5050  -54.3148 C.3       21 UNK         0.1400 
    116 CB        -2.6870  -21.5089  -54.7194 C.3       21 UNK        -0.1800 
    117 C         -3.7422  -19.2533  -55.2197 C.2       21 UNK         0.5000 
    118 O         -4.2184  -19.3325  -56.3535 O.2       21 UNK        -0.5000 
    119 N         -3.1890  -18.1367  -54.7326 N.am      22 UNK        -0.5000 
    120 CA        -3.1142  -16.8395  -55.4234 C.3       22 UNK         0.1400 
    121 C         -4.5088  -16.2573  -55.7941 C.2       22 UNK         0.5000 
    122 N         -4.6358  -15.6274  -56.9545 N.am      22 UNK        -0.7600 
    123 O         -5.4622  -16.3295  -55.0220 O.2       22 UNK        -0.5000 
    124 C124       -2.3129  -15.7973  -54.6029 C.3       23 UNK        -0.0398 
    125 S125       -0.5820  -16.2924  -54.2966 S.3       23 UNK        -0.2404 
    126 C126       -0.5064  -16.1373  -52.4872 C.3       23 UNK        -0.0205 
    127 H127        5.4076  -19.0004  -44.4638 H         1 UNK         0.0600 
    128 H128        6.5052  -18.6195  -45.7939 H         1 UNK         0.0600 
    129 H129        5.2312  -19.8225  -46.0180 H         1 UNK         0.0600 
    130 H130        5.9895  -16.7792  -46.9392 H         1 UNK         0.3000 
    131 H131        3.3025  -16.0771  -47.6782 H         1 UNK         0.0600 
    132 H132        5.4049  -15.6434  -49.0690 H         1 UNK         0.0800 
    133 H133        5.8266  -14.3620  -47.9898 H         1 UNK         0.0800 
    134 H134        5.0424  -14.7406  -51.2359 H         1 UNK         0.0800 
    135 H135        3.7906  -13.6313  -51.7167 H         1 UNK         0.0800 
    136 H136        1.4882  -14.3486  -52.0137 H         1 UNK         0.1150 
    137 H137        0.5863  -18.5310  -51.7601 H         1 UNK         0.1150 
    138 H138        4.4088  -17.0897  -50.4811 H         1 UNK         0.1150 
    139 H139        2.4071  -20.1148  -51.2303 H         1 UNK         0.0800 
    140 H140        4.0082  -19.5125  -50.8967 H         1 UNK         0.0800 
    141 H141        0.5283  -20.0513  -49.7908 H         1 UNK         0.0800 
    142 H142        0.4162  -19.2853  -48.2230 H         1 UNK         0.0800 
    143 H143        1.3878  -22.1425  -48.6287 H         1 UNK         0.0600 
    144 H144        1.1767  -20.5191  -46.2498 H         1 UNK         0.3000 
    145 H145        1.6311  -23.2879  -44.0088 H         1 UNK         0.0600 
    146 H146        3.3448  -21.6844  -43.2397 H         1 UNK         0.0600 
    147 H147        3.8380  -22.3598  -44.7852 H         1 UNK         0.0600 
    148 H148        3.1732  -20.7314  -44.7117 H         1 UNK         0.0600 
    149 H149        1.0597  -20.6321  -43.3404 H         1 UNK         0.3000 
    150 H150       -2.4354  -20.5931  -43.6104 H         1 UNK         0.0600 
    151 H151       -2.3516  -22.0933  -41.6556 H         1 UNK         0.0600 
    152 H152       -2.5487  -20.4258  -41.1382 H         1 UNK         0.0600 
    153 H153       -0.9796  -21.2182  -40.9938 H         1 UNK         0.0600 
    154 H154       -1.5776  -18.6061  -43.5467 H         1 UNK         0.3000 
    155 H155        0.4173  -16.8774  -41.3680 H         1 UNK         0.0600 
    156 H156        1.0712  -17.0920  -44.3541 H         1 UNK         0.0600 
    157 H157        1.3622  -15.6697  -43.3608 H         1 UNK         0.0600 
    158 H158        2.2325  -17.1629  -43.0365 H         1 UNK         0.0600 
    159 H159       -1.0573  -15.9760  -43.6189 H         1 UNK         0.3000 
    160 H160       -4.3449  -16.3123  -42.3360 H         1 UNK         0.0600 
    161 H161       -2.6017  -13.8183  -42.6985 H         1 UNK         0.0600 
    162 H162       -3.5902  -14.2013  -41.2972 H         1 UNK         0.0600 
    163 H163       -4.3596  -13.8609  -42.8400 H         1 UNK         0.0600 
    164 H164       -2.9712  -15.2514  -44.7034 H         1 UNK         0.3000 
    165 H165       -3.5519  -18.1364  -46.6931 H         1 UNK         0.0600 
    166 H166       -4.8050  -16.5680  -48.1367 H         1 UNK         0.0600 
    167 H167       -5.7853  -17.0485  -46.7608 H         1 UNK         0.0600 
    168 H168       -5.0311  -15.4585  -46.7836 H         1 UNK         0.0600 
    169 H169       -2.5858  -15.4497  -47.1973 H         1 UNK         0.3000 
    170 H170        0.8176  -16.1953  -46.5536 H         1 UNK         0.0600 
    171 H171        0.5343  -17.1546  -48.8201 H         1 UNK         0.0600 
    172 H172       -0.5745  -15.8624  -49.2581 H         1 UNK         0.0600 
    173 H173        1.1200  -15.5117  -48.9157 H         1 UNK         0.0600 
    174 H174       -0.0179  -13.8777  -47.6904 H         1 UNK         0.3000 
    175 H175       -1.1062  -11.9534  -46.4873 H         1 UNK         0.0600 
    176 H176       -0.1897  -12.1255  -43.5574 H         1 UNK         0.0600 
    177 H177       -0.7562  -10.6653  -44.3642 H         1 UNK         0.0600 
    178 H178       -1.8605  -12.0002  -44.1027 H         1 UNK         0.0600 
    179 H179        1.6138  -12.7674  -45.9573 H         1 UNK         0.3000 
    180 H180        3.0162  -10.7609  -47.7807 H         1 UNK         0.0600 
    181 H181        3.1818   -8.9268  -45.3340 H         1 UNK         0.0600 
    182 H182        2.8476   -8.4438  -46.9898 H         1 UNK         0.0600 
    183 H183        4.4301   -9.0753  -46.5706 H         1 UNK         0.0600 
    184 H184        4.1792  -12.2624  -46.6892 H         1 UNK         0.3000 
    185 H185        5.6897  -12.7750  -44.1350 H         1 UNK         0.0600 
    186 H186        4.1885  -13.1140  -42.2223 H         1 UNK         0.0600 
    187 H187        3.0805  -14.0707  -43.1939 H         1 UNK         0.0600 
    188 H188        4.6898  -14.6864  -42.8213 H         1 UNK         0.0600 
    189 H189        5.7608  -14.3785  -45.6609 H         1 UNK         0.3000 
    190 H190       -1.3025  -21.1969  -46.5216 H         1 UNK         0.3000 
    191 H191       -3.4096  -21.9452  -48.3339 H         1 UNK         0.0600 
    192 H192       -3.4983  -21.8310  -45.2779 H         1 UNK         0.0600 
    193 H193       -4.8634  -21.8029  -46.3785 H         1 UNK         0.0600 
    194 H194       -3.7523  -20.4446  -46.3390 H         1 UNK         0.0600 
    195 H195       -1.6429  -23.6807  -45.7347 H         1 UNK         0.3000 
    196 H196       -2.9531  -26.1809  -45.9864 H         1 UNK         0.0600 
    197 H197       -0.9329  -27.0533  -44.8000 H         1 UNK         0.0600 
    198 H198       -1.5320  -25.5810  -44.0499 H         1 UNK         0.0600 
    199 H199       -0.0999  -25.5272  -45.0732 H         1 UNK         0.0600 
    200 H200       -0.0225  -24.8994  -47.6273 H         1 UNK         0.3000 
    201 H201        0.5342  -27.1740  -49.2303 H         1 UNK         0.0600 
    202 H202        2.1374  -25.2944  -48.8275 H         1 UNK         0.0600 
    203 H203        1.1319  -24.2235  -49.8025 H         1 UNK         0.0600 
    204 H204        1.9241  -25.6049  -50.5444 H         1 UNK         0.0600 
    205 H205       -1.6693  -24.4356  -49.7440 H         1 UNK         0.3000 
    206 H206       -2.5052  -25.2443  -52.4069 H         1 UNK         0.0600 
    207 H207       -2.3981  -22.8552  -51.6369 H         1 UNK         0.0600 
    208 H208       -3.9872  -23.3018  -52.2194 H         1 UNK         0.0600 
    209 H209       -3.6976  -23.1771  -50.4872 H         1 UNK         0.0600 
    210 H210       -3.0559  -26.8300  -49.6224 H         1 UNK         0.3000 
    211 H211       -4.4645  -28.3423  -48.8794 H         1 UNK         0.0600 
    212 H212       -5.7645  -28.3216  -51.6526 H         1 UNK         0.0600 
    213 H213       -5.8774  -29.5998  -50.4522 H         1 UNK         0.0600 
    214 H214       -4.3309  -29.2449  -51.2039 H         1 UNK         0.0600 
    215 H215       -5.0117  -25.8054  -48.1137 H         1 UNK         0.3000 
    216 H216       -6.3509  -24.7816  -46.7420 H         1 UNK         0.0600 
    217 H217       -8.4509  -25.6753  -45.8928 H         1 UNK         0.0600 
    218 H218       -7.3018  -26.9946  -46.0315 H         1 UNK         0.0600 
    219 H219       -8.5879  -26.8085  -47.2253 H         1 UNK         0.0600 
    220 H220       -6.4346  -24.5346  -49.8222 H         1 UNK         0.3000 
    221 H221       -8.7211  -22.7045  -50.1766 H         1 UNK         0.0600 
    222 H222       -6.2503  -23.2075  -51.9250 H         1 UNK         0.0600 
    223 H223       -7.7957  -24.0270  -52.1145 H         1 UNK         0.0600 
    224 H224       -7.6799  -22.2966  -52.3878 H         1 UNK         0.0600 
    225 H225       -8.1022  -20.4123  -50.8969 H         1 UNK         0.3000 
    226 H226       -6.6874  -19.0838  -48.7737 H         1 UNK         0.0600 
    227 H227       -8.7964  -18.2145  -49.7368 H         1 UNK         0.0600 
    228 H228       -7.5061  -17.0390  -49.9163 H         1 UNK         0.0600 
    229 H229       -8.0183  -17.9927  -51.3044 H         1 UNK         0.0600 
    230 H230       -4.7590  -20.5299  -49.6468 H         1 UNK         0.3000 
    231 H231       -2.6175  -20.6223  -50.1919 H         1 UNK         0.0600 
    232 H232       -1.2516  -18.5223  -50.1262 H         1 UNK         0.0600 
    233 H233       -2.3891  -18.6268  -48.8001 H         1 UNK         0.0600 
    234 H234       -2.7205  -17.5640  -50.1664 H         1 UNK         0.0600 
    235 H235       -4.6313  -20.4934  -52.3879 H         1 UNK         0.3000 
    236 H236       -4.7460  -20.9824  -54.5140 H         1 UNK         0.0600 
    237 H237       -2.7636  -21.7628  -55.7773 H         1 UNK         0.0600 
    238 H238       -1.6866  -21.1076  -54.5562 H         1 UNK         0.0600 
    239 H239       -2.7714  -22.4394  -54.1598 H         1 UNK         0.0600 
    240 H240       -2.7511  -18.1913  -53.8211 H         1 UNK         0.3000 
    241 H241       -2.5740  -17.0181  -56.3552 H         1 UNK         0.0600 
    242 H242       -3.8663  -15.5480  -57.6019 H         1 UNK         0.3800 
    243 H243       -5.5298  -15.2313  -57.2010 H         1 UNK         0.3800 
    244 H244       -2.2826  -14.8417  -55.1297 H         1 UNK         0.0800 
    245 H245       -2.8173  -15.6014  -53.6548 H         1 UNK         0.0800 
    246 H246       -1.2205  -16.8238  -52.0337 H         1 UNK         0.0800 
    247 H247       -0.8212  -15.1338  -52.1966 H         1 UNK         0.0800 
@<TRIPOS>BOND
     1    1    2 1    
     2    1  127 1    
     3    1  128 1    
     4    1  129 1    
     5    2    3 2    
     6    2    4 am   BACKBONE|DICT|INTERRES
     7    4    5 1    
     8    4  130 1    
     9    5    6 1    
    10    5   65 1    
    11    5  131 1    
    12    6    7 1    
    13    6  132 1    
    14    6  133 1    
    15    7    8 1    
    16    8    9 1    
    17    8  134 1    
    18    8  135 1    
    19    9   10 ar   
    20    9   14 ar   
    21   10   11 ar   
    22   10  136 1    
    23   11   12 ar   
    24   11  126 1    
    25   12   13 ar   
    26   12  137 1    
    27   13   14 ar   
    28   13   15 1    
    29   14  138 1    
    30   15   16 1    
    31   15  139 1    
    32   15  140 1    
    33   16   17 1    
    34   17   18 1    
    35   17  141 1    
    36   17  142 1    
    37   18   19 1    
    38   18   67 1    
    39   18  143 1    
    40   19   20 am   BACKBONE|DICT|INTERRES
    41   19  144 1    
    42   20   21 2    
    43   20   22 1    
    44   22   23 1    
    45   22   24 1    
    46   22  145 1    
    47   23  146 1    
    48   23  147 1    
    49   23  148 1    
    50   24   25 am   BACKBONE|DICT|INTERRES
    51   24  149 1    
    52   25   26 2    
    53   25   27 1    
    54   27   28 1    
    55   27   29 1    
    56   27  150 1    
    57   28  151 1    
    58   28  152 1    
    59   28  153 1    
    60   29   30 am   BACKBONE|DICT|INTERRES
    61   29  154 1    
    62   30   31 2    
    63   30   32 1    
    64   32   33 1    
    65   32   34 1    
    66   32  155 1    
    67   33  156 1    
    68   33  157 1    
    69   33  158 1    
    70   34   35 am   BACKBONE|DICT|INTERRES
    71   34  159 1    
    72   35   36 2    
    73   35   37 1    
    74   37   38 1    
    75   37   39 1    
    76   37  160 1    
    77   38  161 1    
    78   38  162 1    
    79   38  163 1    
    80   39   40 am   BACKBONE|DICT|INTERRES
    81   39  164 1    
    82   40   41 2    
    83   40   42 1    
    84   42   43 1    
    85   42   44 1    
    86   42  165 1    
    87   43  166 1    
    88   43  167 1    
    89   43  168 1    
    90   44   45 am   BACKBONE|DICT|INTERRES
    91   44  169 1    
    92   45   46 2    
    93   45   47 1    
    94   47   48 1    
    95   47   49 1    
    96   47  170 1    
    97   48  171 1    
    98   48  172 1    
    99   48  173 1    
   100   49   50 am   BACKBONE|DICT|INTERRES
   101   49  174 1    
   102   50   51 2    
   103   50   52 1    
   104   52   53 1    
   105   52   54 1    
   106   52  175 1    
   107   53  176 1    
   108   53  177 1    
   109   53  178 1    
   110   54   55 am   BACKBONE|DICT|INTERRES
   111   54  179 1    
   112   55   56 2    
   113   55   57 1    
   114   57   58 1    
   115   57   59 1    
   116   57  180 1    
   117   58  181 1    
   118   58  182 1    
   119   58  183 1    
   120   59   60 am   BACKBONE|DICT|INTERRES
   121   59  184 1    
   122   60   61 2    
   123   60   62 1    
   124   62   63 1    
   125   62   64 1    
   126   62  185 1    
   127   63  186 1    
   128   63  187 1    
   129   63  188 1    
   130   64   65 am   BACKBONE|DICT|INTERRES
   131   64  189 1    
   132   65   66 2    
   133   67   68 2    
   134   67   69 am   BACKBONE|DICT|INTERRES
   135   69   70 1    
   136   69  190 1    
   137   70   71 1    
   138   70   72 1    
   139   70  191 1    
   140   71  192 1    
   141   71  193 1    
   142   71  194 1    
   143   72   73 2    
   144   72   74 am   BACKBONE|DICT|INTERRES
   145   74   75 1    
   146   74  195 1    
   147   75   76 1    
   148   75   77 1    
   149   75  196 1    
   150   76  197 1    
   151   76  198 1    
   152   76  199 1    
   153   77   78 2    
   154   77   79 am   BACKBONE|DICT|INTERRES
   155   79   80 1    
   156   79  200 1    
   157   80   81 1    
   158   80   82 1    
   159   80  201 1    
   160   81  202 1    
   161   81  203 1    
   162   81  204 1    
   163   82   83 2    
   164   82   84 am   BACKBONE|DICT|INTERRES
   165   84   85 1    
   166   84  205 1    
   167   85   86 1    
   168   85   87 1    
   169   85  206 1    
   170   86  207 1    
   171   86  208 1    
   172   86  209 1    
   173   87   88 2    
   174   87   89 am   BACKBONE|DICT|INTERRES
   175   89   90 1    
   176   89  210 1    
   177   90   91 1    
   178   90   92 1    
   179   90  211 1    
   180   91  212 1    
   181   91  213 1    
   182   91  214 1    
   183   92   93 2    
   184   92   94 am   BACKBONE|DICT|INTERRES
   185   94   95 1    
   186   94  215 1    
   187   95   96 1    
   188   95   97 1    
   189   95  216 1    
   190   96  217 1    
   191   96  218 1    
   192   96  219 1    
   193   97   98 2    
   194   97   99 am   BACKBONE|DICT|INTERRES
   195   99  100 1    
   196   99  220 1    
   197  100  101 1    
   198  100  102 1    
   199  100  221 1    
   200  101  222 1    
   201  101  223 1    
   202  101  224 1    
   203  102  103 2    
   204  102  104 am   BACKBONE|DICT|INTERRES
   205  104  105 1    
   206  104  225 1    
   207  105  106 1    
   208  105  107 1    
   209  105  226 1    
   210  106  227 1    
   211  106  228 1    
   212  106  229 1    
   213  107  108 2    
   214  107  109 am   BACKBONE|DICT|INTERRES
   215  109  110 1    
   216  109  230 1    
   217  110  111 1    
   218  110  112 1    
   219  110  231 1    
   220  111  232 1    
   221  111  233 1    
   222  111  234 1    
   223  112  113 2    
   224  112  114 am   BACKBONE|DICT|INTERRES
   225  114  115 1    
   226  114  235 1    
   227  115  116 1    
   228  115  117 1    
   229  115  236 1    
   230  116  237 1    
   231  116  238 1    
   232  116  239 1    
   233  117  118 2    
   234  117  119 am   BACKBONE|DICT|INTERRES
   235  119  120 1    
   236  119  240 1    
   237  120  121 1    
   238  120  124 1    
   239  120  241 1    
   240  121  122 am   BACKBONE|DICT|INTERRES
   241  121  123 2    
   242  122  242 1    
   243  122  243 1    
   244  124  125 1    
   245  124  244 1    
   246  124  245 1    
   247  125  126 1    
   248  126  246 1    
   249  126  247 1    
@<TRIPOS>SUBSTRUCTURE
     1 UNK         1 GROUP             0       ****    0 ROOT    
