@<TRIPOS>MOLECULE
3R540
247   249    1
SMALL
USER_CHARGES


@<TRIPOS>ATOM
      1 CA          5.1049  -17.2791  -47.3522 C.3       0 UNK        -0.1800 
      2 C           4.3848  -16.2140  -46.5406 C.2       0 UNK         0.5000 
      3 O           4.5315  -16.1681  -45.3213 O.2       0 UNK        -0.5000 
      4 N           3.6395  -15.3251  -47.2082 N.am      1 UNK        -0.5000 
      5 CA          2.8911  -14.2062  -46.6187 C.3       1 UNK         0.1400 
      6 C6          1.6652  -13.8135  -47.4896 C.3       23 UNK        -0.0398 
      7 S7          2.0562  -13.3881  -49.2240 S.3       23 UNK        -0.2404 
      8 C8          0.5893  -14.0437  -50.1010 C.3       23 UNK        -0.0205 
      9 C9          0.5522  -15.5575  -50.3340 C.ar      23 UNK        -0.0193 
     10 C10        -0.6339  -16.1288  -50.8073 C.ar      23 UNK        -0.1150 
     11 C11        -0.7079  -17.4941  -51.1001 C.ar      23 UNK        -0.0193 
     12 C12         0.4127  -18.3027  -50.8968 C.ar      23 UNK        -0.1150 
     13 C13         1.6006  -17.7555  -50.4046 C.ar      23 UNK        -0.0193 
     14 C14         1.6653  -16.3851  -50.1390 C.ar      23 UNK        -0.1150 
     15 C15         2.8380  -18.6185  -50.1890 C.3       23 UNK        -0.0205 
     16 S16         2.5355  -20.1721  -49.2831 S.3       23 UNK        -0.2404 
     17 C17         1.6429  -19.6467  -47.7746 C.3       23 UNK        -0.0398 
     18 CA          0.6191  -20.7263  -47.3457 C.3       11 UNK         0.1400 
     19 N           0.3131  -20.6844  -45.9125 N.am      11 UNK        -0.5000 
     20 C          -0.2951  -21.6853  -45.2576 C.2       10 UNK         0.5000 
     21 O          -0.6420  -22.7380  -45.7924 O.2       10 UNK        -0.5000 
     22 CA         -0.6152  -21.4621  -43.7702 C.3       10 UNK         0.1400 
     23 CB          0.6465  -21.6072  -42.9065 C.3       10 UNK        -0.1800 
     24 N          -1.2482  -20.1677  -43.5235 N.am      10 UNK        -0.5000 
     25 C          -2.4363  -19.8012  -44.0254 C.2       9 UNK         0.5000 
     26 O          -3.1452  -20.5364  -44.7123 O.2       9 UNK        -0.5000 
     27 CA         -2.8935  -18.3584  -43.7518 C.3       9 UNK         0.1400 
     28 CB         -3.5294  -18.2465  -42.3584 C.3       9 UNK        -0.1800 
     29 N          -1.8109  -17.3827  -43.8836 N.am      9 UNK        -0.5000 
     30 C          -1.1285  -17.1455  -45.0135 C.2       8 UNK         0.5000 
     31 O          -1.3479  -17.7143  -46.0810 O.2       8 UNK        -0.5000 
     32 CA          0.0348  -16.1449  -44.9252 C.3       8 UNK         0.1400 
     33 CB         -0.4867  -14.7013  -44.8440 C.3       8 UNK        -0.1800 
     34 N           0.9152  -16.4208  -43.7927 N.am      8 UNK        -0.5000 
     35 C           1.6126  -17.5557  -43.6312 C.2       7 UNK         0.5000 
     36 O           1.6422  -18.4681  -44.4590 O.2       7 UNK        -0.5000 
     37 CA          2.3435  -17.7238  -42.2875 C.3       7 UNK         0.1400 
     38 CB          3.7031  -17.0130  -42.2995 C.3       7 UNK        -0.1800 
     39 N           1.5438  -17.2244  -41.1690 N.am      7 UNK        -0.5000 
     40 C           0.4325  -17.8189  -40.7130 C.2       6 UNK         0.5000 
     41 O          -0.0259  -18.8621  -41.1772 O.2       6 UNK        -0.5000 
     42 CA         -0.3117  -17.1026  -39.5725 C.3       6 UNK         0.1400 
     43 CB          0.3429  -17.4102  -38.2175 C.3       6 UNK        -0.1800 
     44 N          -0.3712  -15.6534  -39.7679 N.am      6 UNK        -0.5000 
     45 C          -1.0522  -15.0545  -40.7546 C.2       5 UNK         0.5000 
     46 O          -1.7179  -15.6612  -41.5916 O.2       5 UNK        -0.5000 
     47 CA         -0.9390  -13.5237  -40.8475 C.3       5 UNK         0.1400 
     48 CB         -1.9901  -12.8499  -39.9531 C.3       5 UNK        -0.1800 
     49 N           0.3909  -13.0151  -40.5039 N.am      5 UNK        -0.5000 
     50 C           1.5108  -13.2865  -41.1855 C.2       4 UNK         0.5000 
     51 O           1.5633  -14.0484  -42.1545 O.2       4 UNK        -0.5000 
     52 CA          2.7836  -12.5767  -40.7166 C.3       4 UNK         0.1400 
     53 CB          3.8596  -13.5818  -40.2756 C.3       4 UNK        -0.1800 
     54 N           3.2796  -11.7861  -41.8351 N.am      4 UNK        -0.5000 
     55 C           3.6777  -10.5107  -41.7694 C.2       3 UNK         0.5000 
     56 O           3.7166   -9.8647  -40.7202 O.2       3 UNK        -0.5000 
     57 CA          4.0767   -9.8401  -43.1032 C.3       3 UNK         0.1400 
     58 CB          5.0406   -8.6504  -42.9096 C.3       3 UNK        -0.1800 
     59 N           4.6017  -10.7725  -44.1090 N.am      3 UNK        -0.5000 
     60 C           5.7019  -11.5333  -44.0263 C.2       2 UNK         0.5000 
     61 O           6.4268  -11.5858  -43.0312 O.2       2 UNK        -0.5000 
     62 CA          6.0315  -12.3800  -45.2739 C.3       2 UNK         0.1400 
     63 CB          7.3324  -13.1882  -45.1179 C.3       2 UNK        -0.1800 
     64 N           4.9564  -13.3065  -45.6296 N.am      2 UNK        -0.5000 
     65 C           3.8068  -13.0107  -46.2485 C.2       1 UNK         0.5000 
     66 O           3.4748  -11.8557  -46.5221 O.2       1 UNK        -0.5000 
     67 C          -0.6578  -20.7175  -48.2161 C.2       11 UNK         0.5000 
     68 O          -0.7196  -21.4491  -49.2052 O.2       11 UNK        -0.5000 
     69 N          -1.6755  -19.9452  -47.8070 N.am      12 UNK        -0.5000 
     70 CA         -2.9950  -19.9207  -48.4367 C.3       12 UNK         0.1400 
     71 CB         -3.8569  -18.8022  -47.8352 C.3       12 UNK        -0.1800 
     72 C          -3.7133  -21.2771  -48.3683 C.2       12 UNK         0.5000 
     73 O          -4.2481  -21.7179  -49.3810 O.2       12 UNK        -0.5000 
     74 N          -3.6771  -21.9375  -47.2037 N.am      13 UNK        -0.5000 
     75 CA         -4.2189  -23.2839  -47.0134 C.3       13 UNK         0.1400 
     76 CB         -4.2305  -23.6211  -45.5149 C.3       13 UNK        -0.1800 
     77 C          -3.4507  -24.3586  -47.8074 C.2       13 UNK         0.5000 
     78 O          -4.0695  -25.2872  -48.3286 O.2       13 UNK        -0.5000 
     79 N          -2.1207  -24.2133  -47.8853 N.am      14 UNK        -0.5000 
     80 CA         -1.2225  -25.1362  -48.5771 C.3       14 UNK         0.1400 
     81 CB          0.2271  -24.8526  -48.1566 C.3       14 UNK        -0.1800 
     82 C          -1.3459  -25.1054  -50.1111 C.2       14 UNK         0.5000 
     83 O          -1.0788  -26.1317  -50.7365 O.2       14 UNK        -0.5000 
     84 N          -1.7309  -23.9558  -50.6888 N.am      15 UNK        -0.5000 
     85 CA         -1.8572  -23.7058  -52.1304 C.3       15 UNK         0.1400 
     86 CB         -2.3353  -22.2634  -52.3602 C.3       15 UNK        -0.1800 
     87 C          -2.7728  -24.7261  -52.8369 C.2       15 UNK         0.5000 
     88 O          -3.9992  -24.6411  -52.7241 O.2       15 UNK        -0.5000 
     89 N          -2.1403  -25.7235  -53.4761 N.am      16 UNK        -0.5000 
     90 CA         -2.7241  -26.9170  -54.1087 C.3       16 UNK         0.1400 
     91 CB         -3.5259  -26.5148  -55.3615 C.3       16 UNK        -0.1800 
     92 C          -3.5629  -27.7997  -53.1542 C.2       16 UNK         0.5000 
     93 O          -4.3438  -28.6283  -53.6242 O.2       16 UNK        -0.5000 
     94 N          -3.4229  -27.5734  -51.8379 N.am      17 UNK        -0.5000 
     95 CA         -4.2810  -28.0492  -50.7466 C.3       17 UNK         0.1400 
     96 CB         -4.0873  -29.5641  -50.5313 C.3       17 UNK        -0.1800 
     97 C          -5.7702  -27.6534  -50.9128 C.2       17 UNK         0.5000 
     98 O          -6.6434  -28.3376  -50.3752 O.2       17 UNK        -0.5000 
     99 N          -6.0382  -26.5804  -51.6723 N.am      18 UNK        -0.5000 
    100 CA        -7.3760  -26.1803  -52.1137 C.3       18 UNK         0.1400 
    101 CB        -7.5339  -26.5510  -53.5979 C.3       18 UNK        -0.1800 
    102 C         -7.6563  -24.6832  -51.9122 C.2       18 UNK         0.5000 
    103 O         -8.8253  -24.2960  -51.9056 O.2       18 UNK        -0.5000 
    104 N         -6.6044  -23.8613  -51.7876 N.am      19 UNK        -0.5000 
    105 CA        -6.5911  -22.4046  -51.5965 C.3       19 UNK         0.1400 
    106 CB        -7.3554  -21.9820  -50.3274 C.3       19 UNK        -0.1800 
    107 C         -7.0368  -21.5863  -52.8214 C.2       19 UNK         0.5000 
    108 O         -6.4185  -20.5626  -53.1160 O.2       19 UNK        -0.5000 
    109 N         -8.0578  -22.0638  -53.5454 N.am      20 UNK        -0.5000 
    110 CA        -8.6081  -21.4659  -54.7666 C.3       20 UNK         0.1400 
    111 CB        -9.8021  -22.3086  -55.2386 C.3       20 UNK        -0.1800 
    112 C         -7.5775  -21.3073  -55.9024 C.2       20 UNK         0.5000 
    113 O         -7.6889  -20.3772  -56.7024 O.2       20 UNK        -0.5000 
    114 N         -6.5603  -22.1808  -55.9142 N.am      21 UNK        -0.5000 
    115 CA        -5.4039  -22.1378  -56.8115 C.3       21 UNK         0.1400 
    116 CB        -4.5514  -23.3916  -56.5720 C.3       21 UNK        -0.1800 
    117 C         -4.5405  -20.8669  -56.6664 C.2       21 UNK         0.5000 
    118 O         -3.8332  -20.5136  -57.6107 O.2       21 UNK        -0.5000 
    119 N         -4.6227  -20.1962  -55.5087 N.am      22 UNK        -0.5000 
    120 CA        -4.0061  -18.8856  -55.2569 C.3       22 UNK         0.1400 
    121 C         -4.7856  -17.6871  -55.8836 C.2       22 UNK         0.5000 
    122 N         -5.9776  -17.8744  -56.4415 N.am      22 UNK        -0.7600 
    123 O         -4.2952  -16.5617  -55.8810 O.2       22 UNK        -0.5000 
    124 C124       -3.7393  -18.6803  -53.7405 C.3       23 UNK        -0.0398 
    125 S125       -2.2026  -17.7537  -53.4114 S.3       23 UNK        -0.2404 
    126 C126       -1.9952  -18.0956  -51.6396 C.3       23 UNK        -0.0205 
    127 H127        5.2399  -16.9676  -48.3877 H         1 UNK         0.0600 
    128 H128        6.0920  -17.4699  -46.9309 H         1 UNK         0.0600 
    129 H129        4.5413  -18.2115  -47.3345 H         1 UNK         0.0600 
    130 H130        3.6081  -15.3655  -48.2158 H         1 UNK         0.3000 
    131 H131        2.4917  -14.5527  -45.6638 H         1 UNK         0.0600 
    132 H132        0.9633  -14.6470  -47.5018 H         1 UNK         0.0800 
    133 H133        1.1195  -12.9817  -47.0409 H         1 UNK         0.0800 
    134 H134       -0.3075  -13.7357  -49.5609 H         1 UNK         0.0800 
    135 H135        0.5399  -13.5560  -51.0753 H         1 UNK         0.0800 
    136 H136       -1.5001  -15.5037  -50.9748 H         1 UNK         0.1150 
    137 H137        0.3614  -19.3594  -51.1208 H         1 UNK         0.1150 
    138 H138        2.5999  -15.9686  -49.7998 H         1 UNK         0.1150 
    139 H139        3.2611  -18.8638  -51.1638 H         1 UNK         0.0800 
    140 H140        3.6068  -18.0595  -49.6589 H         1 UNK         0.0800 
    141 H141        1.1614  -18.6766  -47.9064 H         1 UNK         0.0800 
    142 H142        2.3899  -19.5071  -46.9922 H         1 UNK         0.0800 
    143 H143        1.0939  -21.6965  -47.5075 H         1 UNK         0.0600 
    144 H144        0.5880  -19.8491  -45.4032 H         1 UNK         0.3000 
    145 H145       -1.3211  -22.2375  -43.4653 H         1 UNK         0.0600 
    146 H146        0.4062  -21.5424  -41.8452 H         1 UNK         0.0600 
    147 H147        1.1241  -22.5735  -43.0727 H         1 UNK         0.0600 
    148 H148        1.3819  -20.8347  -43.1305 H         1 UNK         0.0600 
    149 H149       -0.7487  -19.5236  -42.9183 H         1 UNK         0.3000 
    150 H150       -3.6557  -18.1064  -44.4914 H         1 UNK         0.0600 
    151 H151       -4.3424  -18.9640  -42.2403 H         1 UNK         0.0600 
    152 H152       -3.9470  -17.2529  -42.1953 H         1 UNK         0.0600 
    153 H153       -2.8032  -18.4380  -41.5679 H         1 UNK         0.0600 
    154 H154       -1.5921  -16.8395  -43.0520 H         1 UNK         0.3000 
    155 H155        0.6304  -16.2517  -45.8332 H         1 UNK         0.0600 
    156 H156       -1.1447  -14.5565  -43.9879 H         1 UNK         0.0600 
    157 H157       -1.0556  -14.4437  -45.7381 H         1 UNK         0.0600 
    158 H158        0.3281  -13.9835  -44.7549 H         1 UNK         0.0600 
    159 H159        0.9843  -15.7010  -43.0800 H         1 UNK         0.3000 
    160 H160        2.5204  -18.7896  -42.1289 H         1 UNK         0.0600 
    161 H161        4.1884  -17.0602  -41.3247 H         1 UNK         0.0600 
    162 H162        3.6073  -15.9640  -42.5813 H         1 UNK         0.0600 
    163 H163        4.3746  -17.4842  -43.0175 H         1 UNK         0.0600 
    164 H164        1.8248  -16.3436  -40.7655 H         1 UNK         0.3000 
    165 H165       -1.3346  -17.4847  -39.5515 H         1 UNK         0.0600 
    166 H166       -0.2248  -16.9710  -37.3970 H         1 UNK         0.0600 
    167 H167        0.3869  -18.4859  -38.0414 H         1 UNK         0.0600 
    168 H168        1.3626  -17.0267  -38.1638 H         1 UNK         0.0600 
    169 H169        0.1505  -15.0791  -39.1225 H         1 UNK         0.3000 
    170 H170       -1.1441  -13.2418  -41.8822 H         1 UNK         0.0600 
    171 H171       -2.9941  -13.1969  -40.2016 H         1 UNK         0.0600 
    172 H172       -1.8203  -13.0653  -38.8974 H         1 UNK         0.0600 
    173 H173       -1.9817  -11.7673  -40.0811 H         1 UNK         0.0600 
    174 H174        0.4362  -12.3741  -39.7247 H         1 UNK         0.3000 
    175 H175        2.5368  -11.9361  -39.8674 H         1 UNK         0.0600 
    176 H176        4.7371  -13.0659  -39.8857 H         1 UNK         0.0600 
    177 H177        3.4879  -14.2365  -39.4866 H         1 UNK         0.0600 
    178 H178        4.1886  -14.2107  -41.1026 H         1 UNK         0.0600 
    179 H179        3.2383  -12.2399  -42.7369 H         1 UNK         0.3000 
    180 H180        3.1508   -9.4425  -43.5209 H         1 UNK         0.0600 
    181 H181        5.9713   -8.9569  -42.4314 H         1 UNK         0.0600 
    182 H182        4.5912   -7.8784  -42.2840 H         1 UNK         0.0600 
    183 H183        5.2904   -8.1859  -43.8634 H         1 UNK         0.0600 
    184 H184        4.0629  -10.8485  -44.9679 H         1 UNK         0.3000 
    185 H185        6.1739  -11.6834  -46.1025 H         1 UNK         0.0600 
    186 H186        7.5757  -13.7237  -46.0357 H         1 UNK         0.0600 
    187 H187        8.1762  -12.5351  -44.8920 H         1 UNK         0.0600 
    188 H188        7.2564  -13.9209  -44.3134 H         1 UNK         0.0600 
    189 H189        5.1069  -14.2822  -45.3921 H         1 UNK         0.3000 
    190 H190       -1.5399  -19.3201  -47.0160 H         1 UNK         0.3000 
    191 H191       -2.8490  -19.6936  -49.4908 H         1 UNK         0.0600 
    192 H192       -4.0195  -18.9484  -46.7680 H         1 UNK         0.0600 
    193 H193       -4.8358  -18.7638  -48.3147 H         1 UNK         0.0600 
    194 H194       -3.3887  -17.8275  -47.9740 H         1 UNK         0.0600 
    195 H195       -3.2604  -21.4900  -46.3917 H         1 UNK         0.3000 
    196 H196       -5.2512  -23.2849  -47.3698 H         1 UNK         0.0600 
    197 H197       -3.2259  -23.6018  -45.0906 H         1 UNK         0.0600 
    198 H198       -4.6436  -24.6153  -45.3403 H         1 UNK         0.0600 
    199 H199       -4.8414  -22.9114  -44.9567 H         1 UNK         0.0600 
    200 H200       -1.6837  -23.4538  -47.3732 H         1 UNK         0.3000 
    201 H201       -1.4724  -26.1485  -48.2525 H         1 UNK         0.0600 
    202 H202        0.5363  -23.8463  -48.4387 H         1 UNK         0.0600 
    203 H203        0.9164  -25.5521  -48.6313 H         1 UNK         0.0600 
    204 H204        0.3540  -24.9552  -47.0789 H         1 UNK         0.0600 
    205 H205       -1.8915  -23.1588  -50.0846 H         1 UNK         0.3000 
    206 H206       -0.8574  -23.7888  -52.5606 H         1 UNK         0.0600 
    207 H207       -1.6170  -21.5463  -51.9631 H         1 UNK         0.0600 
    208 H208       -2.4536  -22.0520  -53.4238 H         1 UNK         0.0600 
    209 H209       -3.2935  -22.0745  -51.8795 H         1 UNK         0.0600 
    210 H210       -1.1301  -25.7238  -53.4407 H         1 UNK         0.3000 
    211 H211       -1.8845  -27.5335  -54.4325 H         1 UNK         0.0600 
    212 H212       -4.4333  -25.9724  -55.0965 H         1 UNK         0.0600 
    213 H213       -3.8268  -27.3917  -55.9356 H         1 UNK         0.0600 
    214 H214       -2.9340  -25.8836  -56.0241 H         1 UNK         0.0600 
    215 H215       -2.6979  -26.9192  -51.5590 H         1 UNK         0.3000 
    216 H216       -3.9327  -27.5417  -49.8466 H         1 UNK         0.0600 
    217 H217       -3.0329  -29.8130  -50.4114 H         1 UNK         0.0600 
    218 H218       -4.6025  -29.9017  -49.6314 H         1 UNK         0.0600 
    219 H219       -4.4764  -30.1446  -51.3683 H         1 UNK         0.0600 
    220 H220       -5.2581  -26.0635  -52.0637 H         1 UNK         0.3000 
    221 H221       -8.1390  -26.7144  -51.5442 H         1 UNK         0.0600 
    222 H222       -6.8043  -26.0319  -54.2206 H         1 UNK         0.0600 
    223 H223       -7.4009  -27.6222  -53.7519 H         1 UNK         0.0600 
    224 H224       -8.5271  -26.2903  -53.9660 H         1 UNK         0.0600 
    225 H225       -5.6774  -24.2600  -51.9025 H         1 UNK         0.3000 
    226 H226       -5.5430  -22.1560  -51.4504 H         1 UNK         0.0600 
    227 H227       -7.0004  -22.5307  -49.4550 H         1 UNK         0.0600 
    228 H228       -7.2062  -20.9209  -50.1241 H         1 UNK         0.0600 
    229 H229       -8.4289  -22.1483  -50.4178 H         1 UNK         0.0600 
    230 H230       -8.5182  -22.8976  -53.1925 H         1 UNK         0.3000 
    231 H231       -8.9685  -20.4676  -54.5110 H         1 UNK         0.0600 
    232 H232      -10.5786  -22.3546  -54.4748 H         1 UNK         0.0600 
    233 H233       -9.5036  -23.3307  -55.4752 H         1 UNK         0.0600 
    234 H234      -10.2536  -21.8810  -56.1349 H         1 UNK         0.0600 
    235 H235       -6.5536  -22.9016  -55.2081 H         1 UNK         0.3000 
    236 H236       -5.7766  -22.1636  -57.8374 H         1 UNK         0.0600 
    237 H237       -4.1877  -23.4395  -55.5445 H         1 UNK         0.0600 
    238 H238       -5.1237  -24.2975  -56.7718 H         1 UNK         0.0600 
    239 H239       -3.6814  -23.4079  -57.2297 H         1 UNK         0.0600 
    240 H240       -5.2548  -20.5279  -54.7881 H         1 UNK         0.3000 
    241 H241       -3.0386  -18.8996  -55.7627 H         1 UNK         0.0600 
    242 H242       -6.4578  -17.0864  -56.8464 H         1 UNK         0.3800 
    243 H243       -6.4110  -18.7898  -56.4747 H         1 UNK         0.3800 
    244 H244       -4.5798  -18.1887  -53.2470 H         1 UNK         0.0800 
    245 H245       -3.6375  -19.6481  -53.2473 H         1 UNK         0.0800 
    246 H246       -2.8495  -17.7029  -51.0861 H         1 UNK         0.0800 
    247 H247       -1.9905  -19.1758  -51.4940 H         1 UNK         0.0800 
@<TRIPOS>BOND
     1    1    2 1    
     2    1  127 1    
     3    1  128 1    
     4    1  129 1    
     5    2    3 2    
     6    2    4 am   BACKBONE|DICT|INTERRES
     7    4    5 1    
     8    4  130 1    
     9    5    6 1    
    10    5   65 1    
    11    5  131 1    
    12    6    7 1    
    13    6  132 1    
    14    6  133 1    
    15    7    8 1    
    16    8    9 1    
    17    8  134 1    
    18    8  135 1    
    19    9   10 ar   
    20    9   14 ar   
    21   10   11 ar   
    22   10  136 1    
    23   11   12 ar   
    24   11  126 1    
    25   12   13 ar   
    26   12  137 1    
    27   13   14 ar   
    28   13   15 1    
    29   14  138 1    
    30   15   16 1    
    31   15  139 1    
    32   15  140 1    
    33   16   17 1    
    34   17   18 1    
    35   17  141 1    
    36   17  142 1    
    37   18   19 1    
    38   18   67 1    
    39   18  143 1    
    40   19   20 am   BACKBONE|DICT|INTERRES
    41   19  144 1    
    42   20   21 2    
    43   20   22 1    
    44   22   23 1    
    45   22   24 1    
    46   22  145 1    
    47   23  146 1    
    48   23  147 1    
    49   23  148 1    
    50   24   25 am   BACKBONE|DICT|INTERRES
    51   24  149 1    
    52   25   26 2    
    53   25   27 1    
    54   27   28 1    
    55   27   29 1    
    56   27  150 1    
    57   28  151 1    
    58   28  152 1    
    59   28  153 1    
    60   29   30 am   BACKBONE|DICT|INTERRES
    61   29  154 1    
    62   30   31 2    
    63   30   32 1    
    64   32   33 1    
    65   32   34 1    
    66   32  155 1    
    67   33  156 1    
    68   33  157 1    
    69   33  158 1    
    70   34   35 am   BACKBONE|DICT|INTERRES
    71   34  159 1    
    72   35   36 2    
    73   35   37 1    
    74   37   38 1    
    75   37   39 1    
    76   37  160 1    
    77   38  161 1    
    78   38  162 1    
    79   38  163 1    
    80   39   40 am   BACKBONE|DICT|INTERRES
    81   39  164 1    
    82   40   41 2    
    83   40   42 1    
    84   42   43 1    
    85   42   44 1    
    86   42  165 1    
    87   43  166 1    
    88   43  167 1    
    89   43  168 1    
    90   44   45 am   BACKBONE|DICT|INTERRES
    91   44  169 1    
    92   45   46 2    
    93   45   47 1    
    94   47   48 1    
    95   47   49 1    
    96   47  170 1    
    97   48  171 1    
    98   48  172 1    
    99   48  173 1    
   100   49   50 am   BACKBONE|DICT|INTERRES
   101   49  174 1    
   102   50   51 2    
   103   50   52 1    
   104   52   53 1    
   105   52   54 1    
   106   52  175 1    
   107   53  176 1    
   108   53  177 1    
   109   53  178 1    
   110   54   55 am   BACKBONE|DICT|INTERRES
   111   54  179 1    
   112   55   56 2    
   113   55   57 1    
   114   57   58 1    
   115   57   59 1    
   116   57  180 1    
   117   58  181 1    
   118   58  182 1    
   119   58  183 1    
   120   59   60 am   BACKBONE|DICT|INTERRES
   121   59  184 1    
   122   60   61 2    
   123   60   62 1    
   124   62   63 1    
   125   62   64 1    
   126   62  185 1    
   127   63  186 1    
   128   63  187 1    
   129   63  188 1    
   130   64   65 am   BACKBONE|DICT|INTERRES
   131   64  189 1    
   132   65   66 2    
   133   67   68 2    
   134   67   69 am   BACKBONE|DICT|INTERRES
   135   69   70 1    
   136   69  190 1    
   137   70   71 1    
   138   70   72 1    
   139   70  191 1    
   140   71  192 1    
   141   71  193 1    
   142   71  194 1    
   143   72   73 2    
   144   72   74 am   BACKBONE|DICT|INTERRES
   145   74   75 1    
   146   74  195 1    
   147   75   76 1    
   148   75   77 1    
   149   75  196 1    
   150   76  197 1    
   151   76  198 1    
   152   76  199 1    
   153   77   78 2    
   154   77   79 am   BACKBONE|DICT|INTERRES
   155   79   80 1    
   156   79  200 1    
   157   80   81 1    
   158   80   82 1    
   159   80  201 1    
   160   81  202 1    
   161   81  203 1    
   162   81  204 1    
   163   82   83 2    
   164   82   84 am   BACKBONE|DICT|INTERRES
   165   84   85 1    
   166   84  205 1    
   167   85   86 1    
   168   85   87 1    
   169   85  206 1    
   170   86  207 1    
   171   86  208 1    
   172   86  209 1    
   173   87   88 2    
   174   87   89 am   BACKBONE|DICT|INTERRES
   175   89   90 1    
   176   89  210 1    
   177   90   91 1    
   178   90   92 1    
   179   90  211 1    
   180   91  212 1    
   181   91  213 1    
   182   91  214 1    
   183   92   93 2    
   184   92   94 am   BACKBONE|DICT|INTERRES
   185   94   95 1    
   186   94  215 1    
   187   95   96 1    
   188   95   97 1    
   189   95  216 1    
   190   96  217 1    
   191   96  218 1    
   192   96  219 1    
   193   97   98 2    
   194   97   99 am   BACKBONE|DICT|INTERRES
   195   99  100 1    
   196   99  220 1    
   197  100  101 1    
   198  100  102 1    
   199  100  221 1    
   200  101  222 1    
   201  101  223 1    
   202  101  224 1    
   203  102  103 2    
   204  102  104 am   BACKBONE|DICT|INTERRES
   205  104  105 1    
   206  104  225 1    
   207  105  106 1    
   208  105  107 1    
   209  105  226 1    
   210  106  227 1    
   211  106  228 1    
   212  106  229 1    
   213  107  108 2    
   214  107  109 am   BACKBONE|DICT|INTERRES
   215  109  110 1    
   216  109  230 1    
   217  110  111 1    
   218  110  112 1    
   219  110  231 1    
   220  111  232 1    
   221  111  233 1    
   222  111  234 1    
   223  112  113 2    
   224  112  114 am   BACKBONE|DICT|INTERRES
   225  114  115 1    
   226  114  235 1    
   227  115  116 1    
   228  115  117 1    
   229  115  236 1    
   230  116  237 1    
   231  116  238 1    
   232  116  239 1    
   233  117  118 2    
   234  117  119 am   BACKBONE|DICT|INTERRES
   235  119  120 1    
   236  119  240 1    
   237  120  121 1    
   238  120  124 1    
   239  120  241 1    
   240  121  122 am   BACKBONE|DICT|INTERRES
   241  121  123 2    
   242  122  242 1    
   243  122  243 1    
   244  124  125 1    
   245  124  244 1    
   246  124  245 1    
   247  125  126 1    
   248  126  246 1    
   249  126  247 1    
@<TRIPOS>SUBSTRUCTURE
     1 UNK         1 GROUP             0       ****    0 ROOT    
