@<TRIPOS>MOLECULE
3R540
247   249    1
SMALL
USER_CHARGES


@<TRIPOS>ATOM
      1 CA          5.7156  -14.3746  -46.1050 C.3       0 UNK        -0.1800 
      2 C           4.3261  -13.7615  -46.0368 C.2       0 UNK         0.5000 
      3 O           3.8207  -13.5133  -44.9415 O.2       0 UNK        -0.5000 
      4 N           3.6948  -13.5268  -47.1945 N.am      1 UNK        -0.5000 
      5 CA          2.3666  -12.9093  -47.3057 C.3       1 UNK         0.1400 
      6 C6          1.7617  -13.0506  -48.7227 C.3       23 UNK        -0.0398 
      7 S7          1.4141  -14.7898  -49.1609 S.3       23 UNK        -0.2404 
      8 C8         -0.2837  -14.6443  -49.8004 C.3       23 UNK        -0.0205 
      9 C9         -0.8407  -15.9831  -50.2615 C.ar      23 UNK        -0.0193 
     10 C10        -0.7138  -16.3728  -51.5941 C.ar      23 UNK        -0.1150 
     11 C11        -1.2841  -17.5671  -52.0527 C.ar      23 UNK        -0.0193 
     12 C12        -1.9444  -18.3989  -51.1380 C.ar      23 UNK        -0.1150 
     13 C13        -2.0716  -18.0285  -49.7896 C.ar      23 UNK        -0.0193 
     14 C14        -1.5185  -16.8170  -49.3721 C.ar      23 UNK        -0.1150 
     15 C15        -2.7726  -18.8777  -48.7245 C.3       23 UNK        -0.0205 
     16 S16        -3.5913  -20.3969  -49.3142 S.3       23 UNK        -0.2404 
     17 C17        -4.0441  -21.2172  -47.7431 C.3       23 UNK        -0.0398 
     18 CA         -3.0196  -22.3106  -47.3561 C.3       11 UNK         0.1400 
     19 N          -1.7153  -21.7311  -47.0344 N.am      11 UNK        -0.5000 
     20 C          -0.5532  -22.3905  -47.0716 C.2       10 UNK         0.5000 
     21 O          -0.4430  -23.5846  -47.3474 O.2       10 UNK        -0.5000 
     22 CA          0.6880  -21.5721  -46.6808 C.3       10 UNK         0.1400 
     23 CB          1.1213  -20.6536  -47.8334 C.3       10 UNK        -0.1800 
     24 N           0.4659  -20.7841  -45.4639 N.am      10 UNK        -0.5000 
     25 C           0.3093  -21.3427  -44.2543 C.2       9 UNK         0.5000 
     26 O           0.3170  -22.5577  -44.0646 O.2       9 UNK        -0.5000 
     27 CA          0.0824  -20.4164  -43.0485 C.3       9 UNK         0.1400 
     28 CB          1.4203  -20.0533  -42.3872 C.3       9 UNK        -0.1800 
     29 N          -0.6873  -19.2015  -43.3235 N.am      9 UNK        -0.5000 
     30 C          -1.9600  -19.1910  -43.7522 C.2       8 UNK         0.5000 
     31 O          -2.5418  -20.1844  -44.1885 O.2       8 UNK        -0.5000 
     32 CA         -2.7163  -17.8568  -43.6678 C.3       8 UNK         0.1400 
     33 CB         -3.0953  -17.5428  -42.2120 C.3       8 UNK        -0.1800 
     34 N          -1.9022  -16.7704  -44.1988 N.am      8 UNK        -0.5000 
     35 C          -2.1846  -16.0818  -45.3120 C.2       7 UNK         0.5000 
     36 O          -3.2352  -16.1844  -45.9455 O.2       7 UNK        -0.5000 
     37 CA         -1.0787  -15.1416  -45.8297 C.3       7 UNK         0.1400 
     38 CB         -1.2121  -13.7572  -45.1793 C.3       7 UNK        -0.1800 
     39 N           0.2769  -15.6480  -45.6046 N.am      7 UNK        -0.5000 
     40 C           0.7502  -16.8690  -45.9057 C.2       6 UNK         0.5000 
     41 O           0.1176  -17.7372  -46.5054 O.2       6 UNK        -0.5000 
     42 CA          2.1470  -17.2130  -45.3582 C.3       6 UNK         0.1400 
     43 CB          3.1922  -17.1851  -46.4813 C.3       6 UNK        -0.1800 
     44 N           2.5736  -16.3484  -44.2499 N.am      6 UNK        -0.5000 
     45 C           1.9701  -16.2699  -43.0531 C.2       5 UNK         0.5000 
     46 O           0.9437  -16.8882  -42.7622 O.2       5 UNK        -0.5000 
     47 CA          2.5737  -15.2753  -42.0539 C.3       5 UNK         0.1400 
     48 CB          4.0941  -15.4561  -41.8956 C.3       5 UNK        -0.1800 
     49 N           2.2935  -13.9169  -42.5069 N.am      5 UNK        -0.5000 
     50 C           1.2444  -13.1788  -42.1199 C.2       4 UNK         0.5000 
     51 O           0.3967  -13.5720  -41.3172 O.2       4 UNK        -0.5000 
     52 CA          1.1122  -11.7734  -42.7479 C.3       4 UNK         0.1400 
     53 CB          0.3501  -10.7786  -41.8481 C.3       4 UNK        -0.1800 
     54 N           2.3905  -11.2119  -43.1952 N.am      4 UNK        -0.5000 
     55 C           3.4524  -10.8770  -42.4443 C.2       3 UNK         0.5000 
     56 O           3.4720  -10.9462  -41.2150 O.2       3 UNK        -0.5000 
     57 CA          4.7214  -10.4095  -43.1882 C.3       3 UNK         0.1400 
     58 CB          5.8827  -11.3880  -42.9435 C.3       3 UNK        -0.1800 
     59 N           4.5149  -10.2856  -44.6325 N.am      3 UNK        -0.5000 
     60 C           4.0121   -9.2087  -45.2516 C.2       2 UNK         0.5000 
     61 O           3.7361   -8.1554  -44.6772 O.2       2 UNK        -0.5000 
     62 CA          3.7477   -9.3433  -46.7652 C.3       2 UNK         0.1400 
     63 CB          4.9337   -8.7895  -47.5692 C.3       2 UNK        -0.1800 
     64 N           3.4896  -10.7248  -47.1847 N.am      2 UNK        -0.5000 
     65 C           2.3963  -11.4324  -46.8617 C.2       1 UNK         0.5000 
     66 O           1.4694  -10.9839  -46.1881 O.2       1 UNK        -0.5000 
     67 C          -3.5310  -23.2155  -46.2153 C.2       11 UNK         0.5000 
     68 O          -4.2433  -24.1815  -46.4836 O.2       11 UNK        -0.5000 
     69 N          -3.1414  -22.9243  -44.9657 N.am      12 UNK        -0.5000 
     70 CA         -3.3959  -23.7893  -43.8137 C.3       12 UNK         0.1400 
     71 CB         -3.0954  -23.0261  -42.5153 C.3       12 UNK        -0.1800 
     72 C          -2.5861  -25.0988  -43.8775 C.2       12 UNK         0.5000 
     73 O          -3.1238  -26.1576  -43.5505 O.2       12 UNK        -0.5000 
     74 N          -1.3152  -25.0057  -44.2945 N.am      13 UNK        -0.5000 
     75 CA         -0.4047  -26.1413  -44.4227 C.3       13 UNK         0.1400 
     76 CB          1.0460  -25.6394  -44.4945 C.3       13 UNK        -0.1800 
     77 C          -0.7259  -27.0350  -45.6318 C.2       13 UNK         0.5000 
     78 O          -0.7854  -28.2557  -45.4745 O.2       13 UNK        -0.5000 
     79 N          -0.9038  -26.4252  -46.8107 N.am      14 UNK        -0.5000 
     80 CA         -1.0947  -27.1262  -48.0755 C.3       14 UNK         0.1400 
     81 CB         -0.0099  -26.6757  -49.0681 C.3       14 UNK        -0.1800 
     82 C          -2.4929  -26.8456  -48.6374 C.2       14 UNK         0.5000 
     83 O          -2.7957  -25.7078  -49.0023 O.2       14 UNK        -0.5000 
     84 N          -3.2975  -27.9066  -48.7831 N.am      15 UNK        -0.5000 
     85 CA         -4.6011  -27.8688  -49.4535 C.3       15 UNK         0.1400 
     86 CB         -5.3049  -29.2220  -49.2769 C.3       15 UNK        -0.1800 
     87 C          -4.4928  -27.5048  -50.9481 C.2       15 UNK         0.5000 
     88 O          -5.3996  -26.8745  -51.4892 O.2       15 UNK        -0.5000 
     89 N          -3.3604  -27.8591  -51.5731 N.am      16 UNK        -0.5000 
     90 CA         -3.0049  -27.4807  -52.9410 C.3       16 UNK         0.1400 
     91 CB         -1.7488  -28.2556  -53.3662 C.3       16 UNK        -0.1800 
     92 C          -2.7872  -25.9644  -53.1113 C.2       16 UNK         0.5000 
     93 O          -3.0782  -25.4343  -54.1835 O.2       16 UNK        -0.5000 
     94 N          -2.3072  -25.2904  -52.0542 N.am      17 UNK        -0.5000 
     95 CA         -2.1901  -23.8338  -52.0108 C.3       17 UNK         0.1400 
     96 CB         -1.1724  -23.4023  -50.9439 C.3       17 UNK        -0.1800 
     97 C          -3.5589  -23.1791  -51.7745 C.2       17 UNK         0.5000 
     98 O          -3.8635  -22.1910  -52.4357 O.2       17 UNK        -0.5000 
     99 N          -4.3795  -23.7624  -50.8859 N.am      18 UNK        -0.5000 
    100 CA        -5.7472  -23.3103  -50.6015 C.3       18 UNK         0.1400 
    101 CB        -6.3305  -24.1188  -49.4356 C.3       18 UNK        -0.1800 
    102 C         -6.6837  -23.3883  -51.8213 C.2       18 UNK         0.5000 
    103 O         -7.5157  -22.5007  -52.0107 O.2       18 UNK        -0.5000 
    104 N         -6.5033  -24.4279  -52.6466 N.am      19 UNK        -0.5000 
    105 CA        -7.2224  -24.6543  -53.9020 C.3       19 UNK         0.1400 
    106 CB        -6.8800  -26.0610  -54.4176 C.3       19 UNK        -0.1800 
    107 C         -6.9453  -23.5994  -54.9948 C.2       19 UNK         0.5000 
    108 O         -7.7110  -23.5203  -55.9565 O.2       19 UNK        -0.5000 
    109 N         -5.8739  -22.8132  -54.8384 N.am      20 UNK        -0.5000 
    110 CA        -5.4650  -21.7471  -55.7469 C.3       20 UNK         0.1400 
    111 CB        -4.4164  -22.2951  -56.7336 C.3       20 UNK        -0.1800 
    112 C         -4.9661  -20.5394  -54.9347 C.2       20 UNK         0.5000 
    113 O         -3.9216  -19.9710  -55.2597 O.2       20 UNK        -0.5000 
    114 N         -5.7077  -20.1917  -53.8697 N.am      21 UNK        -0.5000 
    115 CA        -5.3842  -19.1131  -52.9323 C.3       21 UNK         0.1400 
    116 CB        -6.4276  -19.0782  -51.8065 C.3       21 UNK        -0.1800 
    117 C         -5.2821  -17.7473  -53.6348 C.2       21 UNK         0.5000 
    118 O         -6.1138  -17.4408  -54.4937 O.2       21 UNK        -0.5000 
    119 N         -4.2521  -16.9734  -53.2798 N.am      22 UNK        -0.5000 
    120 CA        -3.7995  -15.8069  -54.0502 C.3       22 UNK         0.1400 
    121 C         -3.3551  -14.5913  -53.1885 C.2       22 UNK         0.5000 
    122 N         -3.6383  -14.5660  -51.8917 N.am      22 UNK        -0.7600 
    123 O         -2.7806  -13.6370  -53.7056 O.2       22 UNK        -0.5000 
    124 C124       -2.8057  -16.2251  -55.1732 C.3       23 UNK        -0.0398 
    125 S125       -1.0724  -16.5932  -54.7048 S.3       23 UNK        -0.2404 
    126 C126       -1.1743  -17.9877  -53.5207 C.3       23 UNK        -0.0205 
    127 H127        6.4474  -13.6883  -45.6792 H         1 UNK         0.0600 
    128 H128        6.0101  -14.5969  -47.1308 H         1 UNK         0.0600 
    129 H129        5.7447  -15.3021  -45.5336 H         1 UNK         0.0600 
    130 H130        4.1380  -13.7803  -48.0664 H         1 UNK         0.3000 
    131 H131        1.7057  -13.4289  -46.6105 H         1 UNK         0.0600 
    132 H132        0.8339  -12.4794  -48.7933 H         1 UNK         0.0800 
    133 H133        2.4323  -12.6305  -49.4742 H         1 UNK         0.0800 
    134 H134       -0.9325  -14.2160  -49.0364 H         1 UNK         0.0800 
    135 H135       -0.2915  -13.9380  -50.6323 H         1 UNK         0.0800 
    136 H136       -0.1827  -15.7241  -52.2751 H         1 UNK         0.1150 
    137 H137       -2.3469  -19.3392  -51.4847 H         1 UNK         0.1150 
    138 H138       -1.6169  -16.5325  -48.3381 H         1 UNK         0.1150 
    139 H139       -2.0327  -19.1413  -47.9691 H         1 UNK         0.0800 
    140 H140       -3.5198  -18.2625  -48.2204 H         1 UNK         0.0800 
    141 H141       -5.0340  -21.6550  -47.8809 H         1 UNK         0.0800 
    142 H142       -4.1474  -20.4766  -46.9479 H         1 UNK         0.0800 
    143 H143       -2.8940  -22.9632  -48.2225 H         1 UNK         0.0600 
    144 H144       -1.7112  -20.7681  -46.7347 H         1 UNK         0.3000 
    145 H145        1.5015  -22.2751  -46.4882 H         1 UNK         0.0600 
    146 H146        1.3109  -21.2303  -48.7396 H         1 UNK         0.0600 
    147 H147        2.0408  -20.1236  -47.5882 H         1 UNK         0.0600 
    148 H148        0.3592  -19.9118  -48.0741 H         1 UNK         0.0600 
    149 H149        0.3860  -19.7809  -45.5684 H         1 UNK         0.3000 
    150 H150       -0.4914  -20.9864  -42.3159 H         1 UNK         0.0600 
    151 H151        2.0638  -19.4823  -43.0548 H         1 UNK         0.0600 
    152 H152        1.9677  -20.9516  -42.0985 H         1 UNK         0.0600 
    153 H153        1.2674  -19.4640  -41.4829 H         1 UNK         0.0600 
    154 H154       -0.2562  -18.3357  -43.0134 H         1 UNK         0.3000 
    155 H155       -3.6395  -17.9684  -44.2405 H         1 UNK         0.0600 
    156 H156       -2.2143  -17.4057  -41.5835 H         1 UNK         0.0600 
    157 H157       -3.6875  -18.3502  -41.7793 H         1 UNK         0.0600 
    158 H158       -3.6925  -16.6328  -42.1512 H         1 UNK         0.0600 
    159 H159       -1.0001  -16.6254  -43.7627 H         1 UNK         0.3000 
    160 H160       -1.2109  -15.0134  -46.9007 H         1 UNK         0.0600 
    161 H161       -0.4926  -13.0517  -45.5939 H         1 UNK         0.0600 
    162 H162       -1.0624  -13.8052  -44.1003 H         1 UNK         0.0600 
    163 H163       -2.2051  -13.3402  -45.3523 H         1 UNK         0.0600 
    164 H164        0.8944  -15.0433  -45.0856 H         1 UNK         0.3000 
    165 H165        2.0996  -18.2336  -44.9778 H         1 UNK         0.0600 
    166 H166        4.1919  -17.4020  -46.1051 H         1 UNK         0.0600 
    167 H167        2.9624  -17.9319  -47.2414 H         1 UNK         0.0600 
    168 H168        3.2165  -16.2218  -46.9863 H         1 UNK         0.0600 
    169 H169        3.3733  -15.7548  -44.4190 H         1 UNK         0.3000 
    170 H170        2.1122  -15.4556  -41.0807 H         1 UNK         0.0600 
    171 H171        4.4790  -14.8119  -41.1048 H         1 UNK         0.0600 
    172 H172        4.6399  -15.2133  -42.8080 H         1 UNK         0.0600 
    173 H173        4.3402  -16.4837  -41.6250 H         1 UNK         0.0600 
    174 H174        2.9110  -13.5447  -43.2230 H         1 UNK         0.3000 
    175 H175        0.5198  -11.9053  -43.6529 H         1 UNK         0.0600 
    176 H176       -0.6672  -11.1231  -41.6590 H         1 UNK         0.0600 
    177 H177        0.8354  -10.6511  -40.8802 H         1 UNK         0.0600 
    178 H178        0.2762   -9.7984  -42.3191 H         1 UNK         0.0600 
    179 H179        2.4787  -11.1106  -44.1978 H         1 UNK         0.3000 
    180 H180        5.0031   -9.4373  -42.7784 H         1 UNK         0.0600 
    181 H181        5.6462  -12.3935  -43.2925 H         1 UNK         0.0600 
    182 H182        6.1168  -11.4593  -41.8806 H         1 UNK         0.0600 
    183 H183        6.7894  -11.0603  -43.4522 H         1 UNK         0.0600 
    184 H184        4.6931  -11.1150  -45.1795 H         1 UNK         0.3000 
    185 H185        2.8647   -8.7450  -47.0001 H         1 UNK         0.0600 
    186 H186        5.1371   -7.7519  -47.3007 H         1 UNK         0.0600 
    187 H187        5.8454   -9.3602  -47.3879 H         1 UNK         0.0600 
    188 H188        4.7297   -8.8122  -48.6399 H         1 UNK         0.0600 
    189 H189        4.2125  -11.1746  -47.7277 H         1 UNK         0.3000 
    190 H190       -2.6313  -22.0642  -44.7914 H         1 UNK         0.3000 
    191 H191       -4.4564  -24.0501  -43.8119 H         1 UNK         0.0600 
    192 H192       -3.6875  -22.1134  -42.4461 H         1 UNK         0.0600 
    193 H193       -3.3324  -23.6353  -41.6423 H         1 UNK         0.0600 
    194 H194       -2.0435  -22.7512  -42.4460 H         1 UNK         0.0600 
    195 H195       -0.9239  -24.0907  -44.4920 H         1 UNK         0.3000 
    196 H196       -0.4975  -26.7544  -43.5236 H         1 UNK         0.0600 
    197 H197        1.7440  -26.4707  -44.6012 H         1 UNK         0.0600 
    198 H198        1.3205  -25.1005  -43.5876 H         1 UNK         0.0600 
    199 H199        1.1999  -24.9692  -45.3413 H         1 UNK         0.0600 
    200 H200       -0.8624  -25.4103  -46.8702 H         1 UNK         0.3000 
    201 H201       -0.9842  -28.2047  -47.9450 H         1 UNK         0.0600 
    202 H202       -0.1432  -27.1501  -50.0411 H         1 UNK         0.0600 
    203 H203        0.9836  -26.9438  -48.7088 H         1 UNK         0.0600 
    204 H204       -0.0247  -25.5966  -49.2219 H         1 UNK         0.0600 
    205 H205       -2.9860  -28.8095  -48.4543 H         1 UNK         0.3000 
    206 H206       -5.2060  -27.1012  -48.9670 H         1 UNK         0.0600 
    207 H207       -5.4523  -29.4553  -48.2223 H         1 UNK         0.0600 
    208 H208       -6.2892  -29.2134  -49.7472 H         1 UNK         0.0600 
    209 H209       -4.7337  -30.0358  -49.7255 H         1 UNK         0.0600 
    210 H210       -2.6752  -28.3898  -51.0567 H         1 UNK         0.3000 
    211 H211       -3.8280  -27.7728  -53.5967 H         1 UNK         0.0600 
    212 H212       -0.8948  -28.0200  -52.7299 H         1 UNK         0.0600 
    213 H213       -1.4701  -28.0135  -54.3927 H         1 UNK         0.0600 
    214 H214       -1.9150  -29.3321  -53.3216 H         1 UNK         0.0600 
    215 H215       -2.1440  -25.7817  -51.1868 H         1 UNK         0.3000 
    216 H216       -1.8179  -23.4845  -52.9766 H         1 UNK         0.0600 
    217 H217       -1.0680  -22.3165  -50.9234 H         1 UNK         0.0600 
    218 H218       -0.1868  -23.8212  -51.1458 H         1 UNK         0.0600 
    219 H219       -1.4702  -23.7147  -49.9450 H         1 UNK         0.0600 
    220 H220       -4.0371  -24.5565  -50.3582 H         1 UNK         0.3000 
    221 H221       -5.6925  -22.2641  -50.2977 H         1 UNK         0.0600 
    222 H222       -6.4764  -25.1654  -49.7009 H         1 UNK         0.0600 
    223 H223       -5.6792  -24.0825  -48.5661 H         1 UNK         0.0600 
    224 H224       -7.2999  -23.7208  -49.1335 H         1 UNK         0.0600 
    225 H225       -5.8515  -25.1537  -52.3647 H         1 UNK         0.3000 
    226 H226       -8.2915  -24.6203  -53.6840 H         1 UNK         0.0600 
    227 H227       -7.4164  -26.2836  -55.3409 H         1 UNK         0.0600 
    228 H228       -5.8139  -26.1629  -54.6235 H         1 UNK         0.0600 
    229 H229       -7.1557  -26.8257  -53.6912 H         1 UNK         0.0600 
    230 H230       -5.3077  -22.9122  -54.0033 H         1 UNK         0.3000 
    231 H231       -6.3245  -21.3930  -56.3197 H         1 UNK         0.0600 
    232 H232       -3.5244  -22.6456  -56.2125 H         1 UNK         0.0600 
    233 H233       -4.1065  -21.5290  -57.4451 H         1 UNK         0.0600 
    234 H234       -4.8162  -23.1295  -57.3101 H         1 UNK         0.0600 
    235 H235       -6.5390  -20.7278  -53.6657 H         1 UNK         0.3000 
    236 H236       -4.4168  -19.3551  -52.4910 H         1 UNK         0.0600 
    237 H237       -6.4409  -20.0179  -51.2546 H         1 UNK         0.0600 
    238 H238       -6.2019  -18.2878  -51.0895 H         1 UNK         0.0600 
    239 H239       -7.4316  -18.8988  -52.1930 H         1 UNK         0.0600 
    240 H240       -3.6194  -17.2786  -52.5532 H         1 UNK         0.3000 
    241 H241       -4.6733  -15.4039  -54.5654 H         1 UNK         0.0600 
    242 H242       -4.1475  -15.3175  -51.4566 H         1 UNK         0.3800 
    243 H243       -3.3628  -13.7667  -51.3448 H         1 UNK         0.3800 
    244 H244       -2.7622  -15.4263  -55.9149 H         1 UNK         0.0800 
    245 H245       -3.1983  -17.0879  -55.7135 H         1 UNK         0.0800 
    246 H246       -0.2693  -18.5869  -53.6261 H         1 UNK         0.0800 
    247 H247       -2.0029  -18.6388  -53.8026 H         1 UNK         0.0800 
@<TRIPOS>BOND
     1    1    2 1    
     2    1  127 1    
     3    1  128 1    
     4    1  129 1    
     5    2    3 2    
     6    2    4 am   BACKBONE|DICT|INTERRES
     7    4    5 1    
     8    4  130 1    
     9    5    6 1    
    10    5   65 1    
    11    5  131 1    
    12    6    7 1    
    13    6  132 1    
    14    6  133 1    
    15    7    8 1    
    16    8    9 1    
    17    8  134 1    
    18    8  135 1    
    19    9   10 ar   
    20    9   14 ar   
    21   10   11 ar   
    22   10  136 1    
    23   11   12 ar   
    24   11  126 1    
    25   12   13 ar   
    26   12  137 1    
    27   13   14 ar   
    28   13   15 1    
    29   14  138 1    
    30   15   16 1    
    31   15  139 1    
    32   15  140 1    
    33   16   17 1    
    34   17   18 1    
    35   17  141 1    
    36   17  142 1    
    37   18   19 1    
    38   18   67 1    
    39   18  143 1    
    40   19   20 am   BACKBONE|DICT|INTERRES
    41   19  144 1    
    42   20   21 2    
    43   20   22 1    
    44   22   23 1    
    45   22   24 1    
    46   22  145 1    
    47   23  146 1    
    48   23  147 1    
    49   23  148 1    
    50   24   25 am   BACKBONE|DICT|INTERRES
    51   24  149 1    
    52   25   26 2    
    53   25   27 1    
    54   27   28 1    
    55   27   29 1    
    56   27  150 1    
    57   28  151 1    
    58   28  152 1    
    59   28  153 1    
    60   29   30 am   BACKBONE|DICT|INTERRES
    61   29  154 1    
    62   30   31 2    
    63   30   32 1    
    64   32   33 1    
    65   32   34 1    
    66   32  155 1    
    67   33  156 1    
    68   33  157 1    
    69   33  158 1    
    70   34   35 am   BACKBONE|DICT|INTERRES
    71   34  159 1    
    72   35   36 2    
    73   35   37 1    
    74   37   38 1    
    75   37   39 1    
    76   37  160 1    
    77   38  161 1    
    78   38  162 1    
    79   38  163 1    
    80   39   40 am   BACKBONE|DICT|INTERRES
    81   39  164 1    
    82   40   41 2    
    83   40   42 1    
    84   42   43 1    
    85   42   44 1    
    86   42  165 1    
    87   43  166 1    
    88   43  167 1    
    89   43  168 1    
    90   44   45 am   BACKBONE|DICT|INTERRES
    91   44  169 1    
    92   45   46 2    
    93   45   47 1    
    94   47   48 1    
    95   47   49 1    
    96   47  170 1    
    97   48  171 1    
    98   48  172 1    
    99   48  173 1    
   100   49   50 am   BACKBONE|DICT|INTERRES
   101   49  174 1    
   102   50   51 2    
   103   50   52 1    
   104   52   53 1    
   105   52   54 1    
   106   52  175 1    
   107   53  176 1    
   108   53  177 1    
   109   53  178 1    
   110   54   55 am   BACKBONE|DICT|INTERRES
   111   54  179 1    
   112   55   56 2    
   113   55   57 1    
   114   57   58 1    
   115   57   59 1    
   116   57  180 1    
   117   58  181 1    
   118   58  182 1    
   119   58  183 1    
   120   59   60 am   BACKBONE|DICT|INTERRES
   121   59  184 1    
   122   60   61 2    
   123   60   62 1    
   124   62   63 1    
   125   62   64 1    
   126   62  185 1    
   127   63  186 1    
   128   63  187 1    
   129   63  188 1    
   130   64   65 am   BACKBONE|DICT|INTERRES
   131   64  189 1    
   132   65   66 2    
   133   67   68 2    
   134   67   69 am   BACKBONE|DICT|INTERRES
   135   69   70 1    
   136   69  190 1    
   137   70   71 1    
   138   70   72 1    
   139   70  191 1    
   140   71  192 1    
   141   71  193 1    
   142   71  194 1    
   143   72   73 2    
   144   72   74 am   BACKBONE|DICT|INTERRES
   145   74   75 1    
   146   74  195 1    
   147   75   76 1    
   148   75   77 1    
   149   75  196 1    
   150   76  197 1    
   151   76  198 1    
   152   76  199 1    
   153   77   78 2    
   154   77   79 am   BACKBONE|DICT|INTERRES
   155   79   80 1    
   156   79  200 1    
   157   80   81 1    
   158   80   82 1    
   159   80  201 1    
   160   81  202 1    
   161   81  203 1    
   162   81  204 1    
   163   82   83 2    
   164   82   84 am   BACKBONE|DICT|INTERRES
   165   84   85 1    
   166   84  205 1    
   167   85   86 1    
   168   85   87 1    
   169   85  206 1    
   170   86  207 1    
   171   86  208 1    
   172   86  209 1    
   173   87   88 2    
   174   87   89 am   BACKBONE|DICT|INTERRES
   175   89   90 1    
   176   89  210 1    
   177   90   91 1    
   178   90   92 1    
   179   90  211 1    
   180   91  212 1    
   181   91  213 1    
   182   91  214 1    
   183   92   93 2    
   184   92   94 am   BACKBONE|DICT|INTERRES
   185   94   95 1    
   186   94  215 1    
   187   95   96 1    
   188   95   97 1    
   189   95  216 1    
   190   96  217 1    
   191   96  218 1    
   192   96  219 1    
   193   97   98 2    
   194   97   99 am   BACKBONE|DICT|INTERRES
   195   99  100 1    
   196   99  220 1    
   197  100  101 1    
   198  100  102 1    
   199  100  221 1    
   200  101  222 1    
   201  101  223 1    
   202  101  224 1    
   203  102  103 2    
   204  102  104 am   BACKBONE|DICT|INTERRES
   205  104  105 1    
   206  104  225 1    
   207  105  106 1    
   208  105  107 1    
   209  105  226 1    
   210  106  227 1    
   211  106  228 1    
   212  106  229 1    
   213  107  108 2    
   214  107  109 am   BACKBONE|DICT|INTERRES
   215  109  110 1    
   216  109  230 1    
   217  110  111 1    
   218  110  112 1    
   219  110  231 1    
   220  111  232 1    
   221  111  233 1    
   222  111  234 1    
   223  112  113 2    
   224  112  114 am   BACKBONE|DICT|INTERRES
   225  114  115 1    
   226  114  235 1    
   227  115  116 1    
   228  115  117 1    
   229  115  236 1    
   230  116  237 1    
   231  116  238 1    
   232  116  239 1    
   233  117  118 2    
   234  117  119 am   BACKBONE|DICT|INTERRES
   235  119  120 1    
   236  119  240 1    
   237  120  121 1    
   238  120  124 1    
   239  120  241 1    
   240  121  122 am   BACKBONE|DICT|INTERRES
   241  121  123 2    
   242  122  242 1    
   243  122  243 1    
   244  124  125 1    
   245  124  244 1    
   246  124  245 1    
   247  125  126 1    
   248  126  246 1    
   249  126  247 1    
@<TRIPOS>SUBSTRUCTURE
     1 UNK         1 GROUP             0       ****    0 ROOT    
