@<TRIPOS>MOLECULE
3R540
247   249    1
SMALL
USER_CHARGES


@<TRIPOS>ATOM
      1 CA          3.5176  -17.5244  -47.1557 C.3       0 UNK        -0.1800 
      2 C           3.3610  -16.2183  -47.9183 C.2       0 UNK         0.5000 
      3 O           3.7283  -15.1611  -47.4064 O.2       0 UNK        -0.5000 
      4 N           2.8274  -16.3014  -49.1450 N.am      1 UNK        -0.5000 
      5 CA          2.7657  -15.2308  -50.1498 C.3       1 UNK         0.1400 
      6 C6          4.1745  -14.8827  -50.7169 C.3       23 UNK        -0.0398 
      7 S7          4.7174  -15.9970  -52.0662 S.3       23 UNK        -0.2404 
      8 C8          5.1731  -17.5647  -51.2299 C.3       23 UNK        -0.0205 
      9 C9          4.0323  -18.5626  -50.9938 C.ar      23 UNK        -0.0193 
     10 C10         2.7418  -18.3680  -51.5017 C.ar      23 UNK        -0.1150 
     11 C11         1.6983  -19.2303  -51.1654 C.ar      23 UNK        -0.0193 
     12 C12         1.9616  -20.3628  -50.3947 C.ar      23 UNK        -0.1150 
     13 C13         3.2561  -20.6123  -49.9309 C.ar      23 UNK        -0.0193 
     14 C14         4.2799  -19.7022  -50.2196 C.ar      23 UNK        -0.1150 
     15 C15         3.5493  -21.8743  -49.1333 C.3       23 UNK        -0.0205 
     16 S16         3.7141  -21.5690  -47.3456 S.3       23 UNK        -0.2404 
     17 C17         2.0448  -21.0208  -46.8547 C.3       23 UNK        -0.0398 
     18 CA          1.0792  -22.1913  -46.5251 C.3       11 UNK         0.1400 
     19 N           0.2660  -21.9338  -45.3310 N.am      11 UNK        -0.5000 
     20 C          -0.5561  -22.8239  -44.7539 C.2       10 UNK         0.5000 
     21 O          -0.6850  -23.9859  -45.1396 O.2       10 UNK        -0.5000 
     22 CA         -1.4215  -22.3172  -43.5831 C.3       10 UNK         0.1400 
     23 CB         -0.6159  -22.2732  -42.2763 C.3       10 UNK        -0.1800 
     24 N          -2.0086  -21.0027  -43.8508 N.am      10 UNK        -0.5000 
     25 C          -2.8909  -20.7623  -44.8314 C.2       9 UNK         0.5000 
     26 O          -3.3589  -21.6357  -45.5611 O.2       9 UNK        -0.5000 
     27 CA         -3.2578  -19.2919  -45.0957 C.3       9 UNK         0.1400 
     28 CB         -4.3629  -18.8005  -44.1508 C.3       9 UNK        -0.1800 
     29 N          -2.0995  -18.4019  -45.0209 N.am      9 UNK        -0.5000 
     30 C          -1.0426  -18.4703  -45.8420 C.2       8 UNK         0.5000 
     31 O          -0.9733  -19.2309  -46.8031 O.2       8 UNK        -0.5000 
     32 CA          0.1644  -17.5867  -45.5066 C.3       8 UNK         0.1400 
     33 CB          0.0145  -16.1954  -46.1395 C.3       8 UNK        -0.1800 
     34 N           0.3893  -17.5019  -44.0615 N.am      8 UNK        -0.5000 
     35 C           0.8490  -18.5277  -43.3261 C.2       7 UNK         0.5000 
     36 O           1.2064  -19.5981  -43.8140 O.2       7 UNK        -0.5000 
     37 CA          0.8524  -18.3733  -41.7945 C.3       7 UNK         0.1400 
     38 CB          2.2172  -17.9088  -41.2708 C.3       7 UNK        -0.1800 
     39 N          -0.1956  -17.4680  -41.3286 N.am      7 UNK        -0.5000 
     40 C          -1.4906  -17.8092  -41.2739 C.2       6 UNK         0.5000 
     41 O          -1.9080  -18.9329  -41.5564 O.2       6 UNK        -0.5000 
     42 CA         -2.4890  -16.6970  -40.8993 C.3       6 UNK         0.1400 
     43 CB         -2.6667  -16.6208  -39.3760 C.3       6 UNK        -0.1800 
     44 N          -2.1010  -15.3788  -41.4089 N.am      6 UNK        -0.5000 
     45 C          -1.9693  -15.0725  -42.7067 C.2       5 UNK         0.5000 
     46 O          -2.1910  -15.8770  -43.6112 O.2       5 UNK        -0.5000 
     47 CA         -1.4828  -13.6544  -43.0661 C.3       5 UNK         0.1400 
     48 CB         -1.6350  -12.6330  -41.9174 C.3       5 UNK        -0.1800 
     49 N          -0.1062  -13.6410  -43.5749 N.am      5 UNK        -0.5000 
     50 C           1.0026  -14.0773  -42.9530 C.2       4 UNK         0.5000 
     51 O           0.9799  -14.6802  -41.8793 O.2       4 UNK        -0.5000 
     52 CA          2.3698  -13.7978  -43.6224 C.3       4 UNK         0.1400 
     53 CB          3.1578  -15.0891  -43.8912 C.3       4 UNK        -0.1800 
     54 N           2.2709  -13.0397  -44.8705 N.am      4 UNK        -0.5000 
     55 C           2.1012  -11.7127  -44.9431 C.2       3 UNK         0.5000 
     56 O           2.0428  -10.9764  -43.9578 O.2       3 UNK        -0.5000 
     57 CA          1.9457  -11.1055  -46.3498 C.3       3 UNK         0.1400 
     58 CB          3.3010  -10.6020  -46.8684 C.3       3 UNK        -0.1800 
     59 N           1.3712  -12.0155  -47.3434 N.am      3 UNK        -0.5000 
     60 C           0.1674  -12.5970  -47.2925 C.2       2 UNK         0.5000 
     61 O          -0.5919  -12.4993  -46.3280 O.2       2 UNK        -0.5000 
     62 CA         -0.2601  -13.4466  -48.5063 C.3       2 UNK         0.1400 
     63 CB         -0.8769  -12.5635  -49.6061 C.3       2 UNK        -0.1800 
     64 N           0.7804  -14.3284  -49.0564 N.am      2 UNK        -0.5000 
     65 C           1.9405  -14.0205  -49.6572 C.2       1 UNK         0.5000 
     66 O           2.3507  -12.8693  -49.8148 O.2       1 UNK        -0.5000 
     67 C           0.2012  -22.5431  -47.7429 C.2       11 UNK         0.5000 
     68 O           0.4542  -23.5469  -48.4046 O.2       11 UNK        -0.5000 
     69 N          -0.8333  -21.7295  -47.9940 N.am      12 UNK        -0.5000 
     70 CA         -1.8154  -21.9046  -49.0628 C.3       12 UNK         0.1400 
     71 CB         -2.7659  -20.6979  -49.0741 C.3       12 UNK        -0.1800 
     72 C          -2.5985  -23.2235  -48.9487 C.2       12 UNK         0.5000 
     73 O          -2.8060  -23.8902  -49.9622 O.2       12 UNK        -0.5000 
     74 N          -2.9804  -23.5981  -47.7199 N.am      13 UNK        -0.5000 
     75 CA         -3.6201  -24.8758  -47.4095 C.3       13 UNK         0.1400 
     76 CB         -4.1282  -24.8643  -45.9600 C.3       13 UNK        -0.1800 
     77 C          -2.6889  -26.0766  -47.6590 C.2       13 UNK         0.5000 
     78 O          -3.1208  -27.0568  -48.2658 O.2       13 UNK        -0.5000 
     79 N          -1.4254  -25.9674  -47.2228 N.am      14 UNK        -0.5000 
     80 CA         -0.3849  -26.9798  -47.4234 C.3       14 UNK         0.1400 
     81 CB          0.8465  -26.6246  -46.5761 C.3       14 UNK        -0.1800 
     82 C           0.0031  -27.1596  -48.9038 C.2       14 UNK         0.5000 
     83 O           0.1929  -28.2911  -49.3515 O.2       14 UNK        -0.5000 
     84 N           0.0872  -26.0440  -49.6399 N.am      15 UNK        -0.5000 
     85 CA          0.3595  -25.9956  -51.0777 C.3       15 UNK         0.1400 
     86 CB          0.7733  -24.5630  -51.4535 C.3       15 UNK        -0.1800 
     87 C          -0.8305  -26.4478  -51.9475 C.2       15 UNK         0.5000 
     88 O          -0.6310  -26.7267  -53.1305 O.2       15 UNK        -0.5000 
     89 N          -2.0343  -26.4930  -51.3569 N.am      16 UNK        -0.5000 
     90 CA         -3.3305  -26.7648  -51.9838 C.3       16 UNK         0.1400 
     91 CB         -3.4032  -28.2145  -52.5074 C.3       16 UNK        -0.1800 
     92 C          -3.6831  -25.7045  -53.0476 C.2       16 UNK         0.5000 
     93 O          -4.0435  -26.0424  -54.1776 O.2       16 UNK        -0.5000 
     94 N          -3.5424  -24.4302  -52.6596 N.am      17 UNK        -0.5000 
     95 CA         -3.8530  -23.2552  -53.4720 C.3       17 UNK         0.1400 
     96 CB         -3.3254  -22.0063  -52.7486 C.3       17 UNK        -0.1800 
     97 C          -5.3614  -23.1125  -53.7576 C.2       17 UNK         0.5000 
     98 O          -6.1930  -23.6843  -53.0478 O.2       17 UNK        -0.5000 
     99 N          -5.6834  -22.3203  -54.7876 N.am      18 UNK        -0.5000 
    100 CA        -7.0472  -22.0718  -55.2638 C.3       18 UNK         0.1400 
    101 CB        -6.9701  -21.3920  -56.6403 C.3       18 UNK        -0.1800 
    102 C         -7.9228  -21.2399  -54.3034 C.2       18 UNK         0.5000 
    103 O         -9.1466  -21.2576  -54.4458 O.2       18 UNK        -0.5000 
    104 N         -7.3018  -20.5261  -53.3576 N.am      19 UNK        -0.5000 
    105 CA        -7.9666  -19.7034  -52.3544 C.3       19 UNK         0.1400 
    106 CB        -8.2172  -18.2965  -52.9246 C.3       19 UNK        -0.1800 
    107 C         -7.1029  -19.6392  -51.0884 C.2       19 UNK         0.5000 
    108 O         -5.8832  -19.8188  -51.1617 O.2       19 UNK        -0.5000 
    109 N         -7.7556  -19.3597  -49.9530 N.am      20 UNK        -0.5000 
    110 CA        -7.1179  -19.1202  -48.6589 C.3       20 UNK         0.1400 
    111 CB        -8.1963  -19.0734  -47.5662 C.3       20 UNK        -0.1800 
    112 C         -6.3000  -17.8162  -48.6669 C.2       20 UNK         0.5000 
    113 O         -6.6465  -16.8760  -49.3875 O.2       20 UNK        -0.5000 
    114 N         -5.2128  -17.8015  -47.8826 N.am      21 UNK        -0.5000 
    115 CA        -4.2179  -16.7209  -47.7798 C.3       21 UNK         0.1400 
    116 CB        -4.8095  -15.5045  -47.0403 C.3       21 UNK        -0.1800 
    117 C         -3.5786  -16.3509  -49.1366 C.2       21 UNK         0.5000 
    118 O         -3.2052  -15.1979  -49.3514 O.2       21 UNK        -0.5000 
    119 N         -3.4899  -17.3489  -50.0262 N.am      22 UNK        -0.5000 
    120 CA        -3.0315  -17.2557  -51.4205 C.3       22 UNK         0.1400 
    121 C         -4.0201  -16.5139  -52.3731 C.2       22 UNK         0.5000 
    122 N         -5.2495  -16.2146  -51.9677 N.am      22 UNK        -0.7600 
    123 O         -3.6778  -16.2257  -53.5167 O.2       22 UNK        -0.5000 
    124 C124       -1.5721  -16.7378  -51.5651 C.3       23 UNK        -0.0398 
    125 S125       -0.3788  -17.6001  -50.4840 S.3       23 UNK        -0.2404 
    126 C126        0.2845  -18.8833  -51.5923 C.3       23 UNK        -0.0205 
    127 H127        2.8786  -18.3030  -47.5698 H         1 UNK         0.0600 
    128 H128        3.2671  -17.3914  -46.1043 H         1 UNK         0.0600 
    129 H129        4.5501  -17.8678  -47.2159 H         1 UNK         0.0600 
    130 H130        2.5453  -17.2102  -49.4886 H         1 UNK         0.3000 
    131 H131        2.1661  -15.6159  -50.9741 H         1 UNK         0.0600 
    132 H132        4.9299  -14.8588  -49.9307 H         1 UNK         0.0800 
    133 H133        4.1849  -13.8849  -51.1572 H         1 UNK         0.0800 
    134 H134        5.6513  -17.3292  -50.2780 H         1 UNK         0.0800 
    135 H135        5.9300  -18.0601  -51.8392 H         1 UNK         0.0800 
    136 H136        2.5148  -17.5145  -52.1212 H         1 UNK         0.1150 
    137 H137        1.1588  -21.0434  -50.1503 H         1 UNK         0.1150 
    138 H138        5.2742  -19.8824  -49.8350 H         1 UNK         0.1150 
    139 H139        2.7819  -22.6284  -49.3073 H         1 UNK         0.0800 
    140 H140        4.4803  -22.3126  -49.4953 H         1 UNK         0.0800 
    141 H141        1.6319  -20.3323  -47.5933 H         1 UNK         0.0800 
    142 H142        2.2063  -20.4097  -45.9689 H         1 UNK         0.0800 
    143 H143        1.6728  -23.0778  -46.2914 H         1 UNK         0.0600 
    144 H144        0.3567  -21.0146  -44.9109 H         1 UNK         0.3000 
    145 H145       -2.2426  -23.0244  -43.4479 H         1 UNK         0.0600 
    146 H146       -1.2326  -21.9349  -41.4433 H         1 UNK         0.0600 
    147 H147        0.2423  -21.6064  -42.3499 H         1 UNK         0.0600 
    148 H148       -0.2377  -23.2638  -42.0211 H         1 UNK         0.0600 
    149 H149       -1.7153  -20.2348  -43.2585 H         1 UNK         0.3000 
    150 H150       -3.6428  -19.2442  -46.1135 H         1 UNK         0.0600 
    151 H151       -5.2571  -19.4181  -44.2430 H         1 UNK         0.0600 
    152 H152       -4.6500  -17.7740  -44.3804 H         1 UNK         0.0600 
    153 H153       -4.0494  -18.8337  -43.1080 H         1 UNK         0.0600 
    154 H154       -2.1073  -17.6873  -44.2989 H         1 UNK         0.3000 
    155 H155        1.0349  -18.0628  -45.9570 H         1 UNK         0.0600 
    156 H156       -0.8354  -15.6442  -45.7408 H         1 UNK         0.0600 
    157 H157       -0.1423  -16.2898  -47.2140 H         1 UNK         0.0600 
    158 H158        0.9058  -15.5876  -45.9973 H         1 UNK         0.0600 
    159 H159        0.0383  -16.6819  -43.5882 H         1 UNK         0.3000 
    160 H160        0.6668  -19.3638  -41.3738 H         1 UNK         0.0600 
    161 H161        2.4187  -16.8730  -41.5317 H         1 UNK         0.0600 
    162 H162        3.0252  -18.5185  -41.6774 H         1 UNK         0.0600 
    163 H163        2.2645  -17.9889  -40.1848 H         1 UNK         0.0600 
    164 H164        0.0759  -16.5096  -41.1387 H         1 UNK         0.3000 
    165 H165       -3.4521  -16.9563  -41.3439 H         1 UNK         0.0600 
    166 H166       -3.4328  -15.8946  -39.1039 H         1 UNK         0.0600 
    167 H167       -2.9760  -17.5852  -38.9705 H         1 UNK         0.0600 
    168 H168       -1.7401  -16.3360  -38.8760 H         1 UNK         0.0600 
    169 H169       -1.8743  -14.6739  -40.7226 H         1 UNK         0.3000 
    170 H170       -2.1159  -13.3192  -43.8891 H         1 UNK         0.0600 
    171 H171       -2.6622  -12.6006  -41.5517 H         1 UNK         0.0600 
    172 H172       -0.9851  -12.8587  -41.0713 H         1 UNK         0.0600 
    173 H173       -1.3865  -11.6284  -42.2601 H         1 UNK         0.0600 
    174 H174       -0.0005  -13.1983  -44.4816 H         1 UNK         0.3000 
    175 H175        2.9513  -13.2064  -42.9121 H         1 UNK         0.0600 
    176 H176        2.5691  -15.8242  -44.4352 H         1 UNK         0.0600 
    177 H177        4.0596  -14.8907  -44.4710 H         1 UNK         0.0600 
    178 H178        3.4812  -15.5464  -42.9580 H         1 UNK         0.0600 
    179 H179        2.3387  -13.5633  -45.7326 H         1 UNK         0.3000 
    180 H180        1.2721  -10.2508  -46.2619 H         1 UNK         0.0600 
    181 H181        3.1909  -10.0833  -47.8210 H         1 UNK         0.0600 
    182 H182        4.0037  -11.4236  -47.0137 H         1 UNK         0.0600 
    183 H183        3.7540   -9.9001  -46.1669 H         1 UNK         0.0600 
    184 H184        1.9173  -12.1735  -48.1877 H         1 UNK         0.3000 
    185 H185       -1.0470  -14.1119  -48.1488 H         1 UNK         0.0600 
    186 H186       -0.1548  -11.8592  -50.0198 H         1 UNK         0.0600 
    187 H187       -1.2634  -13.1706  -50.4248 H         1 UNK         0.0600 
    188 H188       -1.7122  -11.9824  -49.2134 H         1 UNK         0.0600 
    189 H189        0.5746  -15.3143  -48.9778 H         1 UNK         0.3000 
    190 H190       -0.9422  -20.8906  -47.4257 H         1 UNK         0.3000 
    191 H191       -1.2742  -21.9224  -50.0106 H         1 UNK         0.0600 
    192 H192       -2.2142  -19.7741  -49.2449 H         1 UNK         0.0600 
    193 H193       -3.2992  -20.5996  -48.1293 H         1 UNK         0.0600 
    194 H194       -3.5139  -20.7822  -49.8610 H         1 UNK         0.0600 
    195 H195       -2.8224  -22.9657  -46.9413 H         1 UNK         0.3000 
    196 H196       -4.4844  -24.9843  -48.0682 H         1 UNK         0.0600 
    197 H197       -4.8526  -24.0647  -45.8041 H         1 UNK         0.0600 
    198 H198       -3.3158  -24.7209  -45.2475 H         1 UNK         0.0600 
    199 H199       -4.6222  -25.8043  -45.7114 H         1 UNK         0.0600 
    200 H200       -1.1562  -25.1381  -46.7016 H         1 UNK         0.3000 
    201 H201       -0.7761  -27.9347  -47.0664 H         1 UNK         0.0600 
    202 H202        0.5940  -26.5741  -45.5169 H         1 UNK         0.0600 
    203 H203        1.2706  -25.6622  -46.8637 H         1 UNK         0.0600 
    204 H204        1.6290  -27.3759  -46.6892 H         1 UNK         0.0600 
    205 H205       -0.0033  -25.1452  -49.1695 H         1 UNK         0.3000 
    206 H206        1.1968  -26.6625  -51.2924 H         1 UNK         0.0600 
    207 H207       -0.0245  -23.8486  -51.2458 H         1 UNK         0.0600 
    208 H208        1.6572  -24.2491  -50.8985 H         1 UNK         0.0600 
    209 H209        1.0136  -24.4877  -52.5147 H         1 UNK         0.0600 
    210 H210       -2.0791  -26.2095  -50.3870 H         1 UNK         0.3000 
    211 H211       -4.0760  -26.6645  -51.1936 H         1 UNK         0.0600 
    212 H212       -2.7175  -28.3850  -53.3375 H         1 UNK         0.0600 
    213 H213       -4.4076  -28.4491  -52.8614 H         1 UNK         0.0600 
    214 H214       -3.1614  -28.9287  -51.7201 H         1 UNK         0.0600 
    215 H215       -3.2606  -24.2499  -51.6979 H         1 UNK         0.3000 
    216 H216       -3.3283  -23.3586  -54.4239 H         1 UNK         0.0600 
    217 H217       -3.4446  -21.1114  -53.3603 H         1 UNK         0.0600 
    218 H218       -2.2654  -22.0999  -52.5114 H         1 UNK         0.0600 
    219 H219       -3.8666  -21.8396  -51.8180 H         1 UNK         0.0600 
    220 H220       -4.9433  -21.8739  -55.3100 H         1 UNK         0.3000 
    221 H221       -7.5392  -23.0386  -55.3902 H         1 UNK         0.0600 
    222 H222       -6.4703  -20.4242  -56.5829 H         1 UNK         0.0600 
    223 H223       -6.4281  -22.0097  -57.3568 H         1 UNK         0.0600 
    224 H224       -7.9667  -21.2223  -57.0502 H         1 UNK         0.0600 
    225 H225       -6.2982  -20.5952  -53.2523 H         1 UNK         0.3000 
    226 H226       -8.9213  -20.1602  -52.0844 H         1 UNK         0.0600 
    227 H227       -8.8929  -18.3313  -53.7793 H         1 UNK         0.0600 
    228 H228       -8.6703  -17.6421  -52.1788 H         1 UNK         0.0600 
    229 H229       -7.2884  -17.8287  -53.2523 H         1 UNK         0.0600 
    230 H230       -8.7499  -19.1909  -49.9939 H         1 UNK         0.3000 
    231 H231       -6.4462  -19.9566  -48.4530 H         1 UNK         0.0600 
    232 H232       -7.7506  -18.9255  -46.5816 H         1 UNK         0.0600 
    233 H233       -8.7612  -20.0051  -47.5287 H         1 UNK         0.0600 
    234 H234       -8.9022  -18.2585  -47.7322 H         1 UNK         0.0600 
    235 H235       -5.0227  -18.6223  -47.3283 H         1 UNK         0.3000 
    236 H236       -3.4002  -17.1025  -47.1703 H         1 UNK         0.0600 
    237 H237       -5.5992  -15.0246  -47.6191 H         1 UNK         0.0600 
    238 H238       -5.2274  -15.7952  -46.0766 H         1 UNK         0.0600 
    239 H239       -4.0425  -14.7540  -46.8448 H         1 UNK         0.0600 
    240 H240       -3.8592  -18.2494  -49.7613 H         1 UNK         0.3000 
    241 H241       -3.0355  -18.2853  -51.7801 H         1 UNK         0.0600 
    242 H242       -5.8695  -15.7353  -52.5997 H         1 UNK         0.3800 
    243 H243       -5.5706  -16.4482  -51.0343 H         1 UNK         0.3800 
    244 H244       -1.5246  -15.6746  -51.3267 H         1 UNK         0.0800 
    245 H245       -1.2387  -16.8182  -52.6005 H         1 UNK         0.0800 
    246 H246        0.2966  -18.5346  -52.6256 H         1 UNK         0.0800 
    247 H247       -0.3632  -19.7609  -51.5630 H         1 UNK         0.0800 
@<TRIPOS>BOND
     1    1    2 1    
     2    1  127 1    
     3    1  128 1    
     4    1  129 1    
     5    2    3 2    
     6    2    4 am   BACKBONE|DICT|INTERRES
     7    4    5 1    
     8    4  130 1    
     9    5    6 1    
    10    5   65 1    
    11    5  131 1    
    12    6    7 1    
    13    6  132 1    
    14    6  133 1    
    15    7    8 1    
    16    8    9 1    
    17    8  134 1    
    18    8  135 1    
    19    9   10 ar   
    20    9   14 ar   
    21   10   11 ar   
    22   10  136 1    
    23   11   12 ar   
    24   11  126 1    
    25   12   13 ar   
    26   12  137 1    
    27   13   14 ar   
    28   13   15 1    
    29   14  138 1    
    30   15   16 1    
    31   15  139 1    
    32   15  140 1    
    33   16   17 1    
    34   17   18 1    
    35   17  141 1    
    36   17  142 1    
    37   18   19 1    
    38   18   67 1    
    39   18  143 1    
    40   19   20 am   BACKBONE|DICT|INTERRES
    41   19  144 1    
    42   20   21 2    
    43   20   22 1    
    44   22   23 1    
    45   22   24 1    
    46   22  145 1    
    47   23  146 1    
    48   23  147 1    
    49   23  148 1    
    50   24   25 am   BACKBONE|DICT|INTERRES
    51   24  149 1    
    52   25   26 2    
    53   25   27 1    
    54   27   28 1    
    55   27   29 1    
    56   27  150 1    
    57   28  151 1    
    58   28  152 1    
    59   28  153 1    
    60   29   30 am   BACKBONE|DICT|INTERRES
    61   29  154 1    
    62   30   31 2    
    63   30   32 1    
    64   32   33 1    
    65   32   34 1    
    66   32  155 1    
    67   33  156 1    
    68   33  157 1    
    69   33  158 1    
    70   34   35 am   BACKBONE|DICT|INTERRES
    71   34  159 1    
    72   35   36 2    
    73   35   37 1    
    74   37   38 1    
    75   37   39 1    
    76   37  160 1    
    77   38  161 1    
    78   38  162 1    
    79   38  163 1    
    80   39   40 am   BACKBONE|DICT|INTERRES
    81   39  164 1    
    82   40   41 2    
    83   40   42 1    
    84   42   43 1    
    85   42   44 1    
    86   42  165 1    
    87   43  166 1    
    88   43  167 1    
    89   43  168 1    
    90   44   45 am   BACKBONE|DICT|INTERRES
    91   44  169 1    
    92   45   46 2    
    93   45   47 1    
    94   47   48 1    
    95   47   49 1    
    96   47  170 1    
    97   48  171 1    
    98   48  172 1    
    99   48  173 1    
   100   49   50 am   BACKBONE|DICT|INTERRES
   101   49  174 1    
   102   50   51 2    
   103   50   52 1    
   104   52   53 1    
   105   52   54 1    
   106   52  175 1    
   107   53  176 1    
   108   53  177 1    
   109   53  178 1    
   110   54   55 am   BACKBONE|DICT|INTERRES
   111   54  179 1    
   112   55   56 2    
   113   55   57 1    
   114   57   58 1    
   115   57   59 1    
   116   57  180 1    
   117   58  181 1    
   118   58  182 1    
   119   58  183 1    
   120   59   60 am   BACKBONE|DICT|INTERRES
   121   59  184 1    
   122   60   61 2    
   123   60   62 1    
   124   62   63 1    
   125   62   64 1    
   126   62  185 1    
   127   63  186 1    
   128   63  187 1    
   129   63  188 1    
   130   64   65 am   BACKBONE|DICT|INTERRES
   131   64  189 1    
   132   65   66 2    
   133   67   68 2    
   134   67   69 am   BACKBONE|DICT|INTERRES
   135   69   70 1    
   136   69  190 1    
   137   70   71 1    
   138   70   72 1    
   139   70  191 1    
   140   71  192 1    
   141   71  193 1    
   142   71  194 1    
   143   72   73 2    
   144   72   74 am   BACKBONE|DICT|INTERRES
   145   74   75 1    
   146   74  195 1    
   147   75   76 1    
   148   75   77 1    
   149   75  196 1    
   150   76  197 1    
   151   76  198 1    
   152   76  199 1    
   153   77   78 2    
   154   77   79 am   BACKBONE|DICT|INTERRES
   155   79   80 1    
   156   79  200 1    
   157   80   81 1    
   158   80   82 1    
   159   80  201 1    
   160   81  202 1    
   161   81  203 1    
   162   81  204 1    
   163   82   83 2    
   164   82   84 am   BACKBONE|DICT|INTERRES
   165   84   85 1    
   166   84  205 1    
   167   85   86 1    
   168   85   87 1    
   169   85  206 1    
   170   86  207 1    
   171   86  208 1    
   172   86  209 1    
   173   87   88 2    
   174   87   89 am   BACKBONE|DICT|INTERRES
   175   89   90 1    
   176   89  210 1    
   177   90   91 1    
   178   90   92 1    
   179   90  211 1    
   180   91  212 1    
   181   91  213 1    
   182   91  214 1    
   183   92   93 2    
   184   92   94 am   BACKBONE|DICT|INTERRES
   185   94   95 1    
   186   94  215 1    
   187   95   96 1    
   188   95   97 1    
   189   95  216 1    
   190   96  217 1    
   191   96  218 1    
   192   96  219 1    
   193   97   98 2    
   194   97   99 am   BACKBONE|DICT|INTERRES
   195   99  100 1    
   196   99  220 1    
   197  100  101 1    
   198  100  102 1    
   199  100  221 1    
   200  101  222 1    
   201  101  223 1    
   202  101  224 1    
   203  102  103 2    
   204  102  104 am   BACKBONE|DICT|INTERRES
   205  104  105 1    
   206  104  225 1    
   207  105  106 1    
   208  105  107 1    
   209  105  226 1    
   210  106  227 1    
   211  106  228 1    
   212  106  229 1    
   213  107  108 2    
   214  107  109 am   BACKBONE|DICT|INTERRES
   215  109  110 1    
   216  109  230 1    
   217  110  111 1    
   218  110  112 1    
   219  110  231 1    
   220  111  232 1    
   221  111  233 1    
   222  111  234 1    
   223  112  113 2    
   224  112  114 am   BACKBONE|DICT|INTERRES
   225  114  115 1    
   226  114  235 1    
   227  115  116 1    
   228  115  117 1    
   229  115  236 1    
   230  116  237 1    
   231  116  238 1    
   232  116  239 1    
   233  117  118 2    
   234  117  119 am   BACKBONE|DICT|INTERRES
   235  119  120 1    
   236  119  240 1    
   237  120  121 1    
   238  120  124 1    
   239  120  241 1    
   240  121  122 am   BACKBONE|DICT|INTERRES
   241  121  123 2    
   242  122  242 1    
   243  122  243 1    
   244  124  125 1    
   245  124  244 1    
   246  124  245 1    
   247  125  126 1    
   248  126  246 1    
   249  126  247 1    
@<TRIPOS>SUBSTRUCTURE
     1 UNK         1 GROUP             0       ****    0 ROOT    
