@<TRIPOS>MOLECULE
3R540
247   249    1
SMALL
USER_CHARGES


@<TRIPOS>ATOM
      1 CA          5.3371  -19.4828  -49.6403 C.3       0 UNK        -0.1800 
      2 C           4.0943  -19.1084  -48.8463 C.2       0 UNK         0.5000 
      3 O           4.1029  -19.1867  -47.6172 O.2       0 UNK        -0.5000 
      4 N           3.0227  -18.7043  -49.5396 N.am      1 UNK        -0.5000 
      5 CA          1.7750  -18.2468  -48.9280 C.3       1 UNK         0.1400 
      6 C6          0.6005  -18.2104  -49.9342 C.3       23 UNK        -0.0398 
      7 S7          0.8362  -17.1773  -51.4248 S.3       23 UNK        -0.2404 
      8 C8         -0.0079  -15.6203  -50.9818 C.3       23 UNK        -0.0205 
      9 C9         -1.5279  -15.7299  -50.9947 C.ar      23 UNK        -0.0193 
     10 C10        -2.2449  -15.4946  -52.1735 C.ar      23 UNK        -0.1150 
     11 C11        -3.6449  -15.5285  -52.1775 C.ar      23 UNK        -0.0193 
     12 C12        -4.3233  -15.8308  -50.9940 C.ar      23 UNK        -0.1150 
     13 C13        -3.6190  -16.0788  -49.8128 C.ar      23 UNK        -0.0193 
     14 C14        -2.2238  -16.0089  -49.8149 C.ar      23 UNK        -0.1150 
     15 C15        -4.3710  -16.4071  -48.5342 C.3       23 UNK        -0.0205 
     16 S16        -4.2828  -18.1842  -48.1543 S.3       23 UNK        -0.2404 
     17 C17        -3.0063  -18.2407  -46.8429 C.3       23 UNK        -0.0398 
     18 CA         -1.9795  -19.3966  -46.9589 C.3       11 UNK         0.1400 
     19 N          -1.0488  -19.4017  -45.8258 N.am      11 UNK        -0.5000 
     20 C          -0.0075  -20.2339  -45.6727 C.2       10 UNK         0.5000 
     21 O           0.3612  -21.0345  -46.5311 O.2       10 UNK        -0.5000 
     22 CA          0.7137  -20.1926  -44.3131 C.3       10 UNK         0.1400 
     23 CB          1.7051  -19.0219  -44.2491 C.3       10 UNK        -0.1800 
     24 N          -0.2190  -20.1211  -43.1851 N.am      10 UNK        -0.5000 
     25 C          -1.1021  -21.0840  -42.8792 C.2       9 UNK         0.5000 
     26 O          -1.1856  -22.1520  -43.4824 O.2       9 UNK        -0.5000 
     27 CA         -2.1018  -20.7819  -41.7526 C.3       9 UNK         0.1400 
     28 CB         -1.4713  -21.0187  -40.3722 C.3       9 UNK        -0.1800 
     29 N          -2.6199  -19.4177  -41.8462 N.am      9 UNK        -0.5000 
     30 C          -3.4632  -19.0011  -42.8020 C.2       8 UNK         0.5000 
     31 O          -3.9091  -19.7335  -43.6851 O.2       8 UNK        -0.5000 
     32 CA         -3.8369  -17.5073  -42.7982 C.3       8 UNK         0.1400 
     33 CB         -5.0085  -17.2460  -41.8406 C.3       8 UNK        -0.1800 
     34 N          -2.7127  -16.6441  -42.4360 N.am      8 UNK        -0.5000 
     35 C          -1.5968  -16.5008  -43.1639 C.2       7 UNK         0.5000 
     36 O          -1.4069  -17.0541  -44.2473 O.2       7 UNK        -0.5000 
     37 CA         -0.4800  -15.6403  -42.5481 C.3       7 UNK         0.1400 
     38 CB         -0.6619  -14.1629  -42.9217 C.3       7 UNK        -0.1800 
     39 N          -0.3711  -15.7681  -41.0937 N.am      7 UNK        -0.5000 
     40 C          -0.1022  -16.9086  -40.4457 C.2       6 UNK         0.5000 
     41 O           0.0034  -17.9998  -41.0099 O.2       6 UNK        -0.5000 
     42 CA          0.1448  -16.7836  -38.9302 C.3       6 UNK         0.1400 
     43 CB          0.1676  -18.1488  -38.2208 C.3       6 UNK        -0.1800 
     44 N           1.4261  -16.1170  -38.7160 N.am      6 UNK        -0.5000 
     45 C           1.6260  -14.7920  -38.7508 C.2       5 UNK         0.5000 
     46 O           0.7154  -13.9630  -38.7789 O.2       5 UNK        -0.5000 
     47 CA          3.0933  -14.3284  -38.8536 C.3       5 UNK         0.1400 
     48 CB          3.7188  -14.1846  -37.4581 C.3       5 UNK        -0.1800 
     49 N           3.9068  -15.2437  -39.6632 N.am      5 UNK        -0.5000 
     50 C           3.7107  -15.4732  -40.9698 C.2       4 UNK         0.5000 
     51 O           2.8915  -14.8593  -41.6575 O.2       4 UNK        -0.5000 
     52 CA          4.5140  -16.6352  -41.5793 C.3       4 UNK         0.1400 
     53 CB          3.9110  -17.9793  -41.1369 C.3       4 UNK        -0.1800 
     54 N           4.5076  -16.5773  -43.0404 N.am      4 UNK        -0.5000 
     55 C           5.3127  -15.7981  -43.7732 C.2       3 UNK         0.5000 
     56 O           6.2026  -15.0924  -43.2959 O.2       3 UNK        -0.5000 
     57 CA          5.0972  -15.8174  -45.2977 C.3       3 UNK         0.1400 
     58 CB          5.9999  -16.8729  -45.9545 C.3       3 UNK        -0.1800 
     59 N           3.7078  -16.0743  -45.6832 N.am      3 UNK        -0.5000 
     60 C           2.7259  -15.1612  -45.6331 C.2       2 UNK         0.5000 
     61 O           2.8894  -14.0211  -45.1974 O.2       2 UNK        -0.5000 
     62 CA          1.3309  -15.5838  -46.1565 C.3       2 UNK         0.1400 
     63 CB          0.5698  -14.4209  -46.8270 C.3       2 UNK        -0.1800 
     64 N           1.3271  -16.7660  -47.0296 N.am      2 UNK        -0.5000 
     65 C           1.9662  -16.9004  -48.2014 C.2       1 UNK         0.5000 
     66 O           2.6772  -16.0280  -48.7045 O.2       1 UNK        -0.5000 
     67 C          -2.6475  -20.7743  -47.1458 C.2       11 UNK         0.5000 
     68 O          -2.5928  -21.3149  -48.2501 O.2       11 UNK        -0.5000 
     69 N          -3.2215  -21.3265  -46.0675 N.am      12 UNK        -0.5000 
     70 CA         -3.8793  -22.6330  -46.0591 C.3       12 UNK         0.1400 
     71 CB         -4.5870  -22.8445  -44.7123 C.3       12 UNK        -0.1800 
     72 C          -2.9214  -23.7994  -46.3626 C.2       12 UNK         0.5000 
     73 O          -3.2706  -24.6711  -47.1584 O.2       12 UNK        -0.5000 
     74 N          -1.7297  -23.7839  -45.7486 N.am      13 UNK        -0.5000 
     75 CA         -0.6882  -24.7995  -45.9179 C.3       13 UNK         0.1400 
     76 CB          0.4335  -24.5643  -44.8950 C.3       13 UNK        -0.1800 
     77 C          -0.1155  -24.8447  -47.3448 C.2       13 UNK         0.5000 
     78 O           0.0736  -25.9331  -47.8892 O.2       13 UNK        -0.5000 
     79 N           0.1297  -23.6656  -47.9313 N.am      14 UNK        -0.5000 
     80 CA          0.6060  -23.5183  -49.3073 C.3       14 UNK         0.1400 
     81 CB          1.2933  -22.1500  -49.4420 C.3       14 UNK        -0.1800 
     82 C          -0.5187  -23.6490  -50.3531 C.2       14 UNK         0.5000 
     83 O          -0.2197  -23.7551  -51.5426 O.2       14 UNK        -0.5000 
     84 N          -1.7820  -23.5632  -49.9115 N.am      15 UNK        -0.5000 
     85 CA         -3.0052  -23.4510  -50.7138 C.3       15 UNK         0.1400 
     86 CB         -3.2947  -24.7671  -51.4634 C.3       15 UNK        -0.1800 
     87 C          -2.9677  -22.2228  -51.6469 C.2       15 UNK         0.5000 
     88 O          -3.3533  -22.3212  -52.8125 O.2       15 UNK        -0.5000 
     89 N          -2.4708  -21.0952  -51.1177 N.am      16 UNK        -0.5000 
     90 CA         -2.1380  -19.8529  -51.8288 C.3       16 UNK         0.1400 
     91 CB         -3.3968  -19.1281  -52.3243 C.3       16 UNK        -0.1800 
     92 C          -1.0798  -20.0507  -52.9381 C.2       16 UNK         0.5000 
     93 O          -1.1693  -19.4356  -54.0001 O.2       16 UNK        -0.5000 
     94 N          -0.1005  -20.9247  -52.6607 N.am      17 UNK        -0.5000 
     95 CA          0.9479  -21.3989  -53.5697 C.3       17 UNK         0.1400 
     96 CB          1.8850  -20.2506  -54.0005 C.3       17 UNK        -0.1800 
     97 C           0.3453  -22.1937  -54.7461 C.2       17 UNK         0.5000 
     98 O           0.6181  -21.8945  -55.9101 O.2       17 UNK        -0.5000 
     99 N          -0.4770  -23.1929  -54.3909 N.am      18 UNK        -0.5000 
    100 CA        -1.2278  -24.0924  -55.2721 C.3       18 UNK         0.1400 
    101 CB        -0.2690  -25.0323  -56.0323 C.3       18 UNK        -0.1800 
    102 C         -2.2112  -23.3444  -56.1985 C.2       18 UNK         0.5000 
    103 O         -2.2301  -23.5808  -57.4083 O.2       18 UNK        -0.5000 
    104 N         -3.0162  -22.4570  -55.6031 N.am      19 UNK        -0.5000 
    105 CA        -4.0307  -21.6411  -56.2729 C.3       19 UNK         0.1400 
    106 CB        -3.5552  -20.1786  -56.3235 C.3       19 UNK        -0.1800 
    107 C         -5.4014  -21.7845  -55.5838 C.2       19 UNK         0.5000 
    108 O         -6.2153  -20.8621  -55.6466 O.2       19 UNK        -0.5000 
    109 N         -5.6311  -22.9307  -54.9219 N.am      20 UNK        -0.5000 
    110 CA        -6.8595  -23.3204  -54.2144 C.3       20 UNK         0.1400 
    111 CB        -7.9884  -23.6089  -55.2254 C.3       20 UNK        -0.1800 
    112 C         -7.2793  -22.3129  -53.1218 C.2       20 UNK         0.5000 
    113 O         -8.4638  -21.9986  -52.9831 O.2       20 UNK        -0.5000 
    114 N         -6.2789  -21.7812  -52.4025 N.am      21 UNK        -0.5000 
    115 CA        -6.3863  -20.7413  -51.3684 C.3       21 UNK         0.1400 
    116 CB        -7.1766  -21.2593  -50.1492 C.3       21 UNK        -0.1800 
    117 C         -6.9242  -19.3893  -51.8974 C.2       21 UNK         0.5000 
    118 O         -7.3779  -18.5644  -51.1034 O.2       21 UNK        -0.5000 
    119 N         -6.8794  -19.1949  -53.2250 N.am      22 UNK        -0.5000 
    120 CA        -7.4897  -18.0818  -53.9700 C.3       22 UNK         0.1400 
    121 C         -9.0479  -18.0393  -53.8757 C.2       22 UNK         0.5000 
    122 N         -9.7201  -19.1420  -53.5593 N.am      22 UNK        -0.7600 
    123 O         -9.6659  -17.0070  -54.1225 O.2       22 UNK        -0.5000 
    124 C124       -6.8078  -16.7105  -53.6966 C.3       23 UNK        -0.0398 
    125 S125       -5.0778  -16.6753  -54.2825 S.3       23 UNK        -0.2404 
    126 C126       -4.4220  -15.1958  -53.4460 C.3       23 UNK        -0.0205 
    127 H127        5.1818  -19.3697  -50.7137 H         1 UNK         0.0600 
    128 H128        5.6093  -20.5197  -49.4429 H         1 UNK         0.0600 
    129 H129        6.1731  -18.8474  -49.3476 H         1 UNK         0.0600 
    130 H130        3.0798  -18.6043  -50.5429 H         1 UNK         0.3000 
    131 H131        1.5127  -18.9899  -48.1712 H         1 UNK         0.0600 
    132 H132       -0.3215  -17.9262  -49.4328 H         1 UNK         0.0800 
    133 H133        0.4365  -19.2271  -50.2864 H         1 UNK         0.0800 
    134 H134        0.3017  -14.8516  -51.6912 H         1 UNK         0.0800 
    135 H135        0.3363  -15.2741  -50.0070 H         1 UNK         0.0800 
    136 H136       -1.7113  -15.2625  -53.0845 H         1 UNK         0.1150 
    137 H137       -5.4027  -15.8662  -50.9885 H         1 UNK         0.1150 
    138 H138       -1.6827  -16.1683  -48.8939 H         1 UNK         0.1150 
    139 H139       -3.9881  -15.8085  -47.7067 H         1 UNK         0.0800 
    140 H140       -5.4221  -16.1333  -48.6371 H         1 UNK         0.0800 
    141 H141       -3.5317  -18.3019  -45.8908 H         1 UNK         0.0800 
    142 H142       -2.4674  -17.2931  -46.8201 H         1 UNK         0.0800 
    143 H143       -1.3846  -19.2184  -47.8545 H         1 UNK         0.0600 
    144 H144       -1.2553  -18.7428  -45.0790 H         1 UNK         0.3000 
    145 H145        1.2824  -21.1201  -44.2195 H         1 UNK         0.0600 
    146 H146        2.3362  -19.1046  -43.3662 H         1 UNK         0.0600 
    147 H147        2.3662  -19.0179  -45.1171 H         1 UNK         0.0600 
    148 H148        1.1955  -18.0602  -44.2089 H         1 UNK         0.0600 
    149 H149       -0.1951  -19.2866  -42.6081 H         1 UNK         0.3000 
    150 H150       -2.9428  -21.4708  -41.8577 H         1 UNK         0.0600 
    151 H151       -1.1735  -22.0618  -40.2589 H         1 UNK         0.0600 
    152 H152       -2.1751  -20.7930  -39.5710 H         1 UNK         0.0600 
    153 H153       -0.5802  -20.4108  -40.2194 H         1 UNK         0.0600 
    154 H154       -2.2338  -18.7412  -41.2037 H         1 UNK         0.3000 
    155 H155       -4.1566  -17.2392  -43.8070 H         1 UNK         0.0600 
    156 H156       -4.7433  -17.4699  -40.8066 H         1 UNK         0.0600 
    157 H157       -5.8692  -17.8640  -42.1001 H         1 UNK         0.0600 
    158 H158       -5.3314  -16.2058  -41.8873 H         1 UNK         0.0600 
    159 H159       -2.7766  -16.1542  -41.5558 H         1 UNK         0.3000 
    160 H160        0.4673  -15.9828  -42.9675 H         1 UNK         0.0600 
    161 H161       -1.5536  -13.7369  -42.4604 H         1 UNK         0.0600 
    162 H162       -0.7596  -14.0396  -44.0008 H         1 UNK         0.0600 
    163 H163        0.1975  -13.5711  -42.6049 H         1 UNK         0.0600 
    164 H164       -0.3833  -14.9086  -40.5593 H         1 UNK         0.3000 
    165 H165       -0.6627  -16.1890  -38.4980 H         1 UNK         0.0600 
    166 H166        0.3299  -18.0320  -37.1492 H         1 UNK         0.0600 
    167 H167       -0.7818  -18.6697  -38.3495 H         1 UNK         0.0600 
    168 H168        0.9548  -18.7964  -38.6093 H         1 UNK         0.0600 
    169 H169        2.2394  -16.7140  -38.7205 H         1 UNK         0.3000 
    170 H170        3.1007  -13.3491  -39.3370 H         1 UNK         0.0600 
    171 H171        3.1421  -13.4932  -36.8422 H         1 UNK         0.0600 
    172 H172        3.7572  -15.1392  -36.9318 H         1 UNK         0.0600 
    173 H173        4.7344  -13.7932  -37.5196 H         1 UNK         0.0600 
    174 H174        4.6051  -15.7809  -39.1692 H         1 UNK         0.3000 
    175 H175        5.5447  -16.5779  -41.2227 H         1 UNK         0.0600 
    176 H176        2.8452  -18.0365  -41.3606 H         1 UNK         0.0600 
    177 H177        4.4052  -18.8181  -41.6274 H         1 UNK         0.0600 
    178 H178        4.0232  -18.1249  -40.0620 H         1 UNK         0.0600 
    179 H179        3.7744  -17.0829  -43.5118 H         1 UNK         0.3000 
    180 H180        5.3885  -14.8385  -45.6846 H         1 UNK         0.0600 
    181 H181        5.7503  -17.8809  -45.6206 H         1 UNK         0.0600 
    182 H182        7.0488  -16.6965  -45.7129 H         1 UNK         0.0600 
    183 H183        5.9084  -16.8485  -47.0407 H         1 UNK         0.0600 
    184 H184        3.5126  -16.9771  -46.0917 H         1 UNK         0.3000 
    185 H185        0.7636  -15.8675  -45.2729 H         1 UNK         0.0600 
    186 H186        0.4512  -13.5795  -46.1436 H         1 UNK         0.0600 
    187 H187        1.0919  -14.0506  -47.7096 H         1 UNK         0.0600 
    188 H188       -0.4301  -14.7291  -47.1322 H         1 UNK         0.0600 
    189 H189        0.7689  -17.5370  -46.6940 H         1 UNK         0.3000 
    190 H190       -3.2524  -20.8020  -45.1982 H         1 UNK         0.3000 
    191 H191       -4.6413  -22.6215  -46.8413 H         1 UNK         0.0600 
    192 H192       -3.8834  -22.8236  -43.8796 H         1 UNK         0.0600 
    193 H193       -5.1000  -23.8066  -44.6862 H         1 UNK         0.0600 
    194 H194       -5.3355  -22.0719  -44.5357 H         1 UNK         0.0600 
    195 H195       -1.5383  -23.0523  -45.0674 H         1 UNK         0.3000 
    196 H196       -1.1367  -25.7732  -45.7103 H         1 UNK         0.0600 
    197 H197        1.2229  -25.3096  -44.9997 H         1 UNK         0.0600 
    198 H198        0.0561  -24.6326  -43.8746 H         1 UNK         0.0600 
    199 H199        0.8894  -23.5811  -45.0179 H         1 UNK         0.0600 
    200 H200       -0.0070  -22.8089  -47.4020 H         1 UNK         0.3000 
    201 H201        1.3452  -24.2942  -49.5168 H         1 UNK         0.0600 
    202 H202        2.1096  -22.0461  -48.7265 H         1 UNK         0.0600 
    203 H203        0.5913  -21.3360  -49.2623 H         1 UNK         0.0600 
    204 H204        1.7182  -22.0130  -50.4367 H         1 UNK         0.0600 
    205 H205       -1.9143  -23.4294  -48.9173 H         1 UNK         0.3000 
    206 H206       -3.8226  -23.2796  -50.0118 H         1 UNK         0.0600 
    207 H207       -4.2564  -24.7227  -51.9758 H         1 UNK         0.0600 
    208 H208       -3.3345  -25.6093  -50.7727 H         1 UNK         0.0600 
    209 H209       -2.5337  -24.9851  -52.2126 H         1 UNK         0.0600 
    210 H210       -2.2773  -21.1097  -50.1189 H         1 UNK         0.3000 
    211 H211       -1.6863  -19.1919  -51.0928 H         1 UNK         0.0600 
    212 H212       -3.1252  -18.2278  -52.8722 H         1 UNK         0.0600 
    213 H213       -4.0143  -18.8034  -51.4884 H         1 UNK         0.0600 
    214 H214       -3.9967  -19.7449  -52.9915 H         1 UNK         0.0600 
    215 H215       -0.1674  -21.4331  -51.7919 H         1 UNK         0.3000 
    216 H216        1.5509  -22.1080  -53.0010 H         1 UNK         0.0600 
    217 H217        2.7314  -20.6352  -54.5702 H         1 UNK         0.0600 
    218 H218        2.2869  -19.7252  -53.1343 H         1 UNK         0.0600 
    219 H219        1.3770  -19.5191  -54.6291 H         1 UNK         0.0600 
    220 H220       -0.5924  -23.3633  -53.3952 H         1 UNK         0.3000 
    221 H221       -1.8419  -24.7136  -54.6189 H         1 UNK         0.0600 
    222 H222        0.3615  -24.4879  -56.7358 H         1 UNK         0.0600 
    223 H223        0.3833  -25.5694  -55.3438 H         1 UNK         0.0600 
    224 H224       -0.8240  -25.7792  -56.6012 H         1 UNK         0.0600 
    225 H225       -2.9623  -22.3434  -54.5917 H         1 UNK         0.3000 
    226 H226       -4.1734  -21.9844  -57.2991 H         1 UNK         0.0600 
    227 H227       -3.5039  -19.7395  -55.3276 H         1 UNK         0.0600 
    228 H228       -2.5655  -20.0996  -56.7737 H         1 UNK         0.0600 
    229 H229       -4.2329  -19.5636  -56.9166 H         1 UNK         0.0600 
    230 H230       -4.8817  -23.6076  -54.9023 H         1 UNK         0.3000 
    231 H231       -6.6345  -24.2529  -53.6949 H         1 UNK         0.0600 
    232 H232       -7.6743  -24.3419  -55.9683 H         1 UNK         0.0600 
    233 H233       -8.2972  -22.7066  -55.7546 H         1 UNK         0.0600 
    234 H234       -8.8693  -24.0129  -54.7253 H         1 UNK         0.0600 
    235 H235       -5.3333  -22.0581  -52.6472 H         1 UNK         0.3000 
    236 H236       -5.3740  -20.5537  -51.0171 H         1 UNK         0.0600 
    237 H237       -7.1138  -20.5566  -49.3174 H         1 UNK         0.0600 
    238 H238       -8.2332  -21.3991  -50.3785 H         1 UNK         0.0600 
    239 H239       -6.7788  -22.2109  -49.7967 H         1 UNK         0.0600 
    240 H240       -6.5092  -19.9328  -53.8125 H         1 UNK         0.3000 
    241 H241       -7.3088  -18.3158  -55.0196 H         1 UNK         0.0600 
    242 H242      -10.7261  -19.1108  -53.5112 H         1 UNK         0.3800 
    243 H243       -9.2361  -20.0111  -53.3676 H         1 UNK         0.3800 
    244 H244       -7.3307  -15.9072  -54.2175 H         1 UNK         0.0800 
    245 H245       -6.8522  -16.4634  -52.6370 H         1 UNK         0.0800 
    246 H246       -5.2341  -14.5058  -53.2125 H         1 UNK         0.0800 
    247 H247       -3.7754  -14.6667  -54.1475 H         1 UNK         0.0800 
@<TRIPOS>BOND
     1    1    2 1    
     2    1  127 1    
     3    1  128 1    
     4    1  129 1    
     5    2    3 2    
     6    2    4 am   BACKBONE|DICT|INTERRES
     7    4    5 1    
     8    4  130 1    
     9    5    6 1    
    10    5   65 1    
    11    5  131 1    
    12    6    7 1    
    13    6  132 1    
    14    6  133 1    
    15    7    8 1    
    16    8    9 1    
    17    8  134 1    
    18    8  135 1    
    19    9   10 ar   
    20    9   14 ar   
    21   10   11 ar   
    22   10  136 1    
    23   11   12 ar   
    24   11  126 1    
    25   12   13 ar   
    26   12  137 1    
    27   13   14 ar   
    28   13   15 1    
    29   14  138 1    
    30   15   16 1    
    31   15  139 1    
    32   15  140 1    
    33   16   17 1    
    34   17   18 1    
    35   17  141 1    
    36   17  142 1    
    37   18   19 1    
    38   18   67 1    
    39   18  143 1    
    40   19   20 am   BACKBONE|DICT|INTERRES
    41   19  144 1    
    42   20   21 2    
    43   20   22 1    
    44   22   23 1    
    45   22   24 1    
    46   22  145 1    
    47   23  146 1    
    48   23  147 1    
    49   23  148 1    
    50   24   25 am   BACKBONE|DICT|INTERRES
    51   24  149 1    
    52   25   26 2    
    53   25   27 1    
    54   27   28 1    
    55   27   29 1    
    56   27  150 1    
    57   28  151 1    
    58   28  152 1    
    59   28  153 1    
    60   29   30 am   BACKBONE|DICT|INTERRES
    61   29  154 1    
    62   30   31 2    
    63   30   32 1    
    64   32   33 1    
    65   32   34 1    
    66   32  155 1    
    67   33  156 1    
    68   33  157 1    
    69   33  158 1    
    70   34   35 am   BACKBONE|DICT|INTERRES
    71   34  159 1    
    72   35   36 2    
    73   35   37 1    
    74   37   38 1    
    75   37   39 1    
    76   37  160 1    
    77   38  161 1    
    78   38  162 1    
    79   38  163 1    
    80   39   40 am   BACKBONE|DICT|INTERRES
    81   39  164 1    
    82   40   41 2    
    83   40   42 1    
    84   42   43 1    
    85   42   44 1    
    86   42  165 1    
    87   43  166 1    
    88   43  167 1    
    89   43  168 1    
    90   44   45 am   BACKBONE|DICT|INTERRES
    91   44  169 1    
    92   45   46 2    
    93   45   47 1    
    94   47   48 1    
    95   47   49 1    
    96   47  170 1    
    97   48  171 1    
    98   48  172 1    
    99   48  173 1    
   100   49   50 am   BACKBONE|DICT|INTERRES
   101   49  174 1    
   102   50   51 2    
   103   50   52 1    
   104   52   53 1    
   105   52   54 1    
   106   52  175 1    
   107   53  176 1    
   108   53  177 1    
   109   53  178 1    
   110   54   55 am   BACKBONE|DICT|INTERRES
   111   54  179 1    
   112   55   56 2    
   113   55   57 1    
   114   57   58 1    
   115   57   59 1    
   116   57  180 1    
   117   58  181 1    
   118   58  182 1    
   119   58  183 1    
   120   59   60 am   BACKBONE|DICT|INTERRES
   121   59  184 1    
   122   60   61 2    
   123   60   62 1    
   124   62   63 1    
   125   62   64 1    
   126   62  185 1    
   127   63  186 1    
   128   63  187 1    
   129   63  188 1    
   130   64   65 am   BACKBONE|DICT|INTERRES
   131   64  189 1    
   132   65   66 2    
   133   67   68 2    
   134   67   69 am   BACKBONE|DICT|INTERRES
   135   69   70 1    
   136   69  190 1    
   137   70   71 1    
   138   70   72 1    
   139   70  191 1    
   140   71  192 1    
   141   71  193 1    
   142   71  194 1    
   143   72   73 2    
   144   72   74 am   BACKBONE|DICT|INTERRES
   145   74   75 1    
   146   74  195 1    
   147   75   76 1    
   148   75   77 1    
   149   75  196 1    
   150   76  197 1    
   151   76  198 1    
   152   76  199 1    
   153   77   78 2    
   154   77   79 am   BACKBONE|DICT|INTERRES
   155   79   80 1    
   156   79  200 1    
   157   80   81 1    
   158   80   82 1    
   159   80  201 1    
   160   81  202 1    
   161   81  203 1    
   162   81  204 1    
   163   82   83 2    
   164   82   84 am   BACKBONE|DICT|INTERRES
   165   84   85 1    
   166   84  205 1    
   167   85   86 1    
   168   85   87 1    
   169   85  206 1    
   170   86  207 1    
   171   86  208 1    
   172   86  209 1    
   173   87   88 2    
   174   87   89 am   BACKBONE|DICT|INTERRES
   175   89   90 1    
   176   89  210 1    
   177   90   91 1    
   178   90   92 1    
   179   90  211 1    
   180   91  212 1    
   181   91  213 1    
   182   91  214 1    
   183   92   93 2    
   184   92   94 am   BACKBONE|DICT|INTERRES
   185   94   95 1    
   186   94  215 1    
   187   95   96 1    
   188   95   97 1    
   189   95  216 1    
   190   96  217 1    
   191   96  218 1    
   192   96  219 1    
   193   97   98 2    
   194   97   99 am   BACKBONE|DICT|INTERRES
   195   99  100 1    
   196   99  220 1    
   197  100  101 1    
   198  100  102 1    
   199  100  221 1    
   200  101  222 1    
   201  101  223 1    
   202  101  224 1    
   203  102  103 2    
   204  102  104 am   BACKBONE|DICT|INTERRES
   205  104  105 1    
   206  104  225 1    
   207  105  106 1    
   208  105  107 1    
   209  105  226 1    
   210  106  227 1    
   211  106  228 1    
   212  106  229 1    
   213  107  108 2    
   214  107  109 am   BACKBONE|DICT|INTERRES
   215  109  110 1    
   216  109  230 1    
   217  110  111 1    
   218  110  112 1    
   219  110  231 1    
   220  111  232 1    
   221  111  233 1    
   222  111  234 1    
   223  112  113 2    
   224  112  114 am   BACKBONE|DICT|INTERRES
   225  114  115 1    
   226  114  235 1    
   227  115  116 1    
   228  115  117 1    
   229  115  236 1    
   230  116  237 1    
   231  116  238 1    
   232  116  239 1    
   233  117  118 2    
   234  117  119 am   BACKBONE|DICT|INTERRES
   235  119  120 1    
   236  119  240 1    
   237  120  121 1    
   238  120  124 1    
   239  120  241 1    
   240  121  122 am   BACKBONE|DICT|INTERRES
   241  121  123 2    
   242  122  242 1    
   243  122  243 1    
   244  124  125 1    
   245  124  244 1    
   246  124  245 1    
   247  125  126 1    
   248  126  246 1    
   249  126  247 1    
@<TRIPOS>SUBSTRUCTURE
     1 UNK         1 GROUP             0       ****    0 ROOT    
