@<TRIPOS>MOLECULE
3R540
247   249    1
SMALL
USER_CHARGES


@<TRIPOS>ATOM
      1 CA         -4.5198   -9.8581  -45.7447 C.3       0 UNK        -0.1800 
      2 C          -3.6951  -10.5874  -46.7953 C.2       0 UNK         0.5000 
      3 O          -2.5544  -10.2046  -47.0525 O.2       0 UNK        -0.5000 
      4 N          -4.2668  -11.6361  -47.4008 N.am      1 UNK        -0.5000 
      5 CA         -3.6213  -12.4889  -48.4083 C.3       1 UNK         0.1400 
      6 C6         -4.6482  -13.2981  -49.2374 C.3       23 UNK        -0.0398 
      7 S7         -5.8974  -14.1866  -48.2401 S.3       23 UNK        -0.2404 
      8 C8         -5.7857  -15.8699  -48.9156 C.3       23 UNK        -0.0205 
      9 C9         -4.6434  -16.6544  -48.2923 C.ar      23 UNK        -0.0193 
     10 C10        -3.4099  -16.7525  -48.9380 C.ar      23 UNK        -0.1150 
     11 C11        -2.3772  -17.5120  -48.3831 C.ar      23 UNK        -0.0193 
     12 C12        -2.5808  -18.1674  -47.1650 C.ar      23 UNK        -0.1150 
     13 C13        -3.8105  -18.0673  -46.4987 C.ar      23 UNK        -0.0193 
     14 C14        -4.8341  -17.3104  -47.0749 C.ar      23 UNK        -0.1150 
     15 C15        -4.0997  -18.7967  -45.1886 C.3       23 UNK        -0.0205 
     16 S16        -2.6429  -19.0571  -44.1213 S.3       23 UNK        -0.2404 
     17 C17        -2.6917  -20.8665  -43.9113 C.3       23 UNK        -0.0398 
     18 CA         -2.0378  -21.6012  -45.1046 C.3       11 UNK         0.1400 
     19 N          -0.5704  -21.4880  -45.1149 N.am      11 UNK        -0.5000 
     20 C           0.2149  -21.9071  -46.1195 C.2       10 UNK         0.5000 
     21 O          -0.2461  -22.3842  -47.1564 O.2       10 UNK        -0.5000 
     22 CA          1.7477  -21.8592  -45.9468 C.3       10 UNK         0.1400 
     23 CB          2.4327  -21.2077  -47.1559 C.3       10 UNK        -0.1800 
     24 N           2.1964  -21.1914  -44.7279 N.am      10 UNK        -0.5000 
     25 C           2.2183  -21.7332  -43.5041 C.2       9 UNK         0.5000 
     26 O           1.8535  -22.8835  -43.2595 O.2       9 UNK        -0.5000 
     27 CA          2.6848  -20.8136  -42.3589 C.3       9 UNK         0.1400 
     28 CB          4.2126  -20.8623  -42.2096 C.3       9 UNK        -0.1800 
     29 N           2.2548  -19.4262  -42.5525 N.am      9 UNK        -0.5000 
     30 C           0.9757  -19.0269  -42.5194 C.2       8 UNK         0.5000 
     31 O           0.0468  -19.7761  -42.2202 O.2       8 UNK        -0.5000 
     32 CA          0.6796  -17.5697  -42.9228 C.3       8 UNK         0.1400 
     33 CB          0.8713  -16.6186  -41.7331 C.3       8 UNK        -0.1800 
     34 N           1.4941  -17.1139  -44.0495 N.am      8 UNK        -0.5000 
     35 C           1.4172  -17.5951  -45.2989 C.2       7 UNK         0.5000 
     36 O           0.6119  -18.4497  -45.6602 O.2       7 UNK        -0.5000 
     37 CA          2.4506  -17.0636  -46.3074 C.3       7 UNK         0.1400 
     38 CB          1.9842  -15.7409  -46.9351 C.3       7 UNK        -0.1800 
     39 N           3.7688  -16.8866  -45.6963 N.am      7 UNK        -0.5000 
     40 C           4.5593  -17.8966  -45.3047 C.2       6 UNK         0.5000 
     41 O           4.2705  -19.0837  -45.4456 O.2       6 UNK        -0.5000 
     42 CA          5.8720  -17.5147  -44.5965 C.3       6 UNK         0.1400 
     43 CB          6.9529  -17.1375  -45.6206 C.3       6 UNK        -0.1800 
     44 N           5.6959  -16.4146  -43.6478 N.am      6 UNK        -0.5000 
     45 C           4.9696  -16.4935  -42.5236 C.2       5 UNK         0.5000 
     46 O           4.4126  -17.5214  -42.1418 O.2       5 UNK        -0.5000 
     47 CA          4.7913  -15.1911  -41.7197 C.3       5 UNK         0.1400 
     48 CB          5.9400  -15.0165  -40.7154 C.3       5 UNK        -0.1800 
     49 N           4.6929  -13.9928  -42.5596 N.am      5 UNK        -0.5000 
     50 C           3.7580  -13.7910  -43.4971 C.2       4 UNK         0.5000 
     51 O           2.8743  -14.6074  -43.7715 O.2       4 UNK        -0.5000 
     52 CA          3.8611  -12.4856  -44.2932 C.3       4 UNK         0.1400 
     53 CB          5.0531  -12.5256  -45.2666 C.3       4 UNK        -0.1800 
     54 N           2.6290  -12.2980  -45.0492 N.am      4 UNK        -0.5000 
     55 C           2.0918  -11.1225  -45.3838 C.2       3 UNK         0.5000 
     56 O           2.5969  -10.0381  -45.0888 O.2       3 UNK        -0.5000 
     57 CA          0.7857  -11.1436  -46.2020 C.3       3 UNK         0.1400 
     58 CB          1.0466  -10.6522  -47.6351 C.3       3 UNK        -0.1800 
     59 N           0.1152  -12.4444  -46.2827 N.am      3 UNK        -0.5000 
     60 C          -0.5624  -13.0366  -45.2915 C.2       2 UNK         0.5000 
     61 O          -0.5536  -12.6411  -44.1253 O.2       2 UNK        -0.5000 
     62 CA         -1.4713  -14.2102  -45.7168 C.3       2 UNK         0.1400 
     63 CB         -2.0449  -14.9882  -44.5207 C.3       2 UNK        -0.1800 
     64 N          -2.5755  -13.6837  -46.5200 N.am      2 UNK        -0.5000 
     65 C          -2.4950  -13.3689  -47.8209 C.2       1 UNK         0.5000 
     66 O          -1.5347  -13.6748  -48.5300 O.2       1 UNK        -0.5000 
     67 C          -2.5437  -23.0602  -45.1932 C.2       11 UNK         0.5000 
     68 O          -3.6694  -23.2779  -45.6411 O.2       11 UNK        -0.5000 
     69 N          -1.6988  -24.0356  -44.8282 N.am      12 UNK        -0.5000 
     70 CA         -1.9344  -25.4620  -45.0585 C.3       12 UNK         0.1400 
     71 CB         -0.8653  -26.2732  -44.3115 C.3       12 UNK        -0.1800 
     72 C          -1.9492  -25.8361  -46.5564 C.2       12 UNK         0.5000 
     73 O          -2.6940  -26.7357  -46.9453 O.2       12 UNK        -0.5000 
     74 N          -1.1485  -25.1323  -47.3708 N.am      13 UNK        -0.5000 
     75 CA         -1.1003  -25.2904  -48.8244 C.3       13 UNK         0.1400 
     76 CB          0.2885  -24.8904  -49.3457 C.3       13 UNK        -0.1800 
     77 C          -2.1997  -24.4760  -49.5261 C.2       13 UNK         0.5000 
     78 O          -2.6797  -24.9072  -50.5719 O.2       13 UNK        -0.5000 
     79 N          -2.6161  -23.3471  -48.9273 N.am      14 UNK        -0.5000 
     80 CA         -3.6788  -22.4619  -49.4282 C.3       14 UNK         0.1400 
     81 CB         -3.8012  -21.2254  -48.5235 C.3       14 UNK        -0.1800 
     82 C          -5.0610  -23.1320  -49.5586 C.2       14 UNK         0.5000 
     83 O          -5.9076  -22.6298  -50.2992 O.2       14 UNK        -0.5000 
     84 N          -5.2630  -24.2509  -48.8491 N.am      15 UNK        -0.5000 
     85 CA         -6.4357  -25.1172  -48.9553 C.3       15 UNK         0.1400 
     86 CB         -6.3531  -26.1986  -47.8676 C.3       15 UNK        -0.1800 
     87 C          -6.5937  -25.7591  -50.3494 C.2       15 UNK         0.5000 
     88 O          -7.7226  -26.0315  -50.7600 O.2       15 UNK        -0.5000 
     89 N          -5.4770  -25.9654  -51.0618 N.am      16 UNK        -0.5000 
     90 CA         -5.4626  -26.3566  -52.4669 C.3       16 UNK         0.1400 
     91 CB         -4.1759  -27.1417  -52.7652 C.3       16 UNK        -0.1800 
     92 C          -5.5416  -25.0937  -53.3384 C.2       16 UNK         0.5000 
     93 O          -4.8651  -24.1086  -53.0433 O.2       16 UNK        -0.5000 
     94 N          -6.3679  -25.1478  -54.3911 N.am      17 UNK        -0.5000 
     95 CA         -6.5746  -24.1182  -55.4221 C.3       17 UNK         0.1400 
     96 CB         -5.2684  -23.8676  -56.2062 C.3       17 UNK        -0.1800 
     97 C          -7.2106  -22.7925  -54.9391 C.2       17 UNK         0.5000 
     98 O          -7.4042  -21.9017  -55.7676 O.2       17 UNK        -0.5000 
     99 N          -7.5582  -22.6958  -53.6450 N.am      18 UNK        -0.5000 
    100 CA        -8.0776  -21.5184  -52.9393 C.3       18 UNK         0.1400 
    101 CB        -9.4778  -21.1287  -53.4584 C.3       18 UNK        -0.1800 
    102 C         -7.0651  -20.3562  -52.9838 C.2       18 UNK         0.5000 
    103 O         -7.2553  -19.3890  -53.7247 O.2       18 UNK        -0.5000 
    104 N         -5.9894  -20.5134  -52.2012 N.am      19 UNK        -0.5000 
    105 CA        -4.7619  -19.7121  -52.1936 C.3       19 UNK         0.1400 
    106 CB        -5.0443  -18.2252  -51.8889 C.3       19 UNK        -0.1800 
    107 C         -3.9200  -19.9390  -53.4672 C.2       19 UNK         0.5000 
    108 O         -4.1264  -20.9266  -54.1747 O.2       19 UNK        -0.5000 
    109 N         -2.9271  -19.0675  -53.6971 N.am      20 UNK        -0.5000 
    110 CA        -1.9125  -19.0896  -54.7646 C.3       20 UNK         0.1400 
    111 CB        -2.5484  -19.0675  -56.1678 C.3       20 UNK        -0.1800 
    112 C         -0.8838  -20.2311  -54.6283 C.2       20 UNK         0.5000 
    113 O          0.3158  -19.9796  -54.7493 O.2       20 UNK        -0.5000 
    114 N         -1.3501  -21.4455  -54.3063 N.am      21 UNK        -0.5000 
    115 CA        -0.5421  -22.6270  -53.9809 C.3       21 UNK         0.1400 
    116 CB        -1.4790  -23.8294  -53.7935 C.3       21 UNK        -0.1800 
    117 C          0.3461  -22.4384  -52.7325 C.2       21 UNK         0.5000 
    118 O          1.3585  -23.1244  -52.5918 O.2       21 UNK        -0.5000 
    119 N         -0.0390  -21.4894  -51.8724 N.am      22 UNK        -0.5000 
    120 CA         0.7414  -20.9738  -50.7422 C.3       22 UNK         0.1400 
    121 C          1.9597  -20.0817  -51.1320 C.2       22 UNK         0.5000 
    122 N          2.1337  -19.6848  -52.3883 N.am      22 UNK        -0.7600 
    123 O          2.7731  -19.7505  -50.2751 O.2       22 UNK        -0.5000 
    124 C124       -0.1868  -20.2751  -49.7180 C.3       23 UNK        -0.0398 
    125 S125       -1.1425  -18.8856  -50.4319 S.3       23 UNK        -0.2404 
    126 C126       -1.0521  -17.6258  -49.1178 C.3       23 UNK        -0.0205 
    127 H127       -5.5082  -10.3024  -45.6244 H         1 UNK         0.0600 
    128 H128       -4.6485   -8.8134  -46.0276 H         1 UNK         0.0600 
    129 H129       -4.0119   -9.8916  -44.7807 H         1 UNK         0.0600 
    130 H130       -5.2099  -11.9041  -47.1543 H         1 UNK         0.3000 
    131 H131       -3.1232  -11.8173  -49.1112 H         1 UNK         0.0600 
    132 H132       -5.1933  -12.6120  -49.8870 H         1 UNK         0.0800 
    133 H133       -4.1380  -13.9845  -49.9145 H         1 UNK         0.0800 
    134 H134       -5.6856  -15.8307  -50.0012 H         1 UNK         0.0800 
    135 H135       -6.7266  -16.3868  -48.7209 H         1 UNK         0.0800 
    136 H136       -3.2534  -16.2502  -49.8815 H         1 UNK         0.1150 
    137 H137       -1.7822  -18.7643  -46.7486 H         1 UNK         0.1150 
    138 H138       -5.7922  -17.2381  -46.5793 H         1 UNK         0.1150 
    139 H139       -4.8342  -18.2364  -44.6081 H         1 UNK         0.0800 
    140 H140       -4.5692  -19.7492  -45.4358 H         1 UNK         0.0800 
    141 H141       -3.7345  -21.1604  -43.7762 H         1 UNK         0.0800 
    142 H142       -2.1889  -21.1282  -42.9792 H         1 UNK         0.0800 
    143 H143       -2.3855  -21.1196  -46.0187 H         1 UNK         0.0600 
    144 H144       -0.1436  -21.0592  -44.3048 H         1 UNK         0.3000 
    145 H145        2.0823  -22.8976  -45.9071 H         1 UNK         0.0600 
    146 H146        3.5179  -21.2380  -47.0579 H         1 UNK         0.0600 
    147 H147        2.1824  -21.7289  -48.0794 H         1 UNK         0.0600 
    148 H148        2.1386  -20.1652  -47.2706 H         1 UNK         0.0600 
    149 H149        2.5445  -20.2467  -44.8422 H         1 UNK         0.3000 
    150 H150        2.2402  -21.1824  -41.4322 H         1 UNK         0.0600 
    151 H151        4.5575  -21.8846  -42.0499 H         1 UNK         0.0600 
    152 H152        4.5436  -20.2700  -41.3563 H         1 UNK         0.0600 
    153 H153        4.7170  -20.4794  -43.0973 H         1 UNK         0.0600 
    154 H154        2.9836  -18.7390  -42.7197 H         1 UNK         0.3000 
    155 H155       -0.3651  -17.5159  -43.2295 H         1 UNK         0.0600 
    156 H156        0.2113  -16.8906  -40.9086 H         1 UNK         0.0600 
    157 H157        0.6426  -15.5887  -42.0089 H         1 UNK         0.0600 
    158 H158        1.8935  -16.6463  -41.3572 H         1 UNK         0.0600 
    159 H159        2.1527  -16.3633  -43.8614 H         1 UNK         0.3000 
    160 H160        2.5456  -17.7980  -47.1098 H         1 UNK         0.0600 
    161 H161        1.8319  -14.9673  -46.1843 H         1 UNK         0.0600 
    162 H162        1.0405  -15.8743  -47.4647 H         1 UNK         0.0600 
    163 H163        2.7100  -15.3690  -47.6582 H         1 UNK         0.0600 
    164 H164        4.0496  -15.9408  -45.4863 H         1 UNK         0.3000 
    165 H165        6.2177  -18.3897  -44.0417 H         1 UNK         0.0600 
    166 H166        7.9076  -16.9425  -45.1319 H         1 UNK         0.0600 
    167 H167        7.1134  -17.9473  -46.3336 H         1 UNK         0.0600 
    168 H168        6.6789  -16.2482  -46.1896 H         1 UNK         0.0600 
    169 H169        6.1231  -15.5315  -43.8841 H         1 UNK         0.3000 
    170 H170        3.8595  -15.2761  -41.1577 H         1 UNK         0.0600 
    171 H171        6.0233  -15.8867  -40.0627 H         1 UNK         0.0600 
    172 H172        6.8997  -14.8898  -41.2179 H         1 UNK         0.0600 
    173 H173        5.7773  -14.1481  -40.0766 H         1 UNK         0.0600 
    174 H174        5.3881  -13.2776  -42.4008 H         1 UNK         0.3000 
    175 H175        3.9895  -11.6667  -43.5823 H         1 UNK         0.0600 
    176 H176        4.9612  -13.3451  -45.9807 H         1 UNK         0.0600 
    177 H177        5.1290  -11.5977  -45.8338 H         1 UNK         0.0600 
    178 H178        5.9965  -12.6545  -44.7351 H         1 UNK         0.0600 
    179 H179        2.1152  -13.1475  -45.2394 H         1 UNK         0.3000 
    180 H180        0.0979  -10.4428  -45.7241 H         1 UNK         0.0600 
    181 H181        1.7166  -11.3236  -48.1737 H         1 UNK         0.0600 
    182 H182        1.5030   -9.6615  -47.6352 H         1 UNK         0.0600 
    183 H183        0.1175  -10.5783  -48.2011 H         1 UNK         0.0600 
    184 H184       -0.0016  -12.8240  -47.2146 H         1 UNK         0.3000 
    185 H185       -0.8799  -14.9070  -46.3136 H         1 UNK         0.0600 
    186 H186       -1.2442  -15.3664  -43.8852 H         1 UNK         0.0600 
    187 H187       -2.6907  -14.3649  -43.9014 H         1 UNK         0.0600 
    188 H188       -2.6271  -15.8470  -44.8550 H         1 UNK         0.0600 
    189 H189       -3.3868  -13.3669  -46.0101 H         1 UNK         0.3000 
    190 H190       -0.7977  -23.7772  -44.4517 H         1 UNK         0.3000 
    191 H191       -2.9115  -25.7171  -44.6428 H         1 UNK         0.0600 
    192 H192       -0.8955  -26.0733  -43.2402 H         1 UNK         0.0600 
    193 H193       -1.0228  -27.3442  -44.4461 H         1 UNK         0.0600 
    194 H194        0.1391  -26.0411  -44.6682 H         1 UNK         0.0600 
    195 H195       -0.6156  -24.3576  -46.9940 H         1 UNK         0.3000 
    196 H196       -1.2574  -26.3421  -49.0741 H         1 UNK         0.0600 
    197 H197        0.3560  -25.0375  -50.4246 H         1 UNK         0.0600 
    198 H198        1.0713  -25.4930  -48.8854 H         1 UNK         0.0600 
    199 H199        0.5123  -23.8433  -49.1481 H         1 UNK         0.0600 
    200 H200       -2.1356  -23.0544  -48.0867 H         1 UNK         0.3000 
    201 H201       -3.3771  -22.1373  -50.4256 H         1 UNK         0.0600 
    202 H202       -2.8451  -20.7320  -48.3704 H         1 UNK         0.0600 
    203 H203       -4.2047  -21.4833  -47.5448 H         1 UNK         0.0600 
    204 H204       -4.4745  -20.4862  -48.9593 H         1 UNK         0.0600 
    205 H205       -4.5189  -24.5671  -48.2442 H         1 UNK         0.3000 
    206 H206       -7.3215  -24.5064  -48.7694 H         1 UNK         0.0600 
    207 H207       -6.3095  -25.7552  -46.8724 H         1 UNK         0.0600 
    208 H208       -7.2280  -26.8494  -47.8958 H         1 UNK         0.0600 
    209 H209       -5.4705  -26.8275  -47.9929 H         1 UNK         0.0600 
    210 H210       -4.5927  -25.6229  -50.6998 H         1 UNK         0.3000 
    211 H211       -6.3156  -27.0047  -52.6792 H         1 UNK         0.0600 
    212 H212       -3.2850  -26.5296  -52.6192 H         1 UNK         0.0600 
    213 H213       -4.1652  -27.4911  -53.7982 H         1 UNK         0.0600 
    214 H214       -4.0896  -28.0180  -52.1227 H         1 UNK         0.0600 
    215 H215       -6.9046  -25.9936  -54.5270 H         1 UNK         0.3000 
    216 H216       -7.2932  -24.5477  -56.1215 H         1 UNK         0.0600 
    217 H217       -5.4466  -23.2297  -57.0726 H         1 UNK         0.0600 
    218 H218       -4.8414  -24.8004  -56.5742 H         1 UNK         0.0600 
    219 H219       -4.5160  -23.3725  -55.5914 H         1 UNK         0.0600 
    220 H220       -7.3086  -23.4749  -53.0531 H         1 UNK         0.3000 
    221 H221       -8.1892  -21.8077  -51.8929 H         1 UNK         0.0600 
    222 H222       -9.4588  -20.8115  -54.5012 H         1 UNK         0.0600 
    223 H223      -10.1741  -21.9631  -53.3754 H         1 UNK         0.0600 
    224 H224       -9.8882  -20.3029  -52.8763 H         1 UNK         0.0600 
    225 H225       -5.9440  -21.3626  -51.6410 H         1 UNK         0.3000 
    226 H226       -4.1634  -20.0992  -51.3698 H         1 UNK         0.0600 
    227 H227       -5.7067  -18.1235  -51.0295 H         1 UNK         0.0600 
    228 H228       -4.1256  -17.6913  -51.6479 H         1 UNK         0.0600 
    229 H229       -5.5068  -17.7130  -52.7328 H         1 UNK         0.0600 
    230 H230       -2.8145  -18.3141  -53.0332 H         1 UNK         0.3000 
    231 H231       -1.3553  -18.1583  -54.6506 H         1 UNK         0.0600 
    232 H232       -3.0892  -19.9877  -56.3900 H         1 UNK         0.0600 
    233 H233       -1.7836  -18.9496  -56.9364 H         1 UNK         0.0600 
    234 H234       -3.2449  -18.2355  -56.2716 H         1 UNK         0.0600 
    235 H235       -2.3606  -21.5486  -54.2443 H         1 UNK         0.3000 
    236 H236        0.1168  -22.8271  -54.8278 H         1 UNK         0.0600 
    237 H237       -2.0647  -24.0218  -54.6926 H         1 UNK         0.0600 
    238 H238       -0.9174  -24.7370  -53.5687 H         1 UNK         0.0600 
    239 H239       -2.1766  -23.6648  -52.9714 H         1 UNK         0.0600 
    240 H240       -0.8776  -20.9720  -52.0871 H         1 UNK         0.3000 
    241 H241        1.1741  -21.8403  -50.2413 H         1 UNK         0.0600 
    242 H242        2.9324  -19.1136  -52.6130 H         1 UNK         0.3800 
    243 H243        1.4747  -19.9262  -53.1200 H         1 UNK         0.3800 
    244 H244       -0.8903  -21.0099  -49.3339 H         1 UNK         0.0800 
    245 H245        0.3833  -19.9403  -48.8521 H         1 UNK         0.0800 
    246 H246       -0.2441  -17.8399  -48.4175 H         1 UNK         0.0800 
    247 H247       -0.8074  -16.6634  -49.5701 H         1 UNK         0.0800 
@<TRIPOS>BOND
     1    1    2 1    
     2    1  127 1    
     3    1  128 1    
     4    1  129 1    
     5    2    3 2    
     6    2    4 am   BACKBONE|DICT|INTERRES
     7    4    5 1    
     8    4  130 1    
     9    5    6 1    
    10    5   65 1    
    11    5  131 1    
    12    6    7 1    
    13    6  132 1    
    14    6  133 1    
    15    7    8 1    
    16    8    9 1    
    17    8  134 1    
    18    8  135 1    
    19    9   10 ar   
    20    9   14 ar   
    21   10   11 ar   
    22   10  136 1    
    23   11   12 ar   
    24   11  126 1    
    25   12   13 ar   
    26   12  137 1    
    27   13   14 ar   
    28   13   15 1    
    29   14  138 1    
    30   15   16 1    
    31   15  139 1    
    32   15  140 1    
    33   16   17 1    
    34   17   18 1    
    35   17  141 1    
    36   17  142 1    
    37   18   19 1    
    38   18   67 1    
    39   18  143 1    
    40   19   20 am   BACKBONE|DICT|INTERRES
    41   19  144 1    
    42   20   21 2    
    43   20   22 1    
    44   22   23 1    
    45   22   24 1    
    46   22  145 1    
    47   23  146 1    
    48   23  147 1    
    49   23  148 1    
    50   24   25 am   BACKBONE|DICT|INTERRES
    51   24  149 1    
    52   25   26 2    
    53   25   27 1    
    54   27   28 1    
    55   27   29 1    
    56   27  150 1    
    57   28  151 1    
    58   28  152 1    
    59   28  153 1    
    60   29   30 am   BACKBONE|DICT|INTERRES
    61   29  154 1    
    62   30   31 2    
    63   30   32 1    
    64   32   33 1    
    65   32   34 1    
    66   32  155 1    
    67   33  156 1    
    68   33  157 1    
    69   33  158 1    
    70   34   35 am   BACKBONE|DICT|INTERRES
    71   34  159 1    
    72   35   36 2    
    73   35   37 1    
    74   37   38 1    
    75   37   39 1    
    76   37  160 1    
    77   38  161 1    
    78   38  162 1    
    79   38  163 1    
    80   39   40 am   BACKBONE|DICT|INTERRES
    81   39  164 1    
    82   40   41 2    
    83   40   42 1    
    84   42   43 1    
    85   42   44 1    
    86   42  165 1    
    87   43  166 1    
    88   43  167 1    
    89   43  168 1    
    90   44   45 am   BACKBONE|DICT|INTERRES
    91   44  169 1    
    92   45   46 2    
    93   45   47 1    
    94   47   48 1    
    95   47   49 1    
    96   47  170 1    
    97   48  171 1    
    98   48  172 1    
    99   48  173 1    
   100   49   50 am   BACKBONE|DICT|INTERRES
   101   49  174 1    
   102   50   51 2    
   103   50   52 1    
   104   52   53 1    
   105   52   54 1    
   106   52  175 1    
   107   53  176 1    
   108   53  177 1    
   109   53  178 1    
   110   54   55 am   BACKBONE|DICT|INTERRES
   111   54  179 1    
   112   55   56 2    
   113   55   57 1    
   114   57   58 1    
   115   57   59 1    
   116   57  180 1    
   117   58  181 1    
   118   58  182 1    
   119   58  183 1    
   120   59   60 am   BACKBONE|DICT|INTERRES
   121   59  184 1    
   122   60   61 2    
   123   60   62 1    
   124   62   63 1    
   125   62   64 1    
   126   62  185 1    
   127   63  186 1    
   128   63  187 1    
   129   63  188 1    
   130   64   65 am   BACKBONE|DICT|INTERRES
   131   64  189 1    
   132   65   66 2    
   133   67   68 2    
   134   67   69 am   BACKBONE|DICT|INTERRES
   135   69   70 1    
   136   69  190 1    
   137   70   71 1    
   138   70   72 1    
   139   70  191 1    
   140   71  192 1    
   141   71  193 1    
   142   71  194 1    
   143   72   73 2    
   144   72   74 am   BACKBONE|DICT|INTERRES
   145   74   75 1    
   146   74  195 1    
   147   75   76 1    
   148   75   77 1    
   149   75  196 1    
   150   76  197 1    
   151   76  198 1    
   152   76  199 1    
   153   77   78 2    
   154   77   79 am   BACKBONE|DICT|INTERRES
   155   79   80 1    
   156   79  200 1    
   157   80   81 1    
   158   80   82 1    
   159   80  201 1    
   160   81  202 1    
   161   81  203 1    
   162   81  204 1    
   163   82   83 2    
   164   82   84 am   BACKBONE|DICT|INTERRES
   165   84   85 1    
   166   84  205 1    
   167   85   86 1    
   168   85   87 1    
   169   85  206 1    
   170   86  207 1    
   171   86  208 1    
   172   86  209 1    
   173   87   88 2    
   174   87   89 am   BACKBONE|DICT|INTERRES
   175   89   90 1    
   176   89  210 1    
   177   90   91 1    
   178   90   92 1    
   179   90  211 1    
   180   91  212 1    
   181   91  213 1    
   182   91  214 1    
   183   92   93 2    
   184   92   94 am   BACKBONE|DICT|INTERRES
   185   94   95 1    
   186   94  215 1    
   187   95   96 1    
   188   95   97 1    
   189   95  216 1    
   190   96  217 1    
   191   96  218 1    
   192   96  219 1    
   193   97   98 2    
   194   97   99 am   BACKBONE|DICT|INTERRES
   195   99  100 1    
   196   99  220 1    
   197  100  101 1    
   198  100  102 1    
   199  100  221 1    
   200  101  222 1    
   201  101  223 1    
   202  101  224 1    
   203  102  103 2    
   204  102  104 am   BACKBONE|DICT|INTERRES
   205  104  105 1    
   206  104  225 1    
   207  105  106 1    
   208  105  107 1    
   209  105  226 1    
   210  106  227 1    
   211  106  228 1    
   212  106  229 1    
   213  107  108 2    
   214  107  109 am   BACKBONE|DICT|INTERRES
   215  109  110 1    
   216  109  230 1    
   217  110  111 1    
   218  110  112 1    
   219  110  231 1    
   220  111  232 1    
   221  111  233 1    
   222  111  234 1    
   223  112  113 2    
   224  112  114 am   BACKBONE|DICT|INTERRES
   225  114  115 1    
   226  114  235 1    
   227  115  116 1    
   228  115  117 1    
   229  115  236 1    
   230  116  237 1    
   231  116  238 1    
   232  116  239 1    
   233  117  118 2    
   234  117  119 am   BACKBONE|DICT|INTERRES
   235  119  120 1    
   236  119  240 1    
   237  120  121 1    
   238  120  124 1    
   239  120  241 1    
   240  121  122 am   BACKBONE|DICT|INTERRES
   241  121  123 2    
   242  122  242 1    
   243  122  243 1    
   244  124  125 1    
   245  124  244 1    
   246  124  245 1    
   247  125  126 1    
   248  126  246 1    
   249  126  247 1    
@<TRIPOS>SUBSTRUCTURE
     1 UNK         1 GROUP             0       ****    0 ROOT    
