@<TRIPOS>MOLECULE
3R540
247   249    1
SMALL
USER_CHARGES


@<TRIPOS>ATOM
      1 CA          4.7458  -14.9570  -49.7035 C.3       0 UNK        -0.1800 
      2 C           4.1087  -14.6943  -48.3469 C.2       0 UNK         0.5000 
      3 O           4.5066  -15.2989  -47.3519 O.2       0 UNK        -0.5000 
      4 N           3.1319  -13.7792  -48.2945 N.am      1 UNK        -0.5000 
      5 CA          2.4049  -13.3536  -47.0891 C.3       1 UNK         0.1400 
      6 C6          1.0038  -12.7785  -47.4394 C.3       23 UNK        -0.0398 
      7 S7         -0.1547  -14.0579  -48.0389 S.3       23 UNK        -0.2404 
      8 C8         -0.0178  -13.9202  -49.8464 C.3       23 UNK        -0.0205 
      9 C9          0.0090  -15.2932  -50.5029 C.ar      23 UNK        -0.0193 
     10 C10        -1.0516  -15.7306  -51.3029 C.ar      23 UNK        -0.1150 
     11 C11        -0.9862  -16.9674  -51.9548 C.ar      23 UNK        -0.0193 
     12 C12         0.1549  -17.7636  -51.8000 C.ar      23 UNK        -0.1150 
     13 C13         1.2070  -17.3524  -50.9785 C.ar      23 UNK        -0.0193 
     14 C14         1.1242  -16.1171  -50.3356 C.ar      23 UNK        -0.1150 
     15 C15         2.4515  -18.2145  -50.8119 C.3       23 UNK        -0.0205 
     16 S16         2.0910  -19.8802  -50.1738 S.3       23 UNK        -0.2404 
     17 C17         1.4481  -19.5217  -48.5027 C.3       23 UNK        -0.0398 
     18 CA          0.6809  -20.7325  -47.9188 C.3       11 UNK         0.1400 
     19 N           0.6174  -20.7007  -46.4549 N.am      11 UNK        -0.5000 
     20 C           0.2508  -21.7452  -45.6968 C.2       10 UNK         0.5000 
     21 O          -0.0494  -22.8486  -46.1544 O.2       10 UNK        -0.5000 
     22 CA          0.1508  -21.5045  -44.1784 C.3       10 UNK         0.1400 
     23 CB          1.5410  -21.4711  -43.5267 C.3       10 UNK        -0.1800 
     24 N          -0.5749  -20.2776  -43.8508 N.am      10 UNK        -0.5000 
     25 C          -1.8557  -20.0446  -44.1708 C.2       9 UNK         0.5000 
     26 O          -2.5792  -20.8607  -44.7352 O.2       9 UNK        -0.5000 
     27 CA         -2.4185  -18.6529  -43.8512 C.3       9 UNK         0.1400 
     28 CB         -3.0981  -18.6407  -42.4749 C.3       9 UNK        -0.1800 
     29 N          -1.3914  -17.6128  -43.9388 N.am      9 UNK        -0.5000 
     30 C          -0.8922  -17.1797  -45.1052 C.2       8 UNK         0.5000 
     31 O          -1.2377  -17.6234  -46.2021 O.2       8 UNK        -0.5000 
     32 CA          0.1937  -16.0929  -45.0285 C.3       8 UNK         0.1400 
     33 CB         -0.3758  -14.7694  -44.4924 C.3       8 UNK        -0.1800 
     34 N           1.3633  -16.4674  -44.2360 N.am      8 UNK        -0.5000 
     35 C           2.1657  -17.5081  -44.5046 C.2       7 UNK         0.5000 
     36 O           1.9364  -18.3464  -45.3762 O.2       7 UNK        -0.5000 
     37 CA          3.4302  -17.6432  -43.6475 C.3       7 UNK         0.1400 
     38 CB          4.4964  -16.6232  -44.0758 C.3       7 UNK        -0.1800 
     39 N           3.1040  -17.4587  -42.2347 N.am      7 UNK        -0.5000 
     40 C           3.2303  -18.4153  -41.3069 C.2       6 UNK         0.5000 
     41 O           3.7362  -19.5183  -41.5176 O.2       6 UNK        -0.5000 
     42 CA          2.6862  -18.1036  -39.9016 C.3       6 UNK         0.1400 
     43 CB          3.7650  -17.4228  -39.0462 C.3       6 UNK        -0.1800 
     44 N           1.4745  -17.2825  -39.8780 N.am      6 UNK        -0.5000 
     45 C           0.3040  -17.5614  -40.4646 C.2       5 UNK         0.5000 
     46 O           0.1262  -18.5032  -41.2373 O.2       5 UNK        -0.5000 
     47 CA         -0.8693  -16.6106  -40.1514 C.3       5 UNK         0.1400 
     48 CB         -1.3547  -16.7646  -38.6972 C.3       5 UNK        -0.1800 
     49 N          -0.6031  -15.2107  -40.4978 N.am      5 UNK        -0.5000 
     50 C           0.2968  -14.3789  -39.9605 C.2       4 UNK         0.5000 
     51 O           1.0063  -14.6491  -38.9879 O.2       4 UNK        -0.5000 
     52 CA          0.4600  -13.0222  -40.6638 C.3       4 UNK         0.1400 
     53 CB         -0.1379  -11.8906  -39.8147 C.3       4 UNK        -0.1800 
     54 N           1.8689  -12.7389  -40.9275 N.am      4 UNK        -0.5000 
     55 C           2.6677  -13.4743  -41.7104 C.2       3 UNK         0.5000 
     56 O           2.2980  -14.4609  -42.3585 O.2       3 UNK        -0.5000 
     57 CA          4.1332  -13.0379  -41.7726 C.3       3 UNK         0.1400 
     58 CB          5.0429  -14.0538  -41.0634 C.3       3 UNK        -0.1800 
     59 N           4.5105  -12.9317  -43.1742 N.am      3 UNK        -0.5000 
     60 C           5.2795  -11.9722  -43.6997 C.2       2 UNK         0.5000 
     61 O           5.8040  -11.0754  -43.0378 O.2       2 UNK        -0.5000 
     62 CA          5.5103  -12.0179  -45.2211 C.3       2 UNK         0.1400 
     63 CB          6.8916  -12.6137  -45.5343 C.3       2 UNK        -0.1800 
     64 N           4.4975  -12.7930  -45.9386 N.am      2 UNK        -0.5000 
     65 C           3.2637  -12.3757  -46.2488 C.2       1 UNK         0.5000 
     66 O           2.8219  -11.2731  -45.9227 O.2       1 UNK        -0.5000 
     67 C          -0.7167  -20.8965  -48.5542 C.2       11 UNK         0.5000 
     68 O          -0.8611  -21.6668  -49.5041 O.2       11 UNK        -0.5000 
     69 N          -1.7304  -20.2210  -47.9905 N.am      12 UNK        -0.5000 
     70 CA         -3.1249  -20.3639  -48.4087 C.3       12 UNK         0.1400 
     71 CB         -3.9968  -19.3054  -47.7197 C.3       12 UNK        -0.1800 
     72 C          -3.6682  -21.7810  -48.1522 C.2       12 UNK         0.5000 
     73 O          -4.2735  -22.3630  -49.0509 O.2       12 UNK        -0.5000 
     74 N          -3.4152  -22.3334  -46.9569 N.am      13 UNK        -0.5000 
     75 CA         -3.7966  -23.6898  -46.5536 C.3       13 UNK         0.1400 
     76 CB         -3.4515  -23.9137  -45.0744 C.3       13 UNK        -0.1800 
     77 C          -3.1584  -24.7818  -47.4287 C.2       13 UNK         0.5000 
     78 O          -3.8411  -25.7415  -47.7881 O.2       13 UNK        -0.5000 
     79 N          -1.8893  -24.5853  -47.8146 N.am      14 UNK        -0.5000 
     80 CA         -1.1643  -25.4371  -48.7629 C.3       14 UNK         0.1400 
     81 CB          0.3112  -25.0117  -48.8023 C.3       14 UNK        -0.1800 
     82 C          -1.7731  -25.4363  -50.1822 C.2       14 UNK         0.5000 
     83 O          -1.6053  -26.4137  -50.9118 O.2       14 UNK        -0.5000 
     84 N          -2.4992  -24.3660  -50.5287 N.am      15 UNK        -0.5000 
     85 CA         -3.2715  -24.2102  -51.7592 C.3       15 UNK         0.1400 
     86 CB         -3.0101  -22.8060  -52.3277 C.3       15 UNK        -0.1800 
     87 C          -4.7762  -24.4687  -51.5279 C.2       15 UNK         0.5000 
     88 O          -5.6005  -23.9472  -52.2799 O.2       15 UNK        -0.5000 
     89 N          -5.1184  -25.2582  -50.4975 N.am      16 UNK        -0.5000 
     90 CA         -6.4700  -25.6944  -50.1258 C.3       16 UNK         0.1400 
     91 CB         -7.0601  -26.6131  -51.2176 C.3       16 UNK        -0.1800 
     92 C          -7.4007  -24.5197  -49.7594 C.2       16 UNK         0.5000 
     93 O          -8.5294  -24.4488  -50.2444 O.2       16 UNK        -0.5000 
     94 N          -6.8856  -23.6005  -48.9312 N.am      17 UNK        -0.5000 
     95 CA         -7.4876  -22.3167  -48.5446 C.3       17 UNK         0.1400 
     96 CB         -8.8149  -22.5137  -47.7825 C.3       17 UNK        -0.1800 
     97 C          -7.6005  -21.3589  -49.7495 C.2       17 UNK         0.5000 
     98 O          -8.6080  -20.6687  -49.9111 O.2       17 UNK        -0.5000 
     99 N          -6.5478  -21.3665  -50.5801 N.am      18 UNK        -0.5000 
    100 CA        -6.3746  -20.6329  -51.8372 C.3       18 UNK         0.1400 
    101 CB        -6.2790  -19.1165  -51.5731 C.3       18 UNK        -0.1800 
    102 C         -7.4040  -20.9935  -52.9331 C.2       18 UNK         0.5000 
    103 O         -7.6254  -20.1959  -53.8457 O.2       18 UNK        -0.5000 
    104 N         -8.0070  -22.1869  -52.8395 N.am      19 UNK        -0.5000 
    105 CA        -8.9404  -22.7258  -53.8292 C.3       19 UNK         0.1400 
    106 CB        -9.8740  -23.7372  -53.1487 C.3       19 UNK        -0.1800 
    107 C         -8.2157  -23.3852  -55.0165 C.2       19 UNK         0.5000 
    108 O         -8.7677  -23.4141  -56.1179 O.2       19 UNK        -0.5000 
    109 N         -7.0049  -23.9059  -54.7762 N.am      20 UNK        -0.5000 
    110 CA        -6.1219  -24.4825  -55.7872 C.3       20 UNK         0.1400 
    111 CB        -5.2735  -25.5878  -55.1288 C.3       20 UNK        -0.1800 
    112 C         -5.2511  -23.3906  -56.4442 C.2       20 UNK         0.5000 
    113 O         -5.5408  -22.1966  -56.3232 O.2       20 UNK        -0.5000 
    114 N         -4.1867  -23.8169  -57.1359 N.am      21 UNK        -0.5000 
    115 CA        -3.1991  -22.9658  -57.8013 C.3       21 UNK         0.1400 
    116 CB        -2.4080  -23.8237  -58.8051 C.3       21 UNK        -0.1800 
    117 C         -2.2829  -22.2402  -56.7913 C.2       21 UNK         0.5000 
    118 O         -1.1051  -22.5793  -56.6631 O.2       21 UNK        -0.5000 
    119 N         -2.8579  -21.2663  -56.0769 N.am      22 UNK        -0.5000 
    120 CA        -2.1775  -20.3962  -55.1053 C.3       22 UNK         0.1400 
    121 C         -1.0927  -19.4723  -55.7364 C.2       22 UNK         0.5000 
    122 N         -1.2434  -19.0457  -56.9852 N.am      22 UNK        -0.7600 
    123 O         -0.0939  -19.1558  -55.0980 O.2       22 UNK        -0.5000 
    124 C124       -3.2146  -19.5869  -54.2776 C.3       23 UNK        -0.0398 
    125 S125       -2.6238  -19.1394  -52.6099 S.3       23 UNK        -0.2404 
    126 C126       -2.1161  -17.4071  -52.8782 C.3       23 UNK        -0.0205 
    127 H127        4.1469  -14.5475  -50.5174 H         1 UNK         0.0600 
    128 H128        5.7364  -14.5042  -49.7440 H         1 UNK         0.0600 
    129 H129        4.8554  -16.0284  -49.8685 H         1 UNK         0.0600 
    130 H130        2.8899  -13.2822  -49.1390 H         1 UNK         0.3000 
    131 H131        2.2510  -14.2298  -46.4559 H         1 UNK         0.0600 
    132 H132        0.5383  -12.3436  -46.5532 H         1 UNK         0.0800 
    133 H133        1.0796  -11.9670  -48.1647 H         1 UNK         0.0800 
    134 H134       -0.8515  -13.3242  -50.2205 H         1 UNK         0.0800 
    135 H135        0.8899  -13.3833  -50.1223 H         1 UNK         0.0800 
    136 H136       -1.9169  -15.0970  -51.4376 H         1 UNK         0.1150 
    137 H137        0.2250  -18.7090  -52.3201 H         1 UNK         0.1150 
    138 H138        1.9349  -15.7884  -49.7072 H         1 UNK         0.1150 
    139 H139        2.9435  -18.3084  -51.7808 H         1 UNK         0.0800 
    140 H140        3.1713  -17.7375  -50.1458 H         1 UNK         0.0800 
    141 H141        0.8234  -18.6264  -48.5105 H         1 UNK         0.0800 
    142 H142        2.3091  -19.2847  -47.8765 H         1 UNK         0.0800 
    143 H143        1.2480  -21.6318  -48.1709 H         1 UNK         0.0600 
    144 H144        0.8822  -19.8272  -46.0063 H         1 UNK         0.3000 
    145 H145       -0.4041  -22.3403  -43.7472 H         1 UNK         0.0600 
    146 H146        1.4671  -21.3577  -42.4448 H         1 UNK         0.0600 
    147 H147        2.0847  -22.3964  -43.7209 H         1 UNK         0.0600 
    148 H148        2.1483  -20.6493  -43.9054 H         1 UNK         0.0600 
    149 H149       -0.0659  -19.5602  -43.3521 H         1 UNK         0.3000 
    150 H150       -3.1872  -18.4287  -44.5936 H         1 UNK         0.0600 
    151 H151       -3.9457  -19.3271  -42.4623 H         1 UNK         0.0600 
    152 H152       -3.4831  -17.6511  -42.2296 H         1 UNK         0.0600 
    153 H153       -2.4217  -18.9575  -41.6819 H         1 UNK         0.0600 
    154 H154       -1.0037  -17.2679  -43.0746 H         1 UNK         0.3000 
    155 H155        0.5476  -15.9305  -46.0464 H         1 UNK         0.0600 
    156 H156        0.3658  -13.9721  -44.5424 H         1 UNK         0.0600 
    157 H157       -0.6970  -14.8577  -43.4553 H         1 UNK         0.0600 
    158 H158       -1.2380  -14.4485  -45.0783 H         1 UNK         0.0600 
    159 H159        1.6456  -15.8056  -43.5187 H         1 UNK         0.3000 
    160 H160        3.8371  -18.6405  -43.8267 H         1 UNK         0.0600 
    161 H161        4.1310  -15.5996  -44.0133 H         1 UNK         0.0600 
    162 H162        4.8034  -16.7977  -45.1073 H         1 UNK         0.0600 
    163 H163        5.3889  -16.7006  -43.4549 H         1 UNK         0.0600 
    164 H164        2.6769  -16.5787  -41.9748 H         1 UNK         0.3000 
    165 H165        2.4349  -19.0581  -39.4350 H         1 UNK         0.0600 
    166 H166        4.0154  -16.4341  -39.4311 H         1 UNK         0.0600 
    167 H167        3.4344  -17.3059  -38.0140 H         1 UNK         0.0600 
    168 H168        4.6828  -18.0121  -39.0284 H         1 UNK         0.0600 
    169 H169        1.5109  -16.4338  -39.3191 H         1 UNK         0.3000 
    170 H170       -1.6976  -16.9075  -40.7915 H         1 UNK         0.0600 
    171 H171       -1.6480  -17.7955  -38.4952 H         1 UNK         0.0600 
    172 H172       -0.5849  -16.4999  -37.9722 H         1 UNK         0.0600 
    173 H173       -2.2245  -16.1364  -38.5051 H         1 UNK         0.0600 
    174 H174       -1.1350  -14.8661  -41.2837 H         1 UNK         0.3000 
    175 H175       -0.0606  -13.0470  -41.6234 H         1 UNK         0.0600 
    176 H176       -0.0584  -10.9300  -40.3241 H         1 UNK         0.0600 
    177 H177       -1.1963  -12.0674  -39.6190 H         1 UNK         0.0600 
    178 H178        0.3637  -11.8023  -38.8500 H         1 UNK         0.0600 
    179 H179        2.2674  -11.9666  -40.4141 H         1 UNK         0.3000 
    180 H180        4.2347  -12.0682  -41.2803 H         1 UNK         0.0600 
    181 H181        4.9589  -15.0489  -41.5011 H         1 UNK         0.0600 
    182 H182        4.7842  -14.1345  -40.0071 H         1 UNK         0.0600 
    183 H183        6.0887  -13.7517  -41.1198 H         1 UNK         0.0600 
    184 H184        4.0751  -13.6017  -43.7915 H         1 UNK         0.3000 
    185 H185        5.4886  -10.9901  -45.5895 H         1 UNK         0.0600 
    186 H186        7.0968  -12.5923  -46.6048 H         1 UNK         0.0600 
    187 H187        7.6835  -12.0485  -45.0410 H         1 UNK         0.0600 
    188 H188        6.9679  -13.6489  -45.1986 H         1 UNK         0.0600 
    189 H189        4.7727  -13.7136  -46.2699 H         1 UNK         0.3000 
    190 H190       -1.5392  -19.5845  -47.2259 H         1 UNK         0.3000 
    191 H191       -3.1685  -20.1832  -49.4852 H         1 UNK         0.0600 
    192 H192       -3.6341  -18.2990  -47.9301 H         1 UNK         0.0600 
    193 H193       -5.0270  -19.3614  -48.0737 H         1 UNK         0.0600 
    194 H194       -4.0137  -19.4365  -46.6381 H         1 UNK         0.0600 
    195 H195       -2.9482  -21.7738  -46.2452 H         1 UNK         0.3000 
    196 H196       -4.8797  -23.7726  -46.6609 H         1 UNK         0.0600 
    197 H197       -3.7242  -24.9205  -44.7556 H         1 UNK         0.0600 
    198 H198       -3.9906  -23.2147  -44.4348 H         1 UNK         0.0600 
    199 H199       -2.3851  -23.7856  -44.8861 H         1 UNK         0.0600 
    200 H200       -1.3824  -23.7911  -47.4372 H         1 UNK         0.3000 
    201 H201       -1.2117  -26.4620  -48.3895 H         1 UNK         0.0600 
    202 H202        0.7663  -25.0735  -47.8136 H         1 UNK         0.0600 
    203 H203        0.4262  -23.9885  -49.1599 H         1 UNK         0.0600 
    204 H204        0.8866  -25.6577  -49.4664 H         1 UNK         0.0600 
    205 H205       -2.5908  -23.6106  -49.8603 H         1 UNK         0.3000 
    206 H206       -2.9392  -24.9365  -52.5028 H         1 UNK         0.0600 
    207 H207       -1.9474  -22.6520  -52.5148 H         1 UNK         0.0600 
    208 H208       -3.5308  -22.6552  -53.2742 H         1 UNK         0.0600 
    209 H209       -3.3376  -22.0284  -51.6376 H         1 UNK         0.0600 
    210 H210       -4.3802  -25.5869  -49.8870 H         1 UNK         0.3000 
    211 H211       -6.3611  -26.2903  -49.2186 H         1 UNK         0.0600 
    212 H212       -7.2399  -26.0762  -52.1495 H         1 UNK         0.0600 
    213 H213       -8.0123  -27.0376  -50.8977 H         1 UNK         0.0600 
    214 H214       -6.3913  -27.4457  -51.4354 H         1 UNK         0.0600 
    215 H215       -5.9101  -23.7026  -48.6814 H         1 UNK         0.3000 
    216 H216       -6.7871  -21.8485  -47.8519 H         1 UNK         0.0600 
    217 H217       -8.6928  -23.2078  -46.9511 H         1 UNK         0.0600 
    218 H218       -9.6055  -22.8969  -48.4277 H         1 UNK         0.0600 
    219 H219       -9.1666  -21.5687  -47.3672 H         1 UNK         0.0600 
    220 H220       -5.7681  -21.9613  -50.3184 H         1 UNK         0.3000 
    221 H221       -5.4107  -20.9541  -52.2303 H         1 UNK         0.0600 
    222 H222       -7.2277  -18.7049  -51.2281 H         1 UNK         0.0600 
    223 H223       -5.5215  -18.8959  -50.8208 H         1 UNK         0.0600 
    224 H224       -5.9969  -18.5777  -52.4784 H         1 UNK         0.0600 
    225 H225       -7.7470  -22.7987  -52.0769 H         1 UNK         0.3000 
    226 H226       -9.5538  -21.9109  -54.2194 H         1 UNK         0.0600 
    227 H227      -10.3831  -23.2935  -52.2928 H         1 UNK         0.0600 
    228 H228      -10.6411  -24.0858  -53.8410 H         1 UNK         0.0600 
    229 H229       -9.3285  -24.6139  -52.7979 H         1 UNK         0.0600 
    230 H230       -6.6076  -23.8121  -53.8444 H         1 UNK         0.3000 
    231 H231       -6.7259  -24.9416  -56.5723 H         1 UNK         0.0600 
    232 H232       -5.8904  -26.2552  -54.5263 H         1 UNK         0.0600 
    233 H233       -4.5026  -25.1712  -54.4809 H         1 UNK         0.0600 
    234 H234       -4.7756  -26.2053  -55.8768 H         1 UNK         0.0600 
    235 H235       -4.0038  -24.8091  -57.1692 H         1 UNK         0.3000 
    236 H236       -3.7294  -22.1993  -58.3705 H         1 UNK         0.0600 
    237 H237       -3.0669  -24.2588  -59.5568 H         1 UNK         0.0600 
    238 H238       -1.6673  -23.2226  -59.3341 H         1 UNK         0.0600 
    239 H239       -1.8780  -24.6393  -58.3114 H         1 UNK         0.0600 
    240 H240       -3.8562  -21.1291  -56.1973 H         1 UNK         0.3000 
    241 H241       -1.6508  -21.0654  -54.4225 H         1 UNK         0.0600 
    242 H242       -2.0520  -19.3054  -57.5271 H         1 UNK         0.3800 
    243 H243       -0.5343  -18.4583  -57.3953 H         1 UNK         0.3800 
    244 H244       -3.5523  -18.6996  -54.8160 H         1 UNK         0.0800 
    245 H245       -4.1118  -20.1881  -54.1256 H         1 UNK         0.0800 
    246 H246       -2.9916  -16.7683  -52.7535 H         1 UNK         0.0800 
    247 H247       -1.7766  -17.2688  -53.9046 H         1 UNK         0.0800 
@<TRIPOS>BOND
     1    1    2 1    
     2    1  127 1    
     3    1  128 1    
     4    1  129 1    
     5    2    3 2    
     6    2    4 am   BACKBONE|DICT|INTERRES
     7    4    5 1    
     8    4  130 1    
     9    5    6 1    
    10    5   65 1    
    11    5  131 1    
    12    6    7 1    
    13    6  132 1    
    14    6  133 1    
    15    7    8 1    
    16    8    9 1    
    17    8  134 1    
    18    8  135 1    
    19    9   10 ar   
    20    9   14 ar   
    21   10   11 ar   
    22   10  136 1    
    23   11   12 ar   
    24   11  126 1    
    25   12   13 ar   
    26   12  137 1    
    27   13   14 ar   
    28   13   15 1    
    29   14  138 1    
    30   15   16 1    
    31   15  139 1    
    32   15  140 1    
    33   16   17 1    
    34   17   18 1    
    35   17  141 1    
    36   17  142 1    
    37   18   19 1    
    38   18   67 1    
    39   18  143 1    
    40   19   20 am   BACKBONE|DICT|INTERRES
    41   19  144 1    
    42   20   21 2    
    43   20   22 1    
    44   22   23 1    
    45   22   24 1    
    46   22  145 1    
    47   23  146 1    
    48   23  147 1    
    49   23  148 1    
    50   24   25 am   BACKBONE|DICT|INTERRES
    51   24  149 1    
    52   25   26 2    
    53   25   27 1    
    54   27   28 1    
    55   27   29 1    
    56   27  150 1    
    57   28  151 1    
    58   28  152 1    
    59   28  153 1    
    60   29   30 am   BACKBONE|DICT|INTERRES
    61   29  154 1    
    62   30   31 2    
    63   30   32 1    
    64   32   33 1    
    65   32   34 1    
    66   32  155 1    
    67   33  156 1    
    68   33  157 1    
    69   33  158 1    
    70   34   35 am   BACKBONE|DICT|INTERRES
    71   34  159 1    
    72   35   36 2    
    73   35   37 1    
    74   37   38 1    
    75   37   39 1    
    76   37  160 1    
    77   38  161 1    
    78   38  162 1    
    79   38  163 1    
    80   39   40 am   BACKBONE|DICT|INTERRES
    81   39  164 1    
    82   40   41 2    
    83   40   42 1    
    84   42   43 1    
    85   42   44 1    
    86   42  165 1    
    87   43  166 1    
    88   43  167 1    
    89   43  168 1    
    90   44   45 am   BACKBONE|DICT|INTERRES
    91   44  169 1    
    92   45   46 2    
    93   45   47 1    
    94   47   48 1    
    95   47   49 1    
    96   47  170 1    
    97   48  171 1    
    98   48  172 1    
    99   48  173 1    
   100   49   50 am   BACKBONE|DICT|INTERRES
   101   49  174 1    
   102   50   51 2    
   103   50   52 1    
   104   52   53 1    
   105   52   54 1    
   106   52  175 1    
   107   53  176 1    
   108   53  177 1    
   109   53  178 1    
   110   54   55 am   BACKBONE|DICT|INTERRES
   111   54  179 1    
   112   55   56 2    
   113   55   57 1    
   114   57   58 1    
   115   57   59 1    
   116   57  180 1    
   117   58  181 1    
   118   58  182 1    
   119   58  183 1    
   120   59   60 am   BACKBONE|DICT|INTERRES
   121   59  184 1    
   122   60   61 2    
   123   60   62 1    
   124   62   63 1    
   125   62   64 1    
   126   62  185 1    
   127   63  186 1    
   128   63  187 1    
   129   63  188 1    
   130   64   65 am   BACKBONE|DICT|INTERRES
   131   64  189 1    
   132   65   66 2    
   133   67   68 2    
   134   67   69 am   BACKBONE|DICT|INTERRES
   135   69   70 1    
   136   69  190 1    
   137   70   71 1    
   138   70   72 1    
   139   70  191 1    
   140   71  192 1    
   141   71  193 1    
   142   71  194 1    
   143   72   73 2    
   144   72   74 am   BACKBONE|DICT|INTERRES
   145   74   75 1    
   146   74  195 1    
   147   75   76 1    
   148   75   77 1    
   149   75  196 1    
   150   76  197 1    
   151   76  198 1    
   152   76  199 1    
   153   77   78 2    
   154   77   79 am   BACKBONE|DICT|INTERRES
   155   79   80 1    
   156   79  200 1    
   157   80   81 1    
   158   80   82 1    
   159   80  201 1    
   160   81  202 1    
   161   81  203 1    
   162   81  204 1    
   163   82   83 2    
   164   82   84 am   BACKBONE|DICT|INTERRES
   165   84   85 1    
   166   84  205 1    
   167   85   86 1    
   168   85   87 1    
   169   85  206 1    
   170   86  207 1    
   171   86  208 1    
   172   86  209 1    
   173   87   88 2    
   174   87   89 am   BACKBONE|DICT|INTERRES
   175   89   90 1    
   176   89  210 1    
   177   90   91 1    
   178   90   92 1    
   179   90  211 1    
   180   91  212 1    
   181   91  213 1    
   182   91  214 1    
   183   92   93 2    
   184   92   94 am   BACKBONE|DICT|INTERRES
   185   94   95 1    
   186   94  215 1    
   187   95   96 1    
   188   95   97 1    
   189   95  216 1    
   190   96  217 1    
   191   96  218 1    
   192   96  219 1    
   193   97   98 2    
   194   97   99 am   BACKBONE|DICT|INTERRES
   195   99  100 1    
   196   99  220 1    
   197  100  101 1    
   198  100  102 1    
   199  100  221 1    
   200  101  222 1    
   201  101  223 1    
   202  101  224 1    
   203  102  103 2    
   204  102  104 am   BACKBONE|DICT|INTERRES
   205  104  105 1    
   206  104  225 1    
   207  105  106 1    
   208  105  107 1    
   209  105  226 1    
   210  106  227 1    
   211  106  228 1    
   212  106  229 1    
   213  107  108 2    
   214  107  109 am   BACKBONE|DICT|INTERRES
   215  109  110 1    
   216  109  230 1    
   217  110  111 1    
   218  110  112 1    
   219  110  231 1    
   220  111  232 1    
   221  111  233 1    
   222  111  234 1    
   223  112  113 2    
   224  112  114 am   BACKBONE|DICT|INTERRES
   225  114  115 1    
   226  114  235 1    
   227  115  116 1    
   228  115  117 1    
   229  115  236 1    
   230  116  237 1    
   231  116  238 1    
   232  116  239 1    
   233  117  118 2    
   234  117  119 am   BACKBONE|DICT|INTERRES
   235  119  120 1    
   236  119  240 1    
   237  120  121 1    
   238  120  124 1    
   239  120  241 1    
   240  121  122 am   BACKBONE|DICT|INTERRES
   241  121  123 2    
   242  122  242 1    
   243  122  243 1    
   244  124  125 1    
   245  124  244 1    
   246  124  245 1    
   247  125  126 1    
   248  126  246 1    
   249  126  247 1    
@<TRIPOS>SUBSTRUCTURE
     1 UNK         1 GROUP             0       ****    0 ROOT    
