@<TRIPOS>MOLECULE
3R540
247   249    1
SMALL
USER_CHARGES


@<TRIPOS>ATOM
      1 CA         -3.3678  -13.7325  -48.0539 C.3       0 UNK        -0.1800 
      2 C          -2.1181  -13.2056  -48.7439 C.2       0 UNK         0.5000 
      3 O          -1.5509  -12.2091  -48.2968 O.2       0 UNK        -0.5000 
      4 N          -1.6707  -13.8741  -49.8160 N.am      1 UNK        -0.5000 
      5 CA         -0.4982  -13.5070  -50.6274 C.3       1 UNK         0.1400 
      6 C6         -0.4025  -14.3462  -51.9273 C.3       23 UNK        -0.0398 
      7 S7         -0.2013  -16.1436  -51.6559 S.3       23 UNK        -0.2404 
      8 C8          1.5107  -16.3942  -52.2111 C.3       23 UNK        -0.0205 
      9 C9          1.9288  -17.8408  -52.0151 C.ar      23 UNK        -0.0193 
     10 C10         1.8428  -18.7554  -53.0690 C.ar      23 UNK        -0.1150 
     11 C11         2.2017  -20.0951  -52.8785 C.ar      23 UNK        -0.0193 
     12 C12         2.6513  -20.5082  -51.6207 C.ar      23 UNK        -0.1150 
     13 C13         2.7526  -19.6025  -50.5611 C.ar      23 UNK        -0.0193 
     14 C14         2.3974  -18.2660  -50.7699 C.ar      23 UNK        -0.1150 
     15 C15         3.2697  -20.0827  -49.2084 C.3       23 UNK        -0.0205 
     16 S16         2.3411  -19.4328  -47.7799 S.3       23 UNK        -0.2404 
     17 C17         0.6625  -20.0781  -48.0827 C.3       23 UNK        -0.0398 
     18 CA          0.4359  -21.4698  -47.4505 C.3       11 UNK         0.1400 
     19 N           0.5363  -21.4625  -45.9871 N.am      11 UNK        -0.5000 
     20 C           0.5486  -22.5598  -45.2176 C.2       10 UNK         0.5000 
     21 O           0.5074  -23.7050  -45.6655 O.2       10 UNK        -0.5000 
     22 CA          0.5561  -22.3495  -43.6926 C.3       10 UNK         0.1400 
     23 CB          1.9676  -22.0292  -43.1779 C.3       10 UNK        -0.1800 
     24 N          -0.3801  -21.3067  -43.2725 N.am      10 UNK        -0.5000 
     25 C          -1.7134  -21.4166  -43.3616 C.2       9 UNK         0.5000 
     26 O          -2.2883  -22.4296  -43.7625 O.2       9 UNK        -0.5000 
     27 CA         -2.5425  -20.1742  -42.9808 C.3       9 UNK         0.1400 
     28 CB         -2.7215  -20.0832  -41.4582 C.3       9 UNK        -0.1800 
     29 N          -1.9634  -18.9266  -43.4824 N.am      9 UNK        -0.5000 
     30 C          -1.7901  -18.6440  -44.7811 C.2       8 UNK         0.5000 
     31 O          -2.1565  -19.3828  -45.6919 O.2       8 UNK        -0.5000 
     32 CA         -1.0174  -17.3598  -45.1270 C.3       8 UNK         0.1400 
     33 CB         -1.9410  -16.1336  -45.1131 C.3       8 UNK        -0.1800 
     34 N           0.1274  -17.1310  -44.2456 N.am      8 UNK        -0.5000 
     35 C           1.1660  -17.9684  -44.1135 C.2       7 UNK         0.5000 
     36 O           1.2668  -19.0283  -44.7249 O.2       7 UNK        -0.5000 
     37 CA          2.2378  -17.5949  -43.0790 C.3       7 UNK         0.1400 
     38 CB          3.1863  -16.5164  -43.6210 C.3       7 UNK        -0.1800 
     39 N           1.6300  -17.1449  -41.8297 N.am      7 UNK        -0.5000 
     40 C           0.9886  -17.9543  -40.9750 C.2       6 UNK         0.5000 
     41 O           0.8968  -19.1736  -41.1224 O.2       6 UNK        -0.5000 
     42 CA          0.3039  -17.2770  -39.7743 C.3       6 UNK         0.1400 
     43 CB          1.3002  -17.0795  -38.6221 C.3       6 UNK        -0.1800 
     44 N          -0.2953  -15.9874  -40.1248 N.am      6 UNK        -0.5000 
     45 C          -1.3482  -15.8439  -40.9415 C.2       5 UNK         0.5000 
     46 O          -1.9368  -16.7863  -41.4709 O.2       5 UNK        -0.5000 
     47 CA         -1.7907  -14.4020  -41.2494 C.3       5 UNK         0.1400 
     48 CB         -2.7149  -13.8724  -40.1428 C.3       5 UNK        -0.1800 
     49 N          -0.6739  -13.4708  -41.4396 N.am      5 UNK        -0.5000 
     50 C           0.2366  -13.5678  -42.4169 C.2       4 UNK         0.5000 
     51 O           0.2883  -14.5068  -43.2130 O.2       4 UNK        -0.5000 
     52 CA          1.2803  -12.4439  -42.5117 C.3       4 UNK         0.1400 
     53 CB          2.6353  -12.9085  -41.9577 C.3       4 UNK        -0.1800 
     54 N           1.4444  -12.0243  -43.9018 N.am      4 UNK        -0.5000 
     55 C           0.5731  -11.2607  -44.5702 C.2       3 UNK         0.5000 
     56 O          -0.4210  -10.7519  -44.0499 O.2       3 UNK        -0.5000 
     57 CA          0.8420  -11.0227  -46.0677 C.3       3 UNK         0.1400 
     58 CB          1.9814  -10.0086  -46.2866 C.3       3 UNK        -0.1800 
     59 N           1.0426  -12.2486  -46.8499 N.am      3 UNK        -0.5000 
     60 C           2.0681  -13.1148  -46.8306 C.2       2 UNK         0.5000 
     61 O           3.0361  -13.0068  -46.0764 O.2       2 UNK        -0.5000 
     62 CA          2.0067  -14.3176  -47.7994 C.3       2 UNK         0.1400 
     63 CB          1.9035  -15.6325  -47.0180 C.3       2 UNK        -0.1800 
     64 N           0.8851  -14.2576  -48.7361 N.am      2 UNK        -0.5000 
     65 C           0.8365  -13.5076  -49.8448 C.2       1 UNK         0.5000 
     66 O           1.7757  -12.8178  -50.2432 O.2       1 UNK        -0.5000 
     67 C          -0.8986  -22.0705  -47.9334 C.2       11 UNK         0.5000 
     68 O          -0.8913  -22.8699  -48.8679 O.2       11 UNK        -0.5000 
     69 N          -2.0084  -21.7177  -47.2689 N.am      12 UNK        -0.5000 
     70 CA         -3.3405  -22.2720  -47.5108 C.3       12 UNK         0.1400 
     71 CB         -4.3663  -21.5505  -46.6245 C.3       12 UNK        -0.1800 
     72 C          -3.4027  -23.7903  -47.2784 C.2       12 UNK         0.5000 
     73 O          -3.9646  -24.5059  -48.1086 O.2       12 UNK        -0.5000 
     74 N          -2.7909  -24.2519  -46.1784 N.am      13 UNK        -0.5000 
     75 CA         -2.6593  -25.6670  -45.8353 C.3       13 UNK         0.1400 
     76 CB         -2.1324  -25.8038  -44.3990 C.3       13 UNK        -0.1800 
     77 C          -1.7680  -26.4373  -46.8267 C.2       13 UNK         0.5000 
     78 O          -2.1333  -27.5416  -47.2290 O.2       13 UNK        -0.5000 
     79 N          -0.6402  -25.8332  -47.2287 N.am      14 UNK        -0.5000 
     80 CA          0.2970  -26.3793  -48.2138 C.3       14 UNK         0.1400 
     81 CB          1.5726  -25.5235  -48.2427 C.3       14 UNK        -0.1800 
     82 C          -0.3135  -26.4936  -49.6229 C.2       14 UNK         0.5000 
     83 O          -0.0997  -27.5009  -50.2985 O.2       14 UNK        -0.5000 
     84 N          -1.0854  -25.4756  -50.0272 N.am      15 UNK        -0.5000 
     85 CA         -1.8486  -25.4497  -51.2766 C.3       15 UNK         0.1400 
     86 CB         -2.3009  -24.0054  -51.5514 C.3       15 UNK        -0.1800 
     87 C          -3.0718  -26.3877  -51.2593 C.2       15 UNK         0.5000 
     88 O          -3.5686  -26.7435  -52.3283 O.2       15 UNK        -0.5000 
     89 N          -3.5443  -26.7375  -50.0525 N.am      16 UNK        -0.5000 
     90 CA         -4.7879  -27.4506  -49.7443 C.3       16 UNK         0.1400 
     91 CB         -4.7291  -28.9089  -50.2435 C.3       16 UNK        -0.1800 
     92 C          -6.0223  -26.6745  -50.2500 C.2       16 UNK         0.5000 
     93 O          -6.9423  -27.2625  -50.8226 O.2       16 UNK        -0.5000 
     94 N          -5.9910  -25.3511  -50.0566 N.am      17 UNK        -0.5000 
     95 CA         -6.9509  -24.3927  -50.5874 C.3       17 UNK         0.1400 
     96 CB         -6.6875  -24.1635  -52.0942 C.3       17 UNK        -0.1800 
     97 C          -6.8871  -23.1176  -49.7311 C.2       17 UNK         0.5000 
     98 O          -7.2170  -23.1728  -48.5457 O.2       17 UNK        -0.5000 
     99 N          -6.4668  -22.0005  -50.3318 N.am      18 UNK        -0.5000 
    100 CA        -6.3138  -20.6941  -49.7057 C.3       18 UNK         0.1400 
    101 CB        -7.5718  -19.8512  -49.9726 C.3       18 UNK        -0.1800 
    102 C         -5.0715  -20.0150  -50.2936 C.2       18 UNK         0.5000 
    103 O         -4.6712  -20.3331  -51.4169 O.2       18 UNK        -0.5000 
    104 N         -4.5122  -19.0478  -49.5579 N.am      19 UNK        -0.5000 
    105 CA        -3.3771  -18.2196  -49.9766 C.3       19 UNK         0.1400 
    106 CB        -2.6402  -17.7078  -48.7276 C.3       19 UNK        -0.1800 
    107 C         -3.8031  -17.0789  -50.9270 C.2       19 UNK         0.5000 
    108 O         -3.3624  -15.9407  -50.7715 O.2       19 UNK        -0.5000 
    109 N         -4.6426  -17.4029  -51.9146 N.am      20 UNK        -0.5000 
    110 CA        -5.1042  -16.5070  -52.9727 C.3       20 UNK         0.1400 
    111 CB        -6.5944  -16.7891  -53.2374 C.3       20 UNK        -0.1800 
    112 C         -4.2220  -16.7114  -54.2177 C.2       20 UNK         0.5000 
    113 O         -4.7263  -17.0654  -55.2842 O.2       20 UNK        -0.5000 
    114 N         -2.9041  -16.5429  -54.0263 N.am      21 UNK        -0.5000 
    115 CA        -1.8247  -16.8797  -54.9638 C.3       21 UNK         0.1400 
    116 CB        -1.8896  -16.0059  -56.2342 C.3       21 UNK        -0.1800 
    117 C         -1.7534  -18.3957  -55.2570 C.2       21 UNK         0.5000 
    118 O         -1.4588  -18.7871  -56.3875 O.2       21 UNK        -0.5000 
    119 N         -2.0237  -19.1996  -54.2149 N.am      22 UNK        -0.5000 
    120 CA        -2.0620  -20.6732  -54.1807 C.3       22 UNK         0.1400 
    121 C         -2.8730  -21.3381  -55.3372 C.2       22 UNK         0.5000 
    122 N         -2.3921  -22.4118  -55.9516 N.am      22 UNK        -0.7600 
    123 O         -3.9867  -20.9174  -55.6403 O.2       22 UNK        -0.5000 
    124 C124       -0.6844  -21.3205  -53.8455 C.3       23 UNK        -0.0398 
    125 S125        0.6461  -20.9990  -55.0557 S.3       23 UNK        -0.2404 
    126 C126        2.1431  -21.1082  -54.0196 C.3       23 UNK        -0.0205 
    127 H127       -3.7253  -14.6570  -48.5049 H         1 UNK         0.0600 
    128 H128       -4.1671  -12.9942  -48.1145 H         1 UNK         0.0600 
    129 H129       -3.1613  -13.9264  -47.0016 H         1 UNK         0.0600 
    130 H130       -2.1998  -14.6786  -50.1509 H         1 UNK         0.3000 
    131 H131       -0.6583  -12.4711  -50.9337 H         1 UNK         0.0600 
    132 H132        0.4064  -13.9748  -52.5591 H         1 UNK         0.0800 
    133 H133       -1.3113  -14.2019  -52.5129 H         1 UNK         0.0800 
    134 H134        1.6006  -16.1115  -53.2611 H         1 UNK         0.0800 
    135 H135        2.1781  -15.7367  -51.6515 H         1 UNK         0.0800 
    136 H136        1.4914  -18.4255  -54.0363 H         1 UNK         0.1150 
    137 H137        2.9361  -21.5400  -51.4685 H         1 UNK         0.1150 
    138 H138        2.4717  -17.5552  -49.9590 H         1 UNK         0.1150 
    139 H139        3.2595  -21.1725  -49.1572 H         1 UNK         0.0800 
    140 H140        4.3128  -19.7800  -49.1110 H         1 UNK         0.0800 
    141 H141        0.4791  -20.1027  -49.1582 H         1 UNK         0.0800 
    142 H142       -0.0480  -19.3590  -47.6743 H         1 UNK         0.0800 
    143 H143        1.2243  -22.1293  -47.8184 H         1 UNK         0.0600 
    144 H144        0.6430  -20.5524  -45.5424 H         1 UNK         0.3000 
    145 H145        0.2393  -23.2864  -43.2295 H         1 UNK         0.0600 
    146 H146        1.9752  -21.9170  -42.0935 H         1 UNK         0.0600 
    147 H147        2.6623  -22.8318  -43.4279 H         1 UNK         0.0600 
    148 H148        2.3626  -21.1106  -43.6105 H         1 UNK         0.0600 
    149 H149        0.0203  -20.4375  -42.9435 H         1 UNK         0.3000 
    150 H150       -3.5304  -20.2857  -43.4322 H         1 UNK         0.0600 
    151 H151       -3.1650  -20.9971  -41.0612 H         1 UNK         0.0600 
    152 H152       -3.3804  -19.2577  -41.1884 H         1 UNK         0.0600 
    153 H153       -1.7696  -19.9303  -40.9489 H         1 UNK         0.0600 
    154 H154       -1.6865  -18.2377  -42.7895 H         1 UNK         0.3000 
    155 H155       -0.6300  -17.4764  -46.1409 H         1 UNK         0.0600 
    156 H156       -2.3425  -15.9456  -44.1176 H         1 UNK         0.0600 
    157 H157       -2.7869  -16.2734  -45.7867 H         1 UNK         0.0600 
    158 H158       -1.4114  -15.2367  -45.4352 H         1 UNK         0.0600 
    159 H159        0.1373  -16.2518  -43.7325 H         1 UNK         0.3000 
    160 H160        2.8301  -18.4882  -42.8687 H         1 UNK         0.0600 
    161 H161        2.6492  -15.6194  -43.9296 H         1 UNK         0.0600 
    162 H162        3.7312  -16.8873  -44.4896 H         1 UNK         0.0600 
    163 H163        3.9263  -16.2274  -42.8747 H         1 UNK         0.0600 
    164 H164        1.6126  -16.1503  -41.6626 H         1 UNK         0.3000 
    165 H165       -0.4921  -17.9401  -39.4285 H         1 UNK         0.0600 
    166 H166        0.8071  -16.6690  -37.7407 H         1 UNK         0.0600 
    167 H167        1.7500  -18.0290  -38.3288 H         1 UNK         0.0600 
    168 H168        2.1104  -16.4040  -38.8994 H         1 UNK         0.0600 
    169 H169        0.1302  -15.1601  -39.7334 H         1 UNK         0.3000 
    170 H170       -2.3604  -14.4268  -42.1805 H         1 UNK         0.0600 
    171 H171       -3.5657  -14.5386  -39.9927 H         1 UNK         0.0600 
    172 H172       -2.1940  -13.7849  -39.1886 H         1 UNK         0.0600 
    173 H173       -3.1146  -12.8910  -40.3989 H         1 UNK         0.0600 
    174 H174       -0.6451  -12.6731  -40.8209 H         1 UNK         0.3000 
    175 H175        0.9427  -11.5892  -41.9216 H         1 UNK         0.0600 
    176 H176        2.5420  -13.2494  -40.9259 H         1 UNK         0.0600 
    177 H177        3.0511  -13.7298  -42.5406 H         1 UNK         0.0600 
    178 H178        3.3611  -12.0953  -41.9666 H         1 UNK         0.0600 
    179 H179        2.1990  -12.4493  -44.4326 H         1 UNK         0.3000 
    180 H180       -0.0652  -10.5733  -46.4750 H         1 UNK         0.0600 
    181 H181        2.9317  -10.3638  -45.8876 H         1 UNK         0.0600 
    182 H182        1.7570   -9.0625  -45.7926 H         1 UNK         0.0600 
    183 H183        2.1208   -9.7967  -47.3467 H         1 UNK         0.0600 
    184 H184        0.2760  -12.4508  -47.4838 H         1 UNK         0.3000 
    185 H185        2.9373  -14.3310  -48.3704 H         1 UNK         0.0600 
    186 H186        2.8036  -15.8035  -46.4289 H         1 UNK         0.0600 
    187 H187        1.0558  -15.6182  -46.3345 H         1 UNK         0.0600 
    188 H188        1.7866  -16.4859  -47.6852 H         1 UNK         0.0600 
    189 H189        0.0639  -14.7933  -48.4968 H         1 UNK         0.3000 
    190 H190       -1.9440  -21.0062  -46.5437 H         1 UNK         0.3000 
    191 H191       -3.5943  -22.0873  -48.5562 H         1 UNK         0.0600 
    192 H192       -4.1168  -21.6369  -45.5675 H         1 UNK         0.0600 
    193 H193       -5.3640  -21.9710  -46.7548 H         1 UNK         0.0600 
    194 H194       -4.4193  -20.4891  -46.8652 H         1 UNK         0.0600 
    195 H195       -2.3836  -23.5869  -45.5298 H         1 UNK         0.3000 
    196 H196       -3.6560  -26.1118  -45.8722 H         1 UNK         0.0600 
    197 H197       -2.0505  -26.8526  -44.1113 H         1 UNK         0.0600 
    198 H198       -2.8026  -25.3220  -43.6869 H         1 UNK         0.0600 
    199 H199       -1.1463  -25.3536  -44.2846 H         1 UNK         0.0600 
    200 H200       -0.3823  -24.9473  -46.8010 H         1 UNK         0.3000 
    201 H201        0.5716  -27.3850  -47.8889 H         1 UNK         0.0600 
    202 H202        2.0505  -25.4951  -47.2633 H         1 UNK         0.0600 
    203 H203        1.3618  -24.4968  -48.5419 H         1 UNK         0.0600 
    204 H204        2.2991  -25.9287  -48.9479 H         1 UNK         0.0600 
    205 H205       -1.1469  -24.6445  -49.4434 H         1 UNK         0.3000 
    206 H206       -1.1927  -25.7676  -52.0896 H         1 UNK         0.0600 
    207 H207       -1.4500  -23.3254  -51.5809 H         1 UNK         0.0600 
    208 H208       -2.8153  -23.9294  -52.5103 H         1 UNK         0.0600 
    209 H209       -2.9855  -23.6457  -50.7817 H         1 UNK         0.0600 
    210 H210       -3.0650  -26.3557  -49.2478 H         1 UNK         0.3000 
    211 H211       -4.8642  -27.4753  -48.6563 H         1 UNK         0.0600 
    212 H212       -4.7078  -28.9668  -51.3320 H         1 UNK         0.0600 
    213 H213       -5.5989  -29.4719  -49.9035 H         1 UNK         0.0600 
    214 H214       -3.8437  -29.4181  -49.8626 H         1 UNK         0.0600 
    215 H215       -5.2392  -24.9626  -49.4908 H         1 UNK         0.3000 
    216 H216       -7.9585  -24.7963  -50.4689 H         1 UNK         0.0600 
    217 H217       -5.6692  -23.8199  -52.2817 H         1 UNK         0.0600 
    218 H218       -7.3770  -23.4281  -52.5108 H         1 UNK         0.0600 
    219 H219       -6.8291  -25.0836  -52.6613 H         1 UNK         0.0600 
    220 H220       -6.1419  -22.0423  -51.2894 H         1 UNK         0.3000 
    221 H221       -6.1761  -20.8024  -48.6302 H         1 UNK         0.0600 
    222 H222       -8.4597  -20.3276  -49.5564 H         1 UNK         0.0600 
    223 H223       -7.7399  -19.7061  -51.0406 H         1 UNK         0.0600 
    224 H224       -7.4894  -18.8642  -49.5157 H         1 UNK         0.0600 
    225 H225       -4.9273  -18.8069  -48.6696 H         1 UNK         0.3000 
    226 H226       -2.6736  -18.8428  -50.5330 H         1 UNK         0.0600 
    227 H227       -2.2923  -18.5424  -48.1223 H         1 UNK         0.0600 
    228 H228       -1.7621  -17.1186  -48.9957 H         1 UNK         0.0600 
    229 H229       -3.2831  -17.0850  -48.1059 H         1 UNK         0.0600 
    230 H230       -4.9097  -18.3774  -52.0006 H         1 UNK         0.3000 
    231 H231       -5.0075  -15.4642  -52.6633 H         1 UNK         0.0600 
    232 H232       -6.7595  -17.8170  -53.5630 H         1 UNK         0.0600 
    233 H233       -6.9861  -16.1291  -54.0123 H         1 UNK         0.0600 
    234 H234       -7.1901  -16.6242  -52.3393 H         1 UNK         0.0600 
    235 H235       -2.6038  -16.2462  -53.1068 H         1 UNK         0.3000 
    236 H236       -0.8905  -16.6340  -54.4591 H         1 UNK         0.0600 
    237 H237       -1.0012  -16.1492  -56.8501 H         1 UNK         0.0600 
    238 H238       -2.7548  -16.2467  -56.8522 H         1 UNK         0.0600 
    239 H239       -1.9404  -14.9468  -55.9817 H         1 UNK         0.0600 
    240 H240       -2.2802  -18.7500  -53.3506 H         1 UNK         0.3000 
    241 H241       -2.6854  -20.8871  -53.3115 H         1 UNK         0.0600 
    242 H242       -2.9378  -22.8437  -56.6807 H         1 UNK         0.3800 
    243 H243       -1.4665  -22.7569  -55.7527 H         1 UNK         0.3800 
    244 H244       -0.7843  -22.3993  -53.7229 H         1 UNK         0.0800 
    245 H245       -0.3653  -20.9546  -52.8694 H         1 UNK         0.0800 
    246 H246        2.2144  -22.1260  -53.6325 H         1 UNK         0.0800 
    247 H247        3.0165  -20.9601  -54.6555 H         1 UNK         0.0800 
@<TRIPOS>BOND
     1    1    2 1    
     2    1  127 1    
     3    1  128 1    
     4    1  129 1    
     5    2    3 2    
     6    2    4 am   BACKBONE|DICT|INTERRES
     7    4    5 1    
     8    4  130 1    
     9    5    6 1    
    10    5   65 1    
    11    5  131 1    
    12    6    7 1    
    13    6  132 1    
    14    6  133 1    
    15    7    8 1    
    16    8    9 1    
    17    8  134 1    
    18    8  135 1    
    19    9   10 ar   
    20    9   14 ar   
    21   10   11 ar   
    22   10  136 1    
    23   11   12 ar   
    24   11  126 1    
    25   12   13 ar   
    26   12  137 1    
    27   13   14 ar   
    28   13   15 1    
    29   14  138 1    
    30   15   16 1    
    31   15  139 1    
    32   15  140 1    
    33   16   17 1    
    34   17   18 1    
    35   17  141 1    
    36   17  142 1    
    37   18   19 1    
    38   18   67 1    
    39   18  143 1    
    40   19   20 am   BACKBONE|DICT|INTERRES
    41   19  144 1    
    42   20   21 2    
    43   20   22 1    
    44   22   23 1    
    45   22   24 1    
    46   22  145 1    
    47   23  146 1    
    48   23  147 1    
    49   23  148 1    
    50   24   25 am   BACKBONE|DICT|INTERRES
    51   24  149 1    
    52   25   26 2    
    53   25   27 1    
    54   27   28 1    
    55   27   29 1    
    56   27  150 1    
    57   28  151 1    
    58   28  152 1    
    59   28  153 1    
    60   29   30 am   BACKBONE|DICT|INTERRES
    61   29  154 1    
    62   30   31 2    
    63   30   32 1    
    64   32   33 1    
    65   32   34 1    
    66   32  155 1    
    67   33  156 1    
    68   33  157 1    
    69   33  158 1    
    70   34   35 am   BACKBONE|DICT|INTERRES
    71   34  159 1    
    72   35   36 2    
    73   35   37 1    
    74   37   38 1    
    75   37   39 1    
    76   37  160 1    
    77   38  161 1    
    78   38  162 1    
    79   38  163 1    
    80   39   40 am   BACKBONE|DICT|INTERRES
    81   39  164 1    
    82   40   41 2    
    83   40   42 1    
    84   42   43 1    
    85   42   44 1    
    86   42  165 1    
    87   43  166 1    
    88   43  167 1    
    89   43  168 1    
    90   44   45 am   BACKBONE|DICT|INTERRES
    91   44  169 1    
    92   45   46 2    
    93   45   47 1    
    94   47   48 1    
    95   47   49 1    
    96   47  170 1    
    97   48  171 1    
    98   48  172 1    
    99   48  173 1    
   100   49   50 am   BACKBONE|DICT|INTERRES
   101   49  174 1    
   102   50   51 2    
   103   50   52 1    
   104   52   53 1    
   105   52   54 1    
   106   52  175 1    
   107   53  176 1    
   108   53  177 1    
   109   53  178 1    
   110   54   55 am   BACKBONE|DICT|INTERRES
   111   54  179 1    
   112   55   56 2    
   113   55   57 1    
   114   57   58 1    
   115   57   59 1    
   116   57  180 1    
   117   58  181 1    
   118   58  182 1    
   119   58  183 1    
   120   59   60 am   BACKBONE|DICT|INTERRES
   121   59  184 1    
   122   60   61 2    
   123   60   62 1    
   124   62   63 1    
   125   62   64 1    
   126   62  185 1    
   127   63  186 1    
   128   63  187 1    
   129   63  188 1    
   130   64   65 am   BACKBONE|DICT|INTERRES
   131   64  189 1    
   132   65   66 2    
   133   67   68 2    
   134   67   69 am   BACKBONE|DICT|INTERRES
   135   69   70 1    
   136   69  190 1    
   137   70   71 1    
   138   70   72 1    
   139   70  191 1    
   140   71  192 1    
   141   71  193 1    
   142   71  194 1    
   143   72   73 2    
   144   72   74 am   BACKBONE|DICT|INTERRES
   145   74   75 1    
   146   74  195 1    
   147   75   76 1    
   148   75   77 1    
   149   75  196 1    
   150   76  197 1    
   151   76  198 1    
   152   76  199 1    
   153   77   78 2    
   154   77   79 am   BACKBONE|DICT|INTERRES
   155   79   80 1    
   156   79  200 1    
   157   80   81 1    
   158   80   82 1    
   159   80  201 1    
   160   81  202 1    
   161   81  203 1    
   162   81  204 1    
   163   82   83 2    
   164   82   84 am   BACKBONE|DICT|INTERRES
   165   84   85 1    
   166   84  205 1    
   167   85   86 1    
   168   85   87 1    
   169   85  206 1    
   170   86  207 1    
   171   86  208 1    
   172   86  209 1    
   173   87   88 2    
   174   87   89 am   BACKBONE|DICT|INTERRES
   175   89   90 1    
   176   89  210 1    
   177   90   91 1    
   178   90   92 1    
   179   90  211 1    
   180   91  212 1    
   181   91  213 1    
   182   91  214 1    
   183   92   93 2    
   184   92   94 am   BACKBONE|DICT|INTERRES
   185   94   95 1    
   186   94  215 1    
   187   95   96 1    
   188   95   97 1    
   189   95  216 1    
   190   96  217 1    
   191   96  218 1    
   192   96  219 1    
   193   97   98 2    
   194   97   99 am   BACKBONE|DICT|INTERRES
   195   99  100 1    
   196   99  220 1    
   197  100  101 1    
   198  100  102 1    
   199  100  221 1    
   200  101  222 1    
   201  101  223 1    
   202  101  224 1    
   203  102  103 2    
   204  102  104 am   BACKBONE|DICT|INTERRES
   205  104  105 1    
   206  104  225 1    
   207  105  106 1    
   208  105  107 1    
   209  105  226 1    
   210  106  227 1    
   211  106  228 1    
   212  106  229 1    
   213  107  108 2    
   214  107  109 am   BACKBONE|DICT|INTERRES
   215  109  110 1    
   216  109  230 1    
   217  110  111 1    
   218  110  112 1    
   219  110  231 1    
   220  111  232 1    
   221  111  233 1    
   222  111  234 1    
   223  112  113 2    
   224  112  114 am   BACKBONE|DICT|INTERRES
   225  114  115 1    
   226  114  235 1    
   227  115  116 1    
   228  115  117 1    
   229  115  236 1    
   230  116  237 1    
   231  116  238 1    
   232  116  239 1    
   233  117  118 2    
   234  117  119 am   BACKBONE|DICT|INTERRES
   235  119  120 1    
   236  119  240 1    
   237  120  121 1    
   238  120  124 1    
   239  120  241 1    
   240  121  122 am   BACKBONE|DICT|INTERRES
   241  121  123 2    
   242  122  242 1    
   243  122  243 1    
   244  124  125 1    
   245  124  244 1    
   246  124  245 1    
   247  125  126 1    
   248  126  246 1    
   249  126  247 1    
@<TRIPOS>SUBSTRUCTURE
     1 UNK         1 GROUP             0       ****    0 ROOT    
