@<TRIPOS>MOLECULE
3R540
247   249    1
SMALL
USER_CHARGES


@<TRIPOS>ATOM
      1 CA          0.6239  -16.1395  -48.6655 C.3       0 UNK        -0.1800 
      2 C           1.4811  -14.9009  -48.8732 C.2       0 UNK         0.5000 
      3 O           1.0509  -13.7920  -48.5502 O.2       0 UNK        -0.5000 
      4 N           2.6971  -15.0866  -49.4037 N.am      1 UNK        -0.5000 
      5 CA          3.7089  -14.0387  -49.5829 C.3       1 UNK         0.1400 
      6 C6          4.9546  -14.5570  -50.3440 C.3       23 UNK        -0.0398 
      7 S7          4.7055  -14.4969  -52.1491 S.3       23 UNK        -0.2404 
      8 C8          4.7355  -16.2555  -52.6168 C.3       23 UNK        -0.0205 
      9 C9          3.4529  -16.9937  -52.2570 C.ar      23 UNK        -0.0193 
     10 C10         2.2187  -16.5509  -52.7437 C.ar      23 UNK        -0.1150 
     11 C11         1.0459  -17.2613  -52.4706 C.ar      23 UNK        -0.0193 
     12 C12         1.1217  -18.4435  -51.7267 C.ar      23 UNK        -0.1150 
     13 C13         2.3445  -18.8836  -51.2124 C.ar      23 UNK        -0.0193 
     14 C14         3.5056  -18.1524  -51.4783 C.ar      23 UNK        -0.1150 
     15 C15         2.4203  -20.1485  -50.3729 C.3       23 UNK        -0.0205 
     16 S16         2.0170  -19.8073  -48.6317 S.3       23 UNK        -0.2404 
     17 C17         0.2448  -20.2426  -48.5668 C.3       23 UNK        -0.0398 
     18 CA          0.0373  -21.5952  -47.8459 C.3       11 UNK         0.1400 
     19 N           0.2972  -21.5105  -46.4073 N.am      11 UNK        -0.5000 
     20 C           0.3983  -22.5666  -45.5898 C.2       10 UNK         0.5000 
     21 O           0.3083  -23.7353  -45.9666 O.2       10 UNK        -0.5000 
     22 CA          0.5873  -22.2681  -44.0926 C.3       10 UNK         0.1400 
     23 CB          2.0430  -21.8823  -43.7911 C.3       10 UNK        -0.1800 
     24 N          -0.3174  -21.2252  -43.6055 N.am      10 UNK        -0.5000 
     25 C          -1.6542  -21.3320  -43.5910 C.2       9 UNK         0.5000 
     26 O          -2.2637  -22.3319  -43.9681 O.2       9 UNK        -0.5000 
     27 CA         -2.4524  -20.1082  -43.1098 C.3       9 UNK         0.1400 
     28 CB         -2.4374  -20.0171  -41.5767 C.3       9 UNK        -0.1800 
     29 N          -1.9731  -18.8533  -43.6879 N.am      9 UNK        -0.5000 
     30 C          -1.9826  -18.5673  -44.9982 C.2       8 UNK         0.5000 
     31 O          -2.4268  -19.3215  -45.8632 O.2       8 UNK        -0.5000 
     32 CA         -1.3291  -17.2413  -45.4239 C.3       8 UNK         0.1400 
     33 CB         -2.2534  -16.0481  -45.1414 C.3       8 UNK        -0.1800 
     34 N          -0.0334  -17.0220  -44.7828 N.am      8 UNK        -0.5000 
     35 C           1.0204  -17.8436  -44.8915 C.2       7 UNK         0.5000 
     36 O           1.0251  -18.8686  -45.5698 O.2       7 UNK        -0.5000 
     37 CA          2.2556  -17.4920  -44.0502 C.3       7 UNK         0.1400 
     38 CB          3.0471  -16.3403  -44.6894 C.3       7 UNK        -0.1800 
     39 N           1.8889  -17.1550  -42.6742 N.am      7 UNK        -0.5000 
     40 C           1.3888  -18.0332  -41.7916 C.2       6 UNK         0.5000 
     41 O           1.2189  -19.2277  -42.0339 O.2       6 UNK        -0.5000 
     42 CA          0.9715  -17.4748  -40.4196 C.3       6 UNK         0.1400 
     43 CB          2.1879  -17.3533  -39.4896 C.3       6 UNK        -0.1800 
     44 N           0.3056  -16.1764  -40.5216 N.am      6 UNK        -0.5000 
     45 C          -0.8889  -15.9803  -41.0977 C.2       5 UNK         0.5000 
     46 O          -1.5744  -16.8804  -41.5807 O.2       5 UNK        -0.5000 
     47 CA         -1.3717  -14.5223  -41.1964 C.3       5 UNK         0.1400 
     48 CB         -2.0730  -14.0938  -39.8990 C.3       5 UNK        -0.1800 
     49 N          -0.2922  -13.5794  -41.5042 N.am      5 UNK        -0.5000 
     50 C           0.4348  -13.6071  -42.6282 C.2       4 UNK         0.5000 
     51 O           0.3011  -14.4594  -43.5095 O.2       4 UNK        -0.5000 
     52 CA          1.5228  -12.5322  -42.7746 C.3       4 UNK         0.1400 
     53 CB          2.8896  -13.0818  -42.3388 C.3       4 UNK        -0.1800 
     54 N           1.6088  -12.0808  -44.1603 N.am      4 UNK        -0.5000 
     55 C           0.7232  -11.2657  -44.7476 C.2       3 UNK         0.5000 
     56 O          -0.2232  -10.7540  -44.1457 O.2       3 UNK        -0.5000 
     57 CA          0.9108  -10.9844  -46.2549 C.3       3 UNK         0.1400 
     58 CB          0.4869   -9.5525  -46.6438 C.3       3 UNK        -0.1800 
     59 N           2.2514  -11.2836  -46.7746 N.am      3 UNK        -0.5000 
     60 C           3.4192  -10.7181  -46.4265 C.2       2 UNK         0.5000 
     61 O           3.5249   -9.8592  -45.5505 O.2       2 UNK        -0.5000 
     62 CA          4.6834  -11.1500  -47.2023 C.3       2 UNK         0.1400 
     63 CB          5.7952  -11.6581  -46.2604 C.3       2 UNK        -0.1800 
     64 N           4.4196  -12.0859  -48.3059 N.am      2 UNK        -0.5000 
     65 C           4.1089  -13.3888  -48.2394 C.2       1 UNK         0.5000 
     66 O           4.1020  -14.0513  -47.1999 O.2       1 UNK        -0.5000 
     67 C          -1.3504  -22.1946  -48.1421 C.2       11 UNK         0.5000 
     68 O          -1.4475  -23.0669  -49.0043 O.2       11 UNK        -0.5000 
     69 N          -2.3850  -21.7710  -47.4009 N.am      12 UNK        -0.5000 
     70 CA         -3.7358  -22.3277  -47.4949 C.3       12 UNK         0.1400 
     71 CB         -4.7119  -21.4940  -46.6532 C.3       12 UNK        -0.1800 
     72 C          -3.7947  -23.8107  -47.0893 C.2       12 UNK         0.5000 
     73 O          -4.4411  -24.5963  -47.7797 O.2       12 UNK        -0.5000 
     74 N          -3.0946  -24.1831  -46.0081 N.am      13 UNK        -0.5000 
     75 CA         -2.9670  -25.5654  -45.5424 C.3       13 UNK         0.1400 
     76 CB         -2.2526  -25.5993  -44.1833 C.3       13 UNK        -0.1800 
     77 C          -2.2531  -26.4686  -46.5636 C.2       13 UNK         0.5000 
     78 O          -2.7430  -27.5619  -46.8489 O.2       13 UNK        -0.5000 
     79 N          -1.1467  -25.9757  -47.1396 N.am      14 UNK        -0.5000 
     80 CA         -0.3960  -26.6395  -48.2097 C.3       14 UNK         0.1400 
     81 CB          0.8931  -25.8536  -48.4927 C.3       14 UNK        -0.1800 
     82 C          -1.2176  -26.8197  -49.5016 C.2       14 UNK         0.5000 
     83 O          -1.0713  -27.8362  -50.1807 O.2       14 UNK        -0.5000 
     84 N          -2.0941  -25.8502  -49.7915 N.am      15 UNK        -0.5000 
     85 CA         -3.0397  -25.8626  -50.9071 C.3       15 UNK         0.1400 
     86 CB         -3.3543  -24.4093  -51.2932 C.3       15 UNK        -0.1800 
     87 C          -4.3337  -26.6545  -50.6162 C.2       15 UNK         0.5000 
     88 O          -5.2289  -26.6545  -51.4606 O.2       15 UNK        -0.5000 
     89 N          -4.4275  -27.3039  -49.4453 N.am      16 UNK        -0.5000 
     90 CA         -5.5504  -28.1202  -48.9706 C.3       16 UNK         0.1400 
     91 CB         -5.7199  -29.3834  -49.8411 C.3       16 UNK        -0.1800 
     92 C          -6.8550  -27.3117  -48.8046 C.2       16 UNK         0.5000 
     93 O          -7.9226  -27.7531  -49.2328 O.2       16 UNK        -0.5000 
     94 N          -6.7259  -26.1347  -48.1777 N.am      17 UNK        -0.5000 
     95 CA         -7.7646  -25.1523  -47.8478 C.3       17 UNK         0.1400 
     96 CB         -8.9130  -25.7774  -47.0277 C.3       17 UNK        -0.1800 
     97 C          -8.2646  -24.3288  -49.0519 C.2       17 UNK         0.5000 
     98 O          -9.2479  -23.5979  -48.9158 O.2       17 UNK        -0.5000 
     99 N          -7.5702  -24.4179  -50.1936 N.am      18 UNK        -0.5000 
    100 CA        -7.7637  -23.5405  -51.3473 C.3       18 UNK         0.1400 
    101 CB        -7.2663  -24.2609  -52.6108 C.3       18 UNK        -0.1800 
    102 C         -7.0404  -22.1918  -51.1493 C.2       18 UNK         0.5000 
    103 O         -6.2948  -22.0140  -50.1832 O.2       18 UNK        -0.5000 
    104 N         -7.2577  -21.2660  -52.0925 N.am      19 UNK        -0.5000 
    105 CA        -6.7119  -19.9031  -52.0896 C.3       19 UNK         0.1400 
    106 CB        -7.4878  -19.0659  -53.1203 C.3       19 UNK        -0.1800 
    107 C         -5.1931  -19.8053  -52.3532 C.2       19 UNK         0.5000 
    108 O         -4.6501  -18.7020  -52.2952 O.2       19 UNK        -0.5000 
    109 N         -4.5413  -20.9328  -52.6803 N.am      20 UNK        -0.5000 
    110 CA        -3.0961  -21.0919  -52.9072 C.3       20 UNK         0.1400 
    111 CB        -2.3203  -20.8405  -51.5975 C.3       20 UNK        -0.1800 
    112 C         -2.5444  -20.2538  -54.0812 C.2       20 UNK         0.5000 
    113 O         -1.3494  -19.9620  -54.1161 O.2       20 UNK        -0.5000 
    114 N         -3.4352  -19.8812  -55.0130 N.am      21 UNK        -0.5000 
    115 CA        -3.2235  -18.9793  -56.1503 C.3       21 UNK         0.1400 
    116 CB        -2.1741  -19.5471  -57.1296 C.3       21 UNK        -0.1800 
    117 C         -2.9314  -17.5162  -55.7442 C.2       21 UNK         0.5000 
    118 O         -2.4396  -16.7485  -56.5732 O.2       21 UNK        -0.5000 
    119 N         -3.2561  -17.1370  -54.4988 N.am      22 UNK        -0.5000 
    120 CA        -3.1090  -15.7644  -53.9847 C.3       22 UNK         0.1400 
    121 C         -4.2404  -14.7928  -54.4374 C.2       22 UNK         0.5000 
    122 N         -5.3216  -15.2597  -55.0510 N.am      22 UNK        -0.7600 
    123 O         -4.1300  -13.5864  -54.2367 O.2       22 UNK        -0.5000 
    124 C124       -2.9583  -15.7342  -52.4393 C.3       23 UNK        -0.0398 
    125 S125       -1.5633  -16.6610  -51.6963 S.3       23 UNK        -0.2404 
    126 C126       -0.2907  -16.7571  -53.0014 C.3       23 UNK        -0.0205 
    127 H127       -0.4325  -15.9027  -48.7921 H         1 UNK         0.0600 
    128 H128        0.7748  -16.5271  -47.6592 H         1 UNK         0.0600 
    129 H129        0.8815  -16.9249  -49.3743 H         1 UNK         0.0600 
    130 H130        2.9822  -16.0205  -49.6604 H         1 UNK         0.3000 
    131 H131        3.2368  -13.2540  -50.1787 H         1 UNK         0.0600 
    132 H132        5.8313  -13.9383  -50.1420 H         1 UNK         0.0800 
    133 H133        5.2236  -15.5639  -50.0206 H         1 UNK         0.0800 
    134 H134        5.6077  -16.7338  -52.1683 H         1 UNK         0.0800 
    135 H135        4.8759  -16.3224  -53.6964 H         1 UNK         0.0800 
    136 H136        2.1765  -15.6521  -53.3428 H         1 UNK         0.1150 
    137 H137        0.2210  -19.0078  -51.5336 H         1 UNK         0.1150 
    138 H138        4.4548  -18.4996  -51.0945 H         1 UNK         0.1150 
    139 H139        1.7619  -20.9173  -50.7801 H         1 UNK         0.0800 
    140 H140        3.4278  -20.5646  -50.4186 H         1 UNK         0.0800 
    141 H141       -0.1545  -20.2716  -49.5808 H         1 UNK         0.0800 
    142 H142       -0.2954  -19.4450  -48.0538 H         1 UNK         0.0800 
    143 H143        0.7615  -22.3019  -48.2576 H         1 UNK         0.0600 
    144 H144        0.4322  -20.5753  -46.0279 H         1 UNK         0.3000 
    145 H145        0.3616  -23.1844  -43.5433 H         1 UNK         0.0600 
    146 H146        2.2057  -21.7685  -42.7193 H         1 UNK         0.0600 
    147 H147        2.7323  -22.6500  -44.1449 H         1 UNK         0.0600 
    148 H148        2.3200  -20.9441  -44.2725 H         1 UNK         0.0600 
    149 H149        0.1161  -20.3783  -43.2510 H         1 UNK         0.3000 
    150 H150       -3.4877  -20.2438  -43.4293 H         1 UNK         0.0600 
    151 H151       -2.7920  -20.9448  -41.1259 H         1 UNK         0.0600 
    152 H152       -3.0870  -19.2158  -41.2241 H         1 UNK         0.0600 
    153 H153       -1.4342  -19.8269  -41.1940 H         1 UNK         0.0600 
    154 H154       -1.6217  -18.1593  -43.0341 H         1 UNK         0.3000 
    155 H155       -1.1625  -17.2919  -46.5010 H         1 UNK         0.0600 
    156 H156       -2.4408  -15.9272  -44.0744 H         1 UNK         0.0600 
    157 H157       -1.8192  -15.1189  -45.5112 H         1 UNK         0.0600 
    158 H158       -3.2182  -16.1765  -45.6333 H         1 UNK         0.0600 
    159 H159        0.0601  -16.1792  -44.2207 H         1 UNK         0.3000 
    160 H160        2.9032  -18.3710  -44.0219 H         1 UNK         0.0600 
    161 H161        2.4534  -15.4297  -44.7705 H         1 UNK         0.0600 
    162 H162        3.3678  -16.6041  -45.6982 H         1 UNK         0.0600 
    163 H163        3.9441  -16.1088  -44.1152 H         1 UNK         0.0600 
    164 H164        1.9418  -16.1823  -42.4138 H         1 UNK         0.3000 
    165 H165        0.2692  -18.1816  -39.9724 H         1 UNK         0.0600 
    166 H166        1.8899  -17.0335  -38.4910 H         1 UNK         0.0600 
    167 H167        2.6950  -18.3134  -39.3843 H         1 UNK         0.0600 
    168 H168        2.9173  -16.6364  -39.8687 H         1 UNK         0.0600 
    169 H169        0.7993  -15.3774  -40.1526 H         1 UNK         0.3000 
    170 H170       -2.0993  -14.4711  -42.0091 H         1 UNK         0.0600 
    171 H171       -2.8928  -14.7716  -39.6567 H         1 UNK         0.0600 
    172 H172       -1.3875  -14.0912  -39.0506 H         1 UNK         0.0600 
    173 H173       -2.4971  -13.0938  -39.9916 H         1 UNK         0.0600 
    174 H174       -0.1205  -12.8530  -40.8239 H         1 UNK         0.3000 
    175 H175        1.2728  -11.6791  -42.1402 H         1 UNK         0.0600 
    176 H176        3.2031  -13.9253  -42.9535 H         1 UNK         0.0600 
    177 H177        3.6610  -12.3145  -42.4093 H         1 UNK         0.0600 
    178 H178        2.8639  -13.4210  -41.3025 H         1 UNK         0.0600 
    179 H179        2.3307  -12.4933  -44.7320 H         1 UNK         0.3000 
    180 H180        0.2367  -11.6733  -46.7660 H         1 UNK         0.0600 
    181 H181        1.0740   -8.7994  -46.1175 H         1 UNK         0.0600 
    182 H182       -0.5621   -9.3741  -46.4044 H         1 UNK         0.0600 
    183 H183        0.6051   -9.3833  -47.7141 H         1 UNK         0.0600 
    184 H184        2.2737  -12.0049  -47.4836 H         1 UNK         0.3000 
    185 H185        5.0586  -10.2430  -47.6788 H         1 UNK         0.0600 
    186 H186        6.1162  -10.8685  -45.5800 H         1 UNK         0.0600 
    187 H187        5.4618  -12.4936  -45.6447 H         1 UNK         0.0600 
    188 H188        6.6733  -11.9793  -46.8204 H         1 UNK         0.0600 
    189 H189        4.3915  -11.6472  -49.2166 H         1 UNK         0.3000 
    190 H190       -2.2483  -21.0225  -46.7263 H         1 UNK         0.3000 
    191 H191       -4.0501  -22.2594  -48.5384 H         1 UNK         0.0600 
    192 H192       -4.4318  -21.4868  -45.5994 H         1 UNK         0.0600 
    193 H193       -5.7253  -21.8913  -46.7248 H         1 UNK         0.0600 
    194 H194       -4.7440  -20.4608  -46.9991 H         1 UNK         0.0600 
    195 H195       -2.6269  -23.4715  -45.4523 H         1 UNK         0.3000 
    196 H196       -3.9753  -25.9603  -45.4016 H         1 UNK         0.0600 
    197 H197       -2.1542  -26.6224  -43.8185 H         1 UNK         0.0600 
    198 H198       -2.8100  -25.0390  -43.4325 H         1 UNK         0.0600 
    199 H199       -1.2511  -25.1730  -44.2419 H         1 UNK         0.0600 
    200 H200       -0.7861  -25.0799  -46.8208 H         1 UNK         0.3000 
    201 H201       -0.1184  -27.6335  -47.8533 H         1 UNK         0.0600 
    202 H202        1.5169  -25.7856  -47.6013 H         1 UNK         0.0600 
    203 H203        0.6794  -24.8386  -48.8289 H         1 UNK         0.0600 
    204 H204        1.4855  -26.3396  -49.2688 H         1 UNK         0.0600 
    205 H205       -2.1033  -25.0187  -49.2099 H         1 UNK         0.3000 
    206 H206       -2.5597  -26.3385  -51.7644 H         1 UNK         0.0600 
    207 H207       -2.4371  -23.8460  -51.4634 H         1 UNK         0.0600 
    208 H208       -3.9309  -24.3647  -52.2161 H         1 UNK         0.0600 
    209 H209       -3.9239  -23.8975  -50.5164 H         1 UNK         0.0600 
    210 H210       -3.6563  -27.2162  -48.7944 H         1 UNK         0.3000 
    211 H211       -5.2758  -28.4531  -47.9687 H         1 UNK         0.0600 
    212 H212       -6.0456  -29.1408  -50.8529 H         1 UNK         0.0600 
    213 H213       -6.4639  -30.0552  -49.4118 H         1 UNK         0.0600 
    214 H214       -4.7853  -29.9395  -49.9136 H         1 UNK         0.0600 
    215 H215       -5.7826  -25.8180  -47.9567 H         1 UNK         0.3000 
    216 H216       -7.2696  -24.4299  -47.1972 H         1 UNK         0.0600 
    217 H217       -9.5664  -25.0048  -46.6212 H         1 UNK         0.0600 
    218 H218       -8.5298  -26.3519  -46.1844 H         1 UNK         0.0600 
    219 H219       -9.5338  -26.4381  -47.6329 H         1 UNK         0.0600 
    220 H220       -6.7652  -25.0279  -50.2185 H         1 UNK         0.3000 
    221 H221       -8.8303  -23.3390  -51.4669 H         1 UNK         0.0600 
    222 H222       -6.1874  -24.4040  -52.5957 H         1 UNK         0.0600 
    223 H223       -7.7295  -25.2428  -52.7125 H         1 UNK         0.0600 
    224 H224       -7.5088  -23.6971  -53.5120 H         1 UNK         0.0600 
    225 H225       -7.8740  -21.4920  -52.8601 H         1 UNK         0.3000 
    226 H226       -6.8873  -19.4725  -51.1016 H         1 UNK         0.0600 
    227 H227       -8.5554  -19.0583  -52.8994 H         1 UNK         0.0600 
    228 H228       -7.1532  -18.0274  -53.1180 H         1 UNK         0.0600 
    229 H229       -7.3563  -19.4506  -54.1323 H         1 UNK         0.0600 
    230 H230       -5.0872  -21.7804  -52.7245 H         1 UNK         0.3000 
    231 H231       -2.9453  -22.1341  -53.1892 H         1 UNK         0.0600 
    232 H232       -1.2830  -21.1641  -51.6883 H         1 UNK         0.0600 
    233 H233       -2.7617  -21.3920  -50.7680 H         1 UNK         0.0600 
    234 H234       -2.3134  -19.7838  -51.3278 H         1 UNK         0.0600 
    235 H235       -4.3877  -20.1882  -54.8783 H         1 UNK         0.3000 
    236 H236       -4.1756  -18.9496  -56.6817 H         1 UNK         0.0600 
    237 H237       -2.1564  -18.9753  -58.0580 H         1 UNK         0.0600 
    238 H238       -1.1679  -19.5156  -56.7113 H         1 UNK         0.0600 
    239 H239       -2.3974  -20.5810  -57.3923 H         1 UNK         0.0600 
    240 H240       -3.6511  -17.8113  -53.8513 H         1 UNK         0.3000 
    241 H241       -2.1993  -15.3418  -54.4120 H         1 UNK         0.0600 
    242 H242       -6.0424  -14.6183  -55.3432 H         1 UNK         0.3800 
    243 H243       -5.4285  -16.2461  -55.2211 H         1 UNK         0.3800 
    244 H244       -2.8497  -14.7028  -52.0995 H         1 UNK         0.0800 
    245 H245       -3.8749  -16.0997  -51.9734 H         1 UNK         0.0800 
    246 H246       -0.1643  -15.7682  -53.4431 H         1 UNK         0.0800 
    247 H247       -0.6206  -17.4236  -53.7968 H         1 UNK         0.0800 
@<TRIPOS>BOND
     1    1    2 1    
     2    1  127 1    
     3    1  128 1    
     4    1  129 1    
     5    2    3 2    
     6    2    4 am   BACKBONE|DICT|INTERRES
     7    4    5 1    
     8    4  130 1    
     9    5    6 1    
    10    5   65 1    
    11    5  131 1    
    12    6    7 1    
    13    6  132 1    
    14    6  133 1    
    15    7    8 1    
    16    8    9 1    
    17    8  134 1    
    18    8  135 1    
    19    9   10 ar   
    20    9   14 ar   
    21   10   11 ar   
    22   10  136 1    
    23   11   12 ar   
    24   11  126 1    
    25   12   13 ar   
    26   12  137 1    
    27   13   14 ar   
    28   13   15 1    
    29   14  138 1    
    30   15   16 1    
    31   15  139 1    
    32   15  140 1    
    33   16   17 1    
    34   17   18 1    
    35   17  141 1    
    36   17  142 1    
    37   18   19 1    
    38   18   67 1    
    39   18  143 1    
    40   19   20 am   BACKBONE|DICT|INTERRES
    41   19  144 1    
    42   20   21 2    
    43   20   22 1    
    44   22   23 1    
    45   22   24 1    
    46   22  145 1    
    47   23  146 1    
    48   23  147 1    
    49   23  148 1    
    50   24   25 am   BACKBONE|DICT|INTERRES
    51   24  149 1    
    52   25   26 2    
    53   25   27 1    
    54   27   28 1    
    55   27   29 1    
    56   27  150 1    
    57   28  151 1    
    58   28  152 1    
    59   28  153 1    
    60   29   30 am   BACKBONE|DICT|INTERRES
    61   29  154 1    
    62   30   31 2    
    63   30   32 1    
    64   32   33 1    
    65   32   34 1    
    66   32  155 1    
    67   33  156 1    
    68   33  157 1    
    69   33  158 1    
    70   34   35 am   BACKBONE|DICT|INTERRES
    71   34  159 1    
    72   35   36 2    
    73   35   37 1    
    74   37   38 1    
    75   37   39 1    
    76   37  160 1    
    77   38  161 1    
    78   38  162 1    
    79   38  163 1    
    80   39   40 am   BACKBONE|DICT|INTERRES
    81   39  164 1    
    82   40   41 2    
    83   40   42 1    
    84   42   43 1    
    85   42   44 1    
    86   42  165 1    
    87   43  166 1    
    88   43  167 1    
    89   43  168 1    
    90   44   45 am   BACKBONE|DICT|INTERRES
    91   44  169 1    
    92   45   46 2    
    93   45   47 1    
    94   47   48 1    
    95   47   49 1    
    96   47  170 1    
    97   48  171 1    
    98   48  172 1    
    99   48  173 1    
   100   49   50 am   BACKBONE|DICT|INTERRES
   101   49  174 1    
   102   50   51 2    
   103   50   52 1    
   104   52   53 1    
   105   52   54 1    
   106   52  175 1    
   107   53  176 1    
   108   53  177 1    
   109   53  178 1    
   110   54   55 am   BACKBONE|DICT|INTERRES
   111   54  179 1    
   112   55   56 2    
   113   55   57 1    
   114   57   58 1    
   115   57   59 1    
   116   57  180 1    
   117   58  181 1    
   118   58  182 1    
   119   58  183 1    
   120   59   60 am   BACKBONE|DICT|INTERRES
   121   59  184 1    
   122   60   61 2    
   123   60   62 1    
   124   62   63 1    
   125   62   64 1    
   126   62  185 1    
   127   63  186 1    
   128   63  187 1    
   129   63  188 1    
   130   64   65 am   BACKBONE|DICT|INTERRES
   131   64  189 1    
   132   65   66 2    
   133   67   68 2    
   134   67   69 am   BACKBONE|DICT|INTERRES
   135   69   70 1    
   136   69  190 1    
   137   70   71 1    
   138   70   72 1    
   139   70  191 1    
   140   71  192 1    
   141   71  193 1    
   142   71  194 1    
   143   72   73 2    
   144   72   74 am   BACKBONE|DICT|INTERRES
   145   74   75 1    
   146   74  195 1    
   147   75   76 1    
   148   75   77 1    
   149   75  196 1    
   150   76  197 1    
   151   76  198 1    
   152   76  199 1    
   153   77   78 2    
   154   77   79 am   BACKBONE|DICT|INTERRES
   155   79   80 1    
   156   79  200 1    
   157   80   81 1    
   158   80   82 1    
   159   80  201 1    
   160   81  202 1    
   161   81  203 1    
   162   81  204 1    
   163   82   83 2    
   164   82   84 am   BACKBONE|DICT|INTERRES
   165   84   85 1    
   166   84  205 1    
   167   85   86 1    
   168   85   87 1    
   169   85  206 1    
   170   86  207 1    
   171   86  208 1    
   172   86  209 1    
   173   87   88 2    
   174   87   89 am   BACKBONE|DICT|INTERRES
   175   89   90 1    
   176   89  210 1    
   177   90   91 1    
   178   90   92 1    
   179   90  211 1    
   180   91  212 1    
   181   91  213 1    
   182   91  214 1    
   183   92   93 2    
   184   92   94 am   BACKBONE|DICT|INTERRES
   185   94   95 1    
   186   94  215 1    
   187   95   96 1    
   188   95   97 1    
   189   95  216 1    
   190   96  217 1    
   191   96  218 1    
   192   96  219 1    
   193   97   98 2    
   194   97   99 am   BACKBONE|DICT|INTERRES
   195   99  100 1    
   196   99  220 1    
   197  100  101 1    
   198  100  102 1    
   199  100  221 1    
   200  101  222 1    
   201  101  223 1    
   202  101  224 1    
   203  102  103 2    
   204  102  104 am   BACKBONE|DICT|INTERRES
   205  104  105 1    
   206  104  225 1    
   207  105  106 1    
   208  105  107 1    
   209  105  226 1    
   210  106  227 1    
   211  106  228 1    
   212  106  229 1    
   213  107  108 2    
   214  107  109 am   BACKBONE|DICT|INTERRES
   215  109  110 1    
   216  109  230 1    
   217  110  111 1    
   218  110  112 1    
   219  110  231 1    
   220  111  232 1    
   221  111  233 1    
   222  111  234 1    
   223  112  113 2    
   224  112  114 am   BACKBONE|DICT|INTERRES
   225  114  115 1    
   226  114  235 1    
   227  115  116 1    
   228  115  117 1    
   229  115  236 1    
   230  116  237 1    
   231  116  238 1    
   232  116  239 1    
   233  117  118 2    
   234  117  119 am   BACKBONE|DICT|INTERRES
   235  119  120 1    
   236  119  240 1    
   237  120  121 1    
   238  120  124 1    
   239  120  241 1    
   240  121  122 am   BACKBONE|DICT|INTERRES
   241  121  123 2    
   242  122  242 1    
   243  122  243 1    
   244  124  125 1    
   245  124  244 1    
   246  124  245 1    
   247  125  126 1    
   248  126  246 1    
   249  126  247 1    
@<TRIPOS>SUBSTRUCTURE
     1 UNK         1 GROUP             0       ****    0 ROOT    
