@<TRIPOS>MOLECULE
3R540
247   249    1
SMALL
USER_CHARGES


@<TRIPOS>ATOM
      1 CA          0.8043   -8.2212  -49.1575 C.3       0 UNK        -0.1800 
      2 C           0.6594   -9.5726  -48.4730 C.2       0 UNK         0.5000 
      3 O           0.4355   -9.6240  -47.2634 O.2       0 UNK        -0.5000 
      4 N           0.8066  -10.6633  -49.2372 N.am      1 UNK        -0.5000 
      5 CA          0.6719  -12.0803  -48.8562 C.3       1 UNK         0.1400 
      6 C6         -0.7258  -12.4508  -48.2885 C.3       23 UNK        -0.0398 
      7 S7         -2.0453  -12.3541  -49.5453 S.3       23 UNK        -0.2404 
      8 C8         -2.5352  -14.1049  -49.6993 C.3       23 UNK        -0.0205 
      9 C9         -1.6863  -14.8690  -50.7083 C.ar      23 UNK        -0.0193 
     10 C10        -2.2584  -15.3206  -51.9002 C.ar      23 UNK        -0.1150 
     11 C11        -1.5075  -16.0643  -52.8143 C.ar      23 UNK        -0.0193 
     12 C12        -0.1638  -16.3404  -52.5411 C.ar      23 UNK        -0.1150 
     13 C13         0.4259  -15.8866  -51.3573 C.ar      23 UNK        -0.0193 
     14 C14        -0.3444  -15.1598  -50.4450 C.ar      23 UNK        -0.1150 
     15 C15         1.8946  -16.1710  -51.0666 C.3       23 UNK        -0.0205 
     16 S16         2.1511  -17.7829  -50.2532 S.3       23 UNK        -0.2404 
     17 C17         1.4684  -17.4718  -48.5890 C.3       23 UNK        -0.0398 
     18 CA          0.0171  -17.9926  -48.4762 C.3       11 UNK         0.1400 
     19 N          -0.0501  -19.4550  -48.5134 N.am      11 UNK        -0.5000 
     20 C          -1.0447  -20.1560  -49.0734 C.2       10 UNK         0.5000 
     21 O          -2.0316  -19.6424  -49.5972 O.2       10 UNK        -0.5000 
     22 CA         -0.9546  -21.6903  -48.9613 C.3       10 UNK         0.1400 
     23 CB         -0.0988  -22.2600  -50.1006 C.3       10 UNK        -0.1800 
     24 N          -0.4066  -22.1413  -47.6829 N.am      10 UNK        -0.5000 
     25 C          -0.9050  -21.8279  -46.4802 C.2       9 UNK         0.5000 
     26 O          -1.9162  -21.1436  -46.3206 O.2       9 UNK        -0.5000 
     27 CA         -0.1142  -22.2987  -45.2484 C.3       9 UNK         0.1400 
     28 CB          0.8232  -23.4935  -45.5287 C.3       9 UNK        -0.1800 
     29 N           0.6412  -21.2104  -44.6204 N.am      9 UNK        -0.5000 
     30 C           1.5523  -20.3946  -45.1814 C.2       8 UNK         0.5000 
     31 O           1.7839  -20.3556  -46.3907 O.2       8 UNK        -0.5000 
     32 CA          2.3735  -19.4827  -44.2394 C.3       8 UNK         0.1400 
     33 CB          2.0007  -18.0006  -44.4132 C.3       8 UNK        -0.1800 
     34 N           2.2627  -19.8533  -42.8253 N.am      8 UNK        -0.5000 
     35 C           2.7922  -20.9670  -42.2912 C.2       7 UNK         0.5000 
     36 O           3.5453  -21.7209  -42.9082 O.2       7 UNK        -0.5000 
     37 CA          2.3929  -21.3325  -40.8449 C.3       7 UNK         0.1400 
     38 CB          3.5325  -20.9913  -39.8724 C.3       7 UNK        -0.1800 
     39 N           1.1671  -20.6847  -40.3736 N.am      7 UNK        -0.5000 
     40 C          -0.0544  -20.7899  -40.9180 C.2       6 UNK         0.5000 
     41 O          -0.3168  -21.5296  -41.8659 O.2       6 UNK        -0.5000 
     42 CA         -1.1519  -19.8666  -40.3474 C.3       6 UNK         0.1400 
     43 CB         -2.1004  -20.6589  -39.4359 C.3       6 UNK        -0.1800 
     44 N          -0.6304  -18.7092  -39.6085 N.am      6 UNK        -0.5000 
     45 C           0.1411  -17.7441  -40.1274 C.2       5 UNK         0.5000 
     46 O           0.4846  -17.7028  -41.3136 O.2       5 UNK        -0.5000 
     47 CA          0.6726  -16.6993  -39.1373 C.3       5 UNK         0.1400 
     48 CB          1.7512  -17.3096  -38.2213 C.3       5 UNK        -0.1800 
     49 N           1.2370  -15.5941  -39.8977 N.am      5 UNK        -0.5000 
     50 C           1.4577  -14.3538  -39.4512 C.2       4 UNK         0.5000 
     51 O           1.2421  -13.9935  -38.2931 O.2       4 UNK        -0.5000 
     52 CA          2.0059  -13.3388  -40.4735 C.3       4 UNK         0.1400 
     53 CB          3.5315  -13.2135  -40.3427 C.3       4 UNK        -0.1800 
     54 N           1.6770  -13.6736  -41.8615 N.am      4 UNK        -0.5000 
     55 C           0.4508  -13.6310  -42.3967 C.2       3 UNK         0.5000 
     56 O          -0.5514  -13.2869  -41.7677 O.2       3 UNK        -0.5000 
     57 CA          0.3461  -14.0088  -43.8893 C.3       3 UNK         0.1400 
     58 CB         -1.1039  -13.9682  -44.4047 C.3       3 UNK        -0.1800 
     59 N           1.1606  -13.1271  -44.7262 N.am      3 UNK        -0.5000 
     60 C           2.4900  -13.1902  -44.8887 C.2       2 UNK         0.5000 
     61 O           3.2027  -14.0178  -44.3170 O.2       2 UNK        -0.5000 
     62 CA          3.1101  -12.1371  -45.8344 C.3       2 UNK         0.1400 
     63 CB          4.5168  -12.5240  -46.3369 C.3       2 UNK        -0.1800 
     64 N           2.2162  -11.7948  -46.9482 N.am      2 UNK        -0.5000 
     65 C           1.7783  -12.6105  -47.9174 C.2       1 UNK         0.5000 
     66 O           2.1873  -13.7600  -48.0794 O.2       1 UNK        -0.5000 
     67 C          -0.7235  -17.3936  -47.2622 C.2       11 UNK         0.5000 
     68 O          -0.8859  -16.1760  -47.2118 O.2       11 UNK        -0.5000 
     69 N          -1.2210  -18.2359  -46.3433 N.am      12 UNK        -0.5000 
     70 CA         -2.2285  -17.8559  -45.3472 C.3       12 UNK         0.1400 
     71 CB         -2.0332  -18.6835  -44.0626 C.3       12 UNK        -0.1800 
     72 C          -3.6611  -18.0360  -45.8974 C.2       12 UNK         0.5000 
     73 O          -4.6177  -17.7821  -45.1649 O.2       12 UNK        -0.5000 
     74 N          -3.7837  -18.4902  -47.1573 N.am      13 UNK        -0.5000 
     75 CA         -5.0100  -18.8851  -47.8557 C.3       13 UNK         0.1400 
     76 CB         -5.9565  -17.6825  -48.0515 C.3       13 UNK        -0.1800 
     77 C          -5.6871  -20.1045  -47.1942 C.2       13 UNK         0.5000 
     78 O          -6.9162  -20.1773  -47.1379 O.2       13 UNK        -0.5000 
     79 N          -4.8643  -21.0318  -46.6901 N.am      14 UNK        -0.5000 
     80 CA         -5.2657  -22.2154  -45.9410 C.3       14 UNK         0.1400 
     81 CB         -4.9435  -21.9655  -44.4543 C.3       14 UNK        -0.1800 
     82 C          -4.5407  -23.4603  -46.4842 C.2       14 UNK         0.5000 
     83 O          -3.8837  -23.3986  -47.5271 O.2       14 UNK        -0.5000 
     84 N          -4.6894  -24.5795  -45.7595 N.am      15 UNK        -0.5000 
     85 CA         -4.0022  -25.8656  -45.9466 C.3       15 UNK         0.1400 
     86 CB         -2.4838  -25.6920  -45.7240 C.3       15 UNK        -0.1800 
     87 C          -4.3101  -26.5794  -47.2809 C.2       15 UNK         0.5000 
     88 O          -3.5439  -27.4542  -47.6870 O.2       15 UNK        -0.5000 
     89 N          -5.3996  -26.1809  -47.9565 N.am      16 UNK        -0.5000 
     90 CA         -5.8864  -26.6064  -49.2805 C.3       16 UNK         0.1400 
     91 CB         -6.2173  -28.1104  -49.3019 C.3       16 UNK        -0.1800 
     92 C          -4.9681  -26.2255  -50.4626 C.2       16 UNK         0.5000 
     93 O          -5.4724  -25.9024  -51.5388 O.2       16 UNK        -0.5000 
     94 N          -3.6484  -26.2265  -50.2363 N.am      17 UNK        -0.5000 
     95 CA         -2.5764  -25.8933  -51.1755 C.3       17 UNK         0.1400 
     96 CB         -1.2288  -26.0584  -50.4582 C.3       17 UNK        -0.1800 
     97 C          -2.6828  -24.4918  -51.8029 C.2       17 UNK         0.5000 
     98 O          -2.1643  -24.2901  -52.9006 O.2       17 UNK        -0.5000 
     99 N          -3.3897  -23.5685  -51.1343 N.am      18 UNK        -0.5000 
    100 CA        -3.7491  -22.2389  -51.6340 C.3       18 UNK         0.1400 
    101 CB        -4.6448  -21.5454  -50.5976 C.3       18 UNK        -0.1800 
    102 C         -4.4577  -22.2657  -53.0026 C.2       18 UNK         0.5000 
    103 O         -4.1805  -21.4149  -53.8467 O.2       18 UNK        -0.5000 
    104 N         -5.3230  -23.2687  -53.2159 N.am      19 UNK        -0.5000 
    105 CA        -6.0621  -23.4688  -54.4638 C.3       19 UNK         0.1400 
    106 CB        -7.1461  -24.5340  -54.2417 C.3       19 UNK        -0.1800 
    107 C         -5.1617  -23.8540  -55.6535 C.2       19 UNK         0.5000 
    108 O         -5.5137  -23.5563  -56.7953 O.2       19 UNK        -0.5000 
    109 N         -4.0218  -24.4976  -55.3692 N.am      20 UNK        -0.5000 
    110 CA        -3.0007  -24.8356  -56.3559 C.3       20 UNK         0.1400 
    111 CB        -2.2723  -26.1187  -55.9240 C.3       20 UNK        -0.1800 
    112 C         -2.0140  -23.6713  -56.5351 C.2       20 UNK         0.5000 
    113 O         -1.7527  -23.2659  -57.6684 O.2       20 UNK        -0.5000 
    114 N         -1.4998  -23.1452  -55.4136 N.am      21 UNK        -0.5000 
    115 CA        -0.4824  -22.0933  -55.3553 C.3       21 UNK         0.1400 
    116 CB        -0.0938  -21.8475  -53.8907 C.3       21 UNK        -0.1800 
    117 C         -0.9115  -20.7735  -56.0174 C.2       21 UNK         0.5000 
    118 O         -0.1033  -20.1545  -56.7110 O.2       21 UNK        -0.5000 
    119 N         -2.1726  -20.3816  -55.8066 N.am      22 UNK        -0.5000 
    120 CA        -2.7769  -19.1746  -56.3903 C.3       22 UNK         0.1400 
    121 C         -3.4232  -19.4112  -57.7882 C.2       22 UNK         0.5000 
    122 N         -3.3148  -20.5906  -58.3903 N.am      22 UNK        -0.7600 
    123 O         -4.0244  -18.5001  -58.3508 O.2       22 UNK        -0.5000 
    124 C124       -3.7604  -18.4849  -55.4085 C.3       23 UNK        -0.0398 
    125 S125       -3.0268  -18.1457  -53.7699 S.3       23 UNK        -0.2404 
    126 C126       -2.1608  -16.5793  -54.0859 C.3       23 UNK        -0.0205 
    127 H127        1.0083   -8.3254  -50.2234 H         1 UNK         0.0600 
    128 H128        1.6224   -7.6586  -48.7077 H         1 UNK         0.0600 
    129 H129       -0.1125   -7.6431  -49.0419 H         1 UNK         0.0600 
    130 H130        1.0184  -10.5230  -50.2153 H         1 UNK         0.3000 
    131 H131        0.8057  -12.6249  -49.7916 H         1 UNK         0.0600 
    132 H132       -0.9972  -11.7984  -47.4583 H         1 UNK         0.0800 
    133 H133       -0.7201  -13.4562  -47.8646 H         1 UNK         0.0800 
    134 H134       -3.5840  -14.1323  -49.9985 H         1 UNK         0.0800 
    135 H135       -2.4963  -14.6025  -48.7296 H         1 UNK         0.0800 
    136 H136       -3.2985  -15.1140  -52.1109 H         1 UNK         0.1150 
    137 H137        0.4208  -16.9163  -53.2450 H         1 UNK         0.1150 
    138 H138        0.1015  -14.8383  -49.5172 H         1 UNK         0.1150 
    139 H139        2.4572  -16.1601  -52.0013 H         1 UNK         0.0800 
    140 H140        2.3219  -15.3775  -50.4511 H         1 UNK         0.0800 
    141 H141        1.5309  -16.4033  -48.3775 H         1 UNK         0.0800 
    142 H142        2.1095  -17.9602  -47.8543 H         1 UNK         0.0800 
    143 H143       -0.5298  -17.6174  -49.3418 H         1 UNK         0.0600 
    144 H144        0.6973  -19.9490  -48.0344 H         1 UNK         0.3000 
    145 H145       -1.9627  -22.0970  -49.0460 H         1 UNK         0.0600 
    146 H146       -0.0570  -23.3474  -50.0636 H         1 UNK         0.0600 
    147 H147       -0.5154  -21.9854  -51.0678 H         1 UNK         0.0600 
    148 H148        0.9242  -21.8833  -50.0650 H         1 UNK         0.0600 
    149 H149        0.4522  -22.6700  -47.7202 H         1 UNK         0.3000 
    150 H150       -0.8566  -22.6249  -44.5183 H         1 UNK         0.0600 
    151 H151        0.2846  -24.3213  -45.9911 H         1 UNK         0.0600 
    152 H152        1.2524  -23.8707  -44.6002 H         1 UNK         0.0600 
    153 H153        1.6523  -23.2253  -46.1844 H         1 UNK         0.0600 
    154 H154        0.4917  -21.1354  -43.6192 H         1 UNK         0.3000 
    155 H155        3.4193  -19.5930  -44.5337 H         1 UNK         0.0600 
    156 H156        0.9782  -17.7938  -44.1055 H         1 UNK         0.0600 
    157 H157        2.0977  -17.6886  -45.4529 H         1 UNK         0.0600 
    158 H158        2.6568  -17.3594  -43.8241 H         1 UNK         0.0600 
    159 H159        1.6680  -19.2670  -42.2508 H         1 UNK         0.3000 
    160 H160        2.2265  -22.4111  -40.8180 H         1 UNK         0.0600 
    161 H161        3.7267  -19.9184  -39.8420 H         1 UNK         0.0600 
    162 H162        4.4598  -21.4844  -40.1671 H         1 UNK         0.0600 
    163 H163        3.3001  -21.3203  -38.8593 H         1 UNK         0.0600 
    164 H164        1.2737  -20.0510  -39.5962 H         1 UNK         0.3000 
    165 H165       -1.7277  -19.4887  -41.1939 H         1 UNK         0.0600 
    166 H166       -2.9299  -20.0391  -39.0950 H         1 UNK         0.0600 
    167 H167       -2.5301  -21.5108  -39.9648 H         1 UNK         0.0600 
    168 H168       -1.5841  -21.0449  -38.5561 H         1 UNK         0.0600 
    169 H169       -0.8588  -18.6722  -38.6252 H         1 UNK         0.3000 
    170 H170       -0.1645  -16.3349  -38.5382 H         1 UNK         0.0600 
    171 H171        1.3545  -18.1422  -37.6394 H         1 UNK         0.0600 
    172 H172        2.6000  -17.6829  -38.7959 H         1 UNK         0.0600 
    173 H173        2.1294  -16.5759  -37.5095 H         1 UNK         0.0600 
    174 H174        1.3964  -15.8073  -40.8745 H         1 UNK         0.3000 
    175 H175        1.5613  -12.3683  -40.2438 H         1 UNK         0.0600 
    176 H176        4.0334  -14.1522  -40.5807 H         1 UNK         0.0600 
    177 H177        3.9228  -12.4450  -41.0097 H         1 UNK         0.0600 
    178 H178        3.8158  -12.9368  -39.3266 H         1 UNK         0.0600 
    179 H179        2.4468  -13.9334  -42.4705 H         1 UNK         0.3000 
    180 H180        0.7101  -15.0331  -43.9961 H         1 UNK         0.0600 
    181 H181       -1.1601  -14.2642  -45.4512 H         1 UNK         0.0600 
    182 H182       -1.5357  -12.9703  -44.3193 H         1 UNK         0.0600 
    183 H183       -1.7390  -14.6516  -43.8398 H         1 UNK         0.0600 
    184 H184        0.6650  -12.3869  -45.2000 H         1 UNK         0.3000 
    185 H185        3.2152  -11.2273  -45.2419 H         1 UNK         0.0600 
    186 H186        4.5139  -13.4773  -46.8657 H         1 UNK         0.0600 
    187 H187        4.9170  -11.7667  -47.0109 H         1 UNK         0.0600 
    188 H188        5.2148  -12.6179  -45.5042 H         1 UNK         0.0600 
    189 H189        1.7774  -10.8781  -46.9008 H         1 UNK         0.3000 
    190 H190       -1.0839  -19.2326  -46.4639 H         1 UNK         0.3000 
    191 H191       -2.1094  -16.8033  -45.0849 H         1 UNK         0.0600 
    192 H192       -2.7069  -18.3389  -43.2774 H         1 UNK         0.0600 
    193 H193       -1.0228  -18.5972  -43.6705 H         1 UNK         0.0600 
    194 H194       -2.2398  -19.7414  -44.2180 H         1 UNK         0.0600 
    195 H195       -2.9334  -18.6763  -47.6711 H         1 UNK         0.3000 
    196 H196       -4.6963  -19.2101  -48.8471 H         1 UNK         0.0600 
    197 H197       -6.3786  -17.3372  -47.1075 H         1 UNK         0.0600 
    198 H198       -5.4367  -16.8436  -48.5146 H         1 UNK         0.0600 
    199 H199       -6.7901  -17.9463  -48.7031 H         1 UNK         0.0600 
    200 H200       -3.8598  -20.9301  -46.8024 H         1 UNK         0.3000 
    201 H201       -6.3372  -22.3924  -46.0508 H         1 UNK         0.0600 
    202 H202       -3.8684  -21.8854  -44.2862 H         1 UNK         0.0600 
    203 H203       -5.3204  -22.7664  -43.8180 H         1 UNK         0.0600 
    204 H204       -5.4013  -21.0398  -44.1043 H         1 UNK         0.0600 
    205 H205       -5.2827  -24.5337  -44.9426 H         1 UNK         0.3000 
    206 H206       -4.3764  -26.5257  -45.1629 H         1 UNK         0.0600 
    207 H207       -2.2767  -25.1831  -44.7826 H         1 UNK         0.0600 
    208 H208       -1.9776  -26.6572  -45.6863 H         1 UNK         0.0600 
    209 H209       -2.0236  -25.1142  -46.5262 H         1 UNK         0.0600 
    210 H210       -5.9313  -25.4336  -47.5339 H         1 UNK         0.3000 
    211 H211       -6.8215  -26.0657  -49.4349 H         1 UNK         0.0600 
    212 H212       -6.6865  -28.3902  -50.2459 H         1 UNK         0.0600 
    213 H213       -6.9118  -28.3727  -48.5038 H         1 UNK         0.0600 
    214 H214       -5.3260  -28.7278  -49.1885 H         1 UNK         0.0600 
    215 H215       -3.3550  -26.5562  -49.3212 H         1 UNK         0.3000 
    216 H216       -2.6227  -26.6142  -51.9939 H         1 UNK         0.0600 
    217 H217       -1.1675  -25.4248  -49.5724 H         1 UNK         0.0600 
    218 H218       -0.3970  -25.7962  -51.1136 H         1 UNK         0.0600 
    219 H219       -1.0777  -27.0900  -50.1396 H         1 UNK         0.0600 
    220 H220       -3.7622  -23.8250  -50.2304 H         1 UNK         0.3000 
    221 H221       -2.8312  -21.6593  -51.7426 H         1 UNK         0.0600 
    222 H222       -4.1499  -21.4747  -49.6303 H         1 UNK         0.0600 
    223 H223       -5.5835  -22.0808  -50.4503 H         1 UNK         0.0600 
    224 H224       -4.8885  -20.5306  -50.9147 H         1 UNK         0.0600 
    225 H225       -5.4526  -23.9702  -52.4956 H         1 UNK         0.3000 
    226 H226       -6.5553  -22.5278  -54.7163 H         1 UNK         0.0600 
    227 H227       -6.7120  -25.5024  -53.9899 H         1 UNK         0.0600 
    228 H228       -7.8214  -24.2490  -53.4348 H         1 UNK         0.0600 
    229 H229       -7.7507  -24.6691  -55.1395 H         1 UNK         0.0600 
    230 H230       -3.7840  -24.6535  -54.3989 H         1 UNK         0.3000 
    231 H231       -3.4730  -25.0313  -57.3210 H         1 UNK         0.0600 
    232 H232       -1.7745  -26.0038  -54.9608 H         1 UNK         0.0600 
    233 H233       -1.5117  -26.3980  -56.6541 H         1 UNK         0.0600 
    234 H234       -2.9667  -26.9551  -55.8424 H         1 UNK         0.0600 
    235 H235       -1.7756  -23.5458  -54.5195 H         1 UNK         0.3000 
    236 H236        0.3981  -22.4607  -55.8859 H         1 UNK         0.0600 
    237 H237        0.2641  -22.7613  -53.4160 H         1 UNK         0.0600 
    238 H238        0.7020  -21.1056  -53.8142 H         1 UNK         0.0600 
    239 H239       -0.9433  -21.4779  -53.3160 H         1 UNK         0.0600 
    240 H240       -2.7761  -20.9279  -55.1995 H         1 UNK         0.3000 
    241 H241       -1.9789  -18.4541  -56.5767 H         1 UNK         0.0600 
    242 H242       -3.7365  -20.7227  -59.2959 H         1 UNK         0.3800 
    243 H243       -2.7960  -21.3481  -57.9658 H         1 UNK         0.3800 
    244 H244       -4.6389  -19.1139  -55.2568 H         1 UNK         0.0800 
    245 H245       -4.1303  -17.5466  -55.8251 H         1 UNK         0.0800 
    246 H246       -2.8659  -15.8390  -54.4671 H         1 UNK         0.0800 
    247 H247       -1.4102  -16.7265  -54.8637 H         1 UNK         0.0800 
@<TRIPOS>BOND
     1    1    2 1    
     2    1  127 1    
     3    1  128 1    
     4    1  129 1    
     5    2    3 2    
     6    2    4 am   BACKBONE|DICT|INTERRES
     7    4    5 1    
     8    4  130 1    
     9    5    6 1    
    10    5   65 1    
    11    5  131 1    
    12    6    7 1    
    13    6  132 1    
    14    6  133 1    
    15    7    8 1    
    16    8    9 1    
    17    8  134 1    
    18    8  135 1    
    19    9   10 ar   
    20    9   14 ar   
    21   10   11 ar   
    22   10  136 1    
    23   11   12 ar   
    24   11  126 1    
    25   12   13 ar   
    26   12  137 1    
    27   13   14 ar   
    28   13   15 1    
    29   14  138 1    
    30   15   16 1    
    31   15  139 1    
    32   15  140 1    
    33   16   17 1    
    34   17   18 1    
    35   17  141 1    
    36   17  142 1    
    37   18   19 1    
    38   18   67 1    
    39   18  143 1    
    40   19   20 am   BACKBONE|DICT|INTERRES
    41   19  144 1    
    42   20   21 2    
    43   20   22 1    
    44   22   23 1    
    45   22   24 1    
    46   22  145 1    
    47   23  146 1    
    48   23  147 1    
    49   23  148 1    
    50   24   25 am   BACKBONE|DICT|INTERRES
    51   24  149 1    
    52   25   26 2    
    53   25   27 1    
    54   27   28 1    
    55   27   29 1    
    56   27  150 1    
    57   28  151 1    
    58   28  152 1    
    59   28  153 1    
    60   29   30 am   BACKBONE|DICT|INTERRES
    61   29  154 1    
    62   30   31 2    
    63   30   32 1    
    64   32   33 1    
    65   32   34 1    
    66   32  155 1    
    67   33  156 1    
    68   33  157 1    
    69   33  158 1    
    70   34   35 am   BACKBONE|DICT|INTERRES
    71   34  159 1    
    72   35   36 2    
    73   35   37 1    
    74   37   38 1    
    75   37   39 1    
    76   37  160 1    
    77   38  161 1    
    78   38  162 1    
    79   38  163 1    
    80   39   40 am   BACKBONE|DICT|INTERRES
    81   39  164 1    
    82   40   41 2    
    83   40   42 1    
    84   42   43 1    
    85   42   44 1    
    86   42  165 1    
    87   43  166 1    
    88   43  167 1    
    89   43  168 1    
    90   44   45 am   BACKBONE|DICT|INTERRES
    91   44  169 1    
    92   45   46 2    
    93   45   47 1    
    94   47   48 1    
    95   47   49 1    
    96   47  170 1    
    97   48  171 1    
    98   48  172 1    
    99   48  173 1    
   100   49   50 am   BACKBONE|DICT|INTERRES
   101   49  174 1    
   102   50   51 2    
   103   50   52 1    
   104   52   53 1    
   105   52   54 1    
   106   52  175 1    
   107   53  176 1    
   108   53  177 1    
   109   53  178 1    
   110   54   55 am   BACKBONE|DICT|INTERRES
   111   54  179 1    
   112   55   56 2    
   113   55   57 1    
   114   57   58 1    
   115   57   59 1    
   116   57  180 1    
   117   58  181 1    
   118   58  182 1    
   119   58  183 1    
   120   59   60 am   BACKBONE|DICT|INTERRES
   121   59  184 1    
   122   60   61 2    
   123   60   62 1    
   124   62   63 1    
   125   62   64 1    
   126   62  185 1    
   127   63  186 1    
   128   63  187 1    
   129   63  188 1    
   130   64   65 am   BACKBONE|DICT|INTERRES
   131   64  189 1    
   132   65   66 2    
   133   67   68 2    
   134   67   69 am   BACKBONE|DICT|INTERRES
   135   69   70 1    
   136   69  190 1    
   137   70   71 1    
   138   70   72 1    
   139   70  191 1    
   140   71  192 1    
   141   71  193 1    
   142   71  194 1    
   143   72   73 2    
   144   72   74 am   BACKBONE|DICT|INTERRES
   145   74   75 1    
   146   74  195 1    
   147   75   76 1    
   148   75   77 1    
   149   75  196 1    
   150   76  197 1    
   151   76  198 1    
   152   76  199 1    
   153   77   78 2    
   154   77   79 am   BACKBONE|DICT|INTERRES
   155   79   80 1    
   156   79  200 1    
   157   80   81 1    
   158   80   82 1    
   159   80  201 1    
   160   81  202 1    
   161   81  203 1    
   162   81  204 1    
   163   82   83 2    
   164   82   84 am   BACKBONE|DICT|INTERRES
   165   84   85 1    
   166   84  205 1    
   167   85   86 1    
   168   85   87 1    
   169   85  206 1    
   170   86  207 1    
   171   86  208 1    
   172   86  209 1    
   173   87   88 2    
   174   87   89 am   BACKBONE|DICT|INTERRES
   175   89   90 1    
   176   89  210 1    
   177   90   91 1    
   178   90   92 1    
   179   90  211 1    
   180   91  212 1    
   181   91  213 1    
   182   91  214 1    
   183   92   93 2    
   184   92   94 am   BACKBONE|DICT|INTERRES
   185   94   95 1    
   186   94  215 1    
   187   95   96 1    
   188   95   97 1    
   189   95  216 1    
   190   96  217 1    
   191   96  218 1    
   192   96  219 1    
   193   97   98 2    
   194   97   99 am   BACKBONE|DICT|INTERRES
   195   99  100 1    
   196   99  220 1    
   197  100  101 1    
   198  100  102 1    
   199  100  221 1    
   200  101  222 1    
   201  101  223 1    
   202  101  224 1    
   203  102  103 2    
   204  102  104 am   BACKBONE|DICT|INTERRES
   205  104  105 1    
   206  104  225 1    
   207  105  106 1    
   208  105  107 1    
   209  105  226 1    
   210  106  227 1    
   211  106  228 1    
   212  106  229 1    
   213  107  108 2    
   214  107  109 am   BACKBONE|DICT|INTERRES
   215  109  110 1    
   216  109  230 1    
   217  110  111 1    
   218  110  112 1    
   219  110  231 1    
   220  111  232 1    
   221  111  233 1    
   222  111  234 1    
   223  112  113 2    
   224  112  114 am   BACKBONE|DICT|INTERRES
   225  114  115 1    
   226  114  235 1    
   227  115  116 1    
   228  115  117 1    
   229  115  236 1    
   230  116  237 1    
   231  116  238 1    
   232  116  239 1    
   233  117  118 2    
   234  117  119 am   BACKBONE|DICT|INTERRES
   235  119  120 1    
   236  119  240 1    
   237  120  121 1    
   238  120  124 1    
   239  120  241 1    
   240  121  122 am   BACKBONE|DICT|INTERRES
   241  121  123 2    
   242  122  242 1    
   243  122  243 1    
   244  124  125 1    
   245  124  244 1    
   246  124  245 1    
   247  125  126 1    
   248  126  246 1    
   249  126  247 1    
@<TRIPOS>SUBSTRUCTURE
     1 UNK         1 GROUP             0       ****    0 ROOT    
