@<TRIPOS>MOLECULE
3R540
247   249    1
SMALL
USER_CHARGES


@<TRIPOS>ATOM
      1 CA          2.3795  -12.1846  -47.3424 C.3       0 UNK        -0.1800 
      2 C           1.2995  -12.9844  -48.0571 C.2       0 UNK         0.5000 
      3 O           0.6340  -12.4543  -48.9459 O.2       0 UNK        -0.5000 
      4 N           1.1261  -14.2560  -47.6682 N.am      1 UNK        -0.5000 
      5 CA          0.1449  -15.2055  -48.2152 C.3       1 UNK         0.1400 
      6 C6          0.3935  -15.5286  -49.7163 C.3       23 UNK        -0.0398 
      7 S7          0.0083  -17.2611  -50.1488 S.3       23 UNK        -0.2404 
      8 C8          1.6501  -17.8617  -50.6713 C.3       23 UNK        -0.0205 
      9 C9          1.6286  -19.2346  -51.3381 C.ar      23 UNK        -0.0193 
     10 C10         0.6380  -19.5715  -52.2678 C.ar      23 UNK        -0.1150 
     11 C11         0.6640  -20.7962  -52.9412 C.ar      23 UNK        -0.0193 
     12 C12         1.7168  -21.6840  -52.6870 C.ar      23 UNK        -0.1150 
     13 C13         2.7155  -21.3649  -51.7632 C.ar      23 UNK        -0.0193 
     14 C14         2.6608  -20.1437  -51.0849 C.ar      23 UNK        -0.1150 
     15 C15         3.8834  -22.3183  -51.5539 C.3       23 UNK        -0.0205 
     16 S16         3.4297  -23.7732  -50.5589 S.3       23 UNK        -0.2404 
     17 C17         3.5130  -23.1112  -48.8619 C.3       23 UNK        -0.0398 
     18 CA          2.2838  -23.5115  -48.0101 C.3       11 UNK         0.1400 
     19 N           2.6044  -23.5473  -46.5799 N.am      11 UNK        -0.5000 
     20 C           1.8148  -24.0878  -45.6411 C.2       10 UNK         0.5000 
     21 O           0.7462  -24.6464  -45.8869 O.2       10 UNK        -0.5000 
     22 CA          2.2791  -23.9488  -44.1791 C.3       10 UNK         0.1400 
     23 CB          3.1807  -25.1286  -43.7871 C.3       10 UNK        -0.1800 
     24 N           2.9769  -22.6904  -43.8970 N.am      10 UNK        -0.5000 
     25 C           2.4257  -21.4736  -43.9978 C.2       9 UNK         0.5000 
     26 O           1.2816  -21.2742  -44.4061 O.2       9 UNK        -0.5000 
     27 CA          3.3115  -20.2805  -43.6105 C.3       9 UNK         0.1400 
     28 CB          3.5936  -19.3790  -44.8225 C.3       9 UNK        -0.1800 
     29 N           2.6845  -19.4955  -42.5487 N.am      9 UNK        -0.5000 
     30 C           2.7593  -19.8161  -41.2499 C.2       8 UNK         0.5000 
     31 O           3.3386  -20.8188  -40.8288 O.2       8 UNK        -0.5000 
     32 CA          2.1182  -18.8433  -40.2449 C.3       8 UNK         0.1400 
     33 CB          2.9388  -17.5476  -40.1462 C.3       8 UNK        -0.1800 
     34 N           0.7258  -18.5179  -40.5463 N.am      8 UNK        -0.5000 
     35 C          -0.3054  -19.3622  -40.4007 C.2       7 UNK         0.5000 
     36 O          -0.1875  -20.5337  -40.0399 O.2       7 UNK        -0.5000 
     37 CA         -1.7093  -18.7964  -40.6898 C.3       7 UNK         0.1400 
     38 CB         -2.2440  -18.0018  -39.4881 C.3       7 UNK        -0.1800 
     39 N          -1.7170  -17.9466  -41.8782 N.am      7 UNK        -0.5000 
     40 C          -1.6713  -18.4226  -43.1289 C.2       6 UNK         0.5000 
     41 O          -1.7531  -19.6168  -43.4048 O.2       6 UNK        -0.5000 
     42 CA         -1.4892  -17.4022  -44.2643 C.3       6 UNK         0.1400 
     43 CB         -2.8399  -17.0225  -44.8877 C.3       6 UNK        -0.1800 
     44 N          -0.7566  -16.2046  -43.8457 N.am      6 UNK        -0.5000 
     45 C           0.5555  -16.1922  -43.5636 C.2       5 UNK         0.5000 
     46 O           1.2924  -17.1690  -43.6912 O.2       5 UNK        -0.5000 
     47 CA          1.1347  -14.8870  -42.9906 C.3       5 UNK         0.1400 
     48 CB          1.6327  -13.9621  -44.1099 C.3       5 UNK        -0.1800 
     49 N           0.1737  -14.1812  -42.1411 N.am      5 UNK        -0.5000 
     50 C          -0.1894  -14.6143  -40.9247 C.2       4 UNK         0.5000 
     51 O           0.2639  -15.6353  -40.4098 O.2       4 UNK        -0.5000 
     52 CA         -1.2657  -13.8111  -40.1714 C.3       4 UNK         0.1400 
     53 CB         -0.6147  -12.7299  -39.2966 C.3       4 UNK        -0.1800 
     54 N          -2.2563  -13.1887  -41.0501 N.am      4 UNK        -0.5000 
     55 C          -3.0937  -13.8526  -41.8580 C.2       3 UNK         0.5000 
     56 O          -3.1179  -15.0817  -41.9454 O.2       3 UNK        -0.5000 
     57 CA         -4.0414  -13.0137  -42.7449 C.3       3 UNK         0.1400 
     58 CB         -3.9440  -11.4893  -42.5082 C.3       3 UNK        -0.1800 
     59 N          -3.8721  -13.3056  -44.1732 N.am      3 UNK        -0.5000 
     60 C          -2.7274  -13.2660  -44.8686 C.2       2 UNK         0.5000 
     61 O          -1.6255  -13.0070  -44.3764 O.2       2 UNK        -0.5000 
     62 CA         -2.8312  -13.5657  -46.3687 C.3       2 UNK         0.1400 
     63 CB         -3.2414  -12.3101  -47.1571 C.3       2 UNK        -0.1800 
     64 N          -1.5350  -14.0433  -46.8354 N.am      2 UNK        -0.5000 
     65 C          -1.3219  -14.8043  -47.9151 C.2       1 UNK         0.5000 
     66 O          -2.2304  -15.1912  -48.6490 O.2       1 UNK        -0.5000 
     67 C           1.0660  -22.6070  -48.2889 C.2       11 UNK         0.5000 
     68 O           0.1566  -23.0102  -49.0123 O.2       11 UNK        -0.5000 
     69 N           1.0422  -21.4293  -47.6488 N.am      12 UNK        -0.5000 
     70 CA         -0.0672  -20.4807  -47.7157 C.3       12 UNK         0.1400 
     71 CB          0.3766  -19.1394  -47.1247 C.3       12 UNK        -0.1800 
     72 C          -1.3296  -21.0034  -47.0052 C.2       12 UNK         0.5000 
     73 O          -2.4358  -20.7519  -47.4797 O.2       12 UNK        -0.5000 
     74 N          -1.1511  -21.7498  -45.9061 N.am      13 UNK        -0.5000 
     75 CA         -2.2279  -22.4323  -45.1883 C.3       13 UNK         0.1400 
     76 CB         -1.6972  -23.0210  -43.8715 C.3       13 UNK        -0.1800 
     77 C          -2.8898  -23.5220  -46.0504 C.2       13 UNK         0.5000 
     78 O          -4.1170  -23.5595  -46.1416 O.2       13 UNK        -0.5000 
     79 N          -2.0669  -24.3530  -46.7079 N.am      14 UNK        -0.5000 
     80 CA         -2.4997  -25.3908  -47.6478 C.3       14 UNK         0.1400 
     81 CB         -1.2947  -26.2608  -48.0360 C.3       14 UNK        -0.1800 
     82 C          -3.1871  -24.8193  -48.9033 C.2       14 UNK         0.5000 
     83 O          -4.1532  -25.4072  -49.3903 O.2       14 UNK        -0.5000 
     84 N          -2.6989  -23.6673  -49.3798 N.am      15 UNK        -0.5000 
     85 CA         -3.2652  -22.8994  -50.4895 C.3       15 UNK         0.1400 
     86 CB         -2.2157  -21.8840  -50.9564 C.3       15 UNK        -0.1800 
     87 C          -4.5793  -22.1677  -50.1469 C.2       15 UNK         0.5000 
     88 O          -5.2420  -21.6769  -51.0628 O.2       15 UNK        -0.5000 
     89 N          -4.9171  -22.0905  -48.8496 N.am      16 UNK        -0.5000 
     90 CA         -6.0209  -21.3291  -48.2607 C.3       16 UNK         0.1400 
     91 CB         -7.3853  -21.9176  -48.6754 C.3       16 UNK        -0.1800 
     92 C          -5.8789  -19.8232  -48.5581 C.2       16 UNK         0.5000 
     93 O          -6.7900  -19.2045  -49.1106 O.2       16 UNK        -0.5000 
     94 N          -4.7027  -19.2812  -48.2122 N.am      17 UNK        -0.5000 
     95 CA         -4.2104  -17.9472  -48.5516 C.3       17 UNK         0.1400 
     96 CB         -5.1138  -16.8430  -47.9495 C.3       17 UNK        -0.1800 
     97 C          -3.9730  -17.8440  -50.0723 C.2       17 UNK         0.5000 
     98 O          -3.3693  -18.7467  -50.6518 O.2       17 UNK        -0.5000 
     99 N          -4.4529  -16.7668  -50.7005 N.am      18 UNK        -0.5000 
    100 CA        -4.2931  -16.4940  -52.1290 C.3       18 UNK         0.1400 
    101 CB        -4.3256  -14.9686  -52.3280 C.3       18 UNK        -0.1800 
    102 C         -5.3389  -17.2011  -53.0212 C.2       18 UNK         0.5000 
    103 O         -5.4022  -16.8961  -54.2132 O.2       18 UNK        -0.5000 
    104 N         -6.1681  -18.0883  -52.4478 N.am      19 UNK        -0.5000 
    105 CA        -7.2540  -18.7842  -53.1418 C.3       19 UNK         0.1400 
    106 CB        -8.1258  -19.5352  -52.1249 C.3       19 UNK        -0.1800 
    107 C         -6.7642  -19.7298  -54.2540 C.2       19 UNK         0.5000 
    108 O         -7.2526  -19.6379  -55.3818 O.2       19 UNK        -0.5000 
    109 N         -5.8117  -20.6133  -53.9284 N.am      20 UNK        -0.5000 
    110 CA        -5.1731  -21.5057  -54.8954 C.3       20 UNK         0.1400 
    111 CB        -4.5641  -22.7060  -54.1569 C.3       20 UNK        -0.1800 
    112 C         -4.0899  -20.7676  -55.7018 C.2       20 UNK         0.5000 
    113 O         -3.3910  -19.9121  -55.1545 O.2       20 UNK        -0.5000 
    114 N         -3.9482  -21.1381  -56.9807 N.am      21 UNK        -0.5000 
    115 CA        -2.8872  -20.6444  -57.8633 C.3       21 UNK         0.1400 
    116 CB        -3.3457  -20.7736  -59.3242 C.3       21 UNK        -0.1800 
    117 C         -1.5570  -21.3919  -57.6478 C.2       21 UNK         0.5000 
    118 O         -0.4927  -20.7955  -57.8130 O.2       21 UNK        -0.5000 
    119 N         -1.6502  -22.6783  -57.2805 N.am      22 UNK        -0.5000 
    120 CA        -0.5346  -23.5954  -56.9725 C.3       22 UNK         0.1400 
    121 C          0.3709  -23.9681  -58.1876 C.2       22 UNK         0.5000 
    122 N         -0.0550  -23.7419  -59.4243 N.am      22 UNK        -0.7600 
    123 O          1.4637  -24.5016  -58.0145 O.2       22 UNK        -0.5000 
    124 C124        0.2915  -23.1698  -55.7247 C.3       23 UNK        -0.0398 
    125 S125       -0.7582  -22.8698  -54.2596 S.3       23 UNK        -0.2404 
    126 C126       -0.4452  -21.0960  -53.9509 C.3       23 UNK        -0.0205 
    127 H127        1.9260  -11.3909  -46.7486 H         1 UNK         0.0600 
    128 H128        3.0514  -11.7274  -48.0688 H         1 UNK         0.0600 
    129 H129        2.9760  -12.8097  -46.6778 H         1 UNK         0.0600 
    130 H130        1.7274  -14.6295  -46.9480 H         1 UNK         0.3000 
    131 H131        0.3139  -16.1179  -47.6426 H         1 UNK         0.0600 
    132 H132       -0.1761  -14.8631  -50.3676 H         1 UNK         0.0800 
    133 H133        1.4385  -15.3408  -49.9653 H         1 UNK         0.0800 
    134 H134        2.3079  -17.8696  -49.8009 H         1 UNK         0.0800 
    135 H135        2.0795  -17.1550  -51.3826 H         1 UNK         0.0800 
    136 H136       -0.1558  -18.8692  -52.4806 H         1 UNK         0.1150 
    137 H137        1.7759  -22.6263  -53.2112 H         1 UNK         0.1150 
    138 H138        3.4440  -19.8848  -50.3864 H         1 UNK         0.1150 
    139 H139        4.2352  -22.6625  -52.5275 H         1 UNK         0.0800 
    140 H140        4.7306  -21.8059  -51.0952 H         1 UNK         0.0800 
    141 H141        3.6558  -22.0293  -48.8734 H         1 UNK         0.0800 
    142 H142        4.4215  -23.5235  -48.4206 H         1 UNK         0.0800 
    143 H143        1.9981  -24.5298  -48.2851 H         1 UNK         0.0600 
    144 H144        3.4668  -23.1114  -46.2893 H         1 UNK         0.3000 
    145 H145        1.3889  -23.9794  -43.5480 H         1 UNK         0.0600 
    146 H146        3.4390  -25.0932  -42.7285 H         1 UNK         0.0600 
    147 H147        2.6778  -26.0802  -43.9653 H         1 UNK         0.0600 
    148 H148        4.1088  -25.1353  -44.3600 H         1 UNK         0.0600 
    149 H149        3.9214  -22.7708  -43.5483 H         1 UNK         0.3000 
    150 H150        4.2740  -20.6547  -43.2546 H         1 UNK         0.0600 
    151 H151        4.0446  -19.9454  -45.6381 H         1 UNK         0.0600 
    152 H152        4.2850  -18.5779  -44.5609 H         1 UNK         0.0600 
    153 H153        2.6854  -18.9163  -45.2049 H         1 UNK         0.0600 
    154 H154        2.1490  -18.6825  -42.8417 H         1 UNK         0.3000 
    155 H155        2.1423  -19.3227  -39.2639 H         1 UNK         0.0600 
    156 H156        2.9244  -16.9891  -41.0823 H         1 UNK         0.0600 
    157 H157        3.9813  -17.7615  -39.9071 H         1 UNK         0.0600 
    158 H158        2.5534  -16.8960  -39.3619 H         1 UNK         0.0600 
    159 H159        0.5311  -17.5495  -40.7785 H         1 UNK         0.3000 
    160 H160       -2.3831  -19.6394  -40.8581 H         1 UNK         0.0600 
    161 H161       -1.6073  -17.1511  -39.2458 H         1 UNK         0.0600 
    162 H162       -2.2988  -18.6321  -38.5997 H         1 UNK         0.0600 
    163 H163       -3.2479  -17.6230  -39.6815 H         1 UNK         0.0600 
    164 H164       -1.7062  -16.9456  -41.7359 H         1 UNK         0.3000 
    165 H165       -0.9039  -17.8967  -45.0354 H         1 UNK         0.0600 
    166 H166       -2.7001  -16.4546  -45.8046 H         1 UNK         0.0600 
    167 H167       -3.4099  -17.9140  -45.1534 H         1 UNK         0.0600 
    168 H168       -3.4536  -16.4326  -44.2075 H         1 UNK         0.0600 
    169 H169       -1.2995  -15.3728  -43.6581 H         1 UNK         0.3000 
    170 H170        1.9982  -15.1516  -42.3770 H         1 UNK         0.0600 
    171 H171        2.4028  -14.4559  -44.7035 H         1 UNK         0.0600 
    172 H172        2.0732  -13.0521  -43.7021 H         1 UNK         0.0600 
    173 H173        0.8314  -13.6703  -44.7863 H         1 UNK         0.0600 
    174 H174       -0.2872  -13.3731  -42.5405 H         1 UNK         0.3000 
    175 H175       -1.7941  -14.5072  -39.5166 H         1 UNK         0.0600 
    176 H176       -0.0935  -11.9845  -39.8987 H         1 UNK         0.0600 
    177 H177       -1.3579  -12.2126  -38.6895 H         1 UNK         0.0600 
    178 H178        0.1139  -13.1676  -38.6127 H         1 UNK         0.0600 
    179 H179       -2.2852  -12.1796  -41.0550 H         1 UNK         0.3000 
    180 H180       -5.0530  -13.3254  -42.4810 H         1 UNK         0.0600 
    181 H181       -2.9585  -11.0956  -42.7603 H         1 UNK         0.0600 
    182 H182       -4.1546  -11.2337  -41.4689 H         1 UNK         0.0600 
    183 H183       -4.6735  -10.9562  -43.1182 H         1 UNK         0.0600 
    184 H184       -4.7201  -13.5592  -44.6602 H         1 UNK         0.3000 
    185 H185       -3.5810  -14.3453  -46.5126 H         1 UNK         0.0600 
    186 H186       -2.5044  -11.5130  -47.0504 H         1 UNK         0.0600 
    187 H187       -3.3460  -12.5276  -48.2202 H         1 UNK         0.0600 
    188 H188       -4.1999  -11.9226  -46.8100 H         1 UNK         0.0600 
    189 H189       -0.7563  -13.7625  -46.2547 H         1 UNK         0.3000 
    190 H190        1.7907  -21.2025  -47.0123 H         1 UNK         0.3000 
    191 H191       -0.3097  -20.3182  -48.7677 H         1 UNK         0.0600 
    192 H192       -0.4094  -18.3938  -47.2451 H         1 UNK         0.0600 
    193 H193        1.2677  -18.7588  -47.6235 H         1 UNK         0.0600 
    194 H194        0.5966  -19.2282  -46.0618 H         1 UNK         0.0600 
    195 H195       -0.2195  -21.8159  -45.5071 H         1 UNK         0.3000 
    196 H196       -2.9865  -21.6859  -44.9436 H         1 UNK         0.0600 
    197 H197       -2.5129  -23.4328  -43.2765 H         1 UNK         0.0600 
    198 H198       -1.2045  -22.2605  -43.2655 H         1 UNK         0.0600 
    199 H199       -0.9825  -23.8244  -44.0432 H         1 UNK         0.0600 
    200 H200       -1.0663  -24.2772  -46.5478 H         1 UNK         0.3000 
    201 H201       -3.2252  -26.0241  -47.1331 H         1 UNK         0.0600 
    202 H202       -0.8516  -26.7337  -47.1594 H         1 UNK         0.0600 
    203 H203       -0.5172  -25.6748  -48.5275 H         1 UNK         0.0600 
    204 H204       -1.5905  -27.0562  -48.7211 H         1 UNK         0.0600 
    205 H205       -1.8474  -23.2963  -48.9700 H         1 UNK         0.3000 
    206 H206       -3.4739  -23.5854  -51.3125 H         1 UNK         0.0600 
    207 H207       -1.3053  -22.3783  -51.2940 H         1 UNK         0.0600 
    208 H208       -2.5942  -21.2817  -51.7812 H         1 UNK         0.0600 
    209 H209       -1.9467  -21.1921  -50.1599 H         1 UNK         0.0600 
    210 H210       -4.2886  -22.5190  -48.1822 H         1 UNK         0.3000 
    211 H211       -5.9298  -21.4410  -47.1793 H         1 UNK         0.0600 
    212 H212       -7.5589  -21.8361  -49.7480 H         1 UNK         0.0600 
    213 H213       -8.2015  -21.3977  -48.1728 H         1 UNK         0.0600 
    214 H214       -7.4554  -22.9713  -48.4055 H         1 UNK         0.0600 
    215 H215       -3.9808  -19.9094  -47.8607 H         1 UNK         0.3000 
    216 H216       -3.2268  -17.8593  -48.0876 H         1 UNK         0.0600 
    217 H217       -4.6783  -15.8543  -48.0865 H         1 UNK         0.0600 
    218 H218       -5.2415  -16.9876  -46.8769 H         1 UNK         0.0600 
    219 H219       -6.1063  -16.8233  -48.3992 H         1 UNK         0.0600 
    220 H220       -4.9414  -16.0691  -50.1590 H         1 UNK         0.3000 
    221 H221       -3.3112  -16.8500  -52.4485 H         1 UNK         0.0600 
    222 H222       -5.2958  -14.5491  -52.0591 H         1 UNK         0.0600 
    223 H223       -3.5660  -14.4766  -51.7195 H         1 UNK         0.0600 
    224 H224       -4.1274  -14.7009  -53.3665 H         1 UNK         0.0600 
    225 H225       -6.0483  -18.2989  -51.4664 H         1 UNK         0.3000 
    226 H226       -7.8791  -18.0227  -53.6127 H         1 UNK         0.0600 
    227 H227       -7.5543  -20.2941  -51.5910 H         1 UNK         0.0600 
    228 H228       -8.5478  -18.8538  -51.3860 H         1 UNK         0.0600 
    229 H229       -8.9584  -20.0379  -52.6183 H         1 UNK         0.0600 
    230 H230       -5.4612  -20.6428  -52.9773 H         1 UNK         0.3000 
    231 H231       -5.9338  -21.8829  -55.5824 H         1 UNK         0.0600 
    232 H232       -5.3144  -23.2325  -53.5669 H         1 UNK         0.0600 
    233 H233       -4.1363  -23.4230  -54.8585 H         1 UNK         0.0600 
    234 H234       -3.7659  -22.3944  -53.4848 H         1 UNK         0.0600 
    235 H235       -4.5746  -21.8298  -57.3670 H         1 UNK         0.3000 
    236 H236       -2.7128  -19.5860  -57.6570 H         1 UNK         0.0600 
    237 H237       -4.2524  -20.1957  -59.5043 H         1 UNK         0.0600 
    238 H238       -2.5821  -20.3988  -60.0072 H         1 UNK         0.0600 
    239 H239       -3.5489  -21.8103  -59.5954 H         1 UNK         0.0600 
    240 H240       -2.5721  -23.0731  -57.1751 H         1 UNK         0.3000 
    241 H241       -1.0188  -24.5373  -56.7126 H         1 UNK         0.0600 
    242 H242        0.5301  -23.9952  -60.2052 H         1 UNK         0.3800 
    243 H243       -0.9527  -23.3153  -59.5875 H         1 UNK         0.3800 
    244 H244        0.8946  -22.2888  -55.9473 H         1 UNK         0.0800 
    245 H245        1.0003  -23.9542  -55.4553 H         1 UNK         0.0800 
    246 H246       -0.2273  -20.5821  -54.8875 H         1 UNK         0.0800 
    247 H247       -1.3760  -20.6597  -53.5904 H         1 UNK         0.0800 
@<TRIPOS>BOND
     1    1    2 1    
     2    1  127 1    
     3    1  128 1    
     4    1  129 1    
     5    2    3 2    
     6    2    4 am   BACKBONE|DICT|INTERRES
     7    4    5 1    
     8    4  130 1    
     9    5    6 1    
    10    5   65 1    
    11    5  131 1    
    12    6    7 1    
    13    6  132 1    
    14    6  133 1    
    15    7    8 1    
    16    8    9 1    
    17    8  134 1    
    18    8  135 1    
    19    9   10 ar   
    20    9   14 ar   
    21   10   11 ar   
    22   10  136 1    
    23   11   12 ar   
    24   11  126 1    
    25   12   13 ar   
    26   12  137 1    
    27   13   14 ar   
    28   13   15 1    
    29   14  138 1    
    30   15   16 1    
    31   15  139 1    
    32   15  140 1    
    33   16   17 1    
    34   17   18 1    
    35   17  141 1    
    36   17  142 1    
    37   18   19 1    
    38   18   67 1    
    39   18  143 1    
    40   19   20 am   BACKBONE|DICT|INTERRES
    41   19  144 1    
    42   20   21 2    
    43   20   22 1    
    44   22   23 1    
    45   22   24 1    
    46   22  145 1    
    47   23  146 1    
    48   23  147 1    
    49   23  148 1    
    50   24   25 am   BACKBONE|DICT|INTERRES
    51   24  149 1    
    52   25   26 2    
    53   25   27 1    
    54   27   28 1    
    55   27   29 1    
    56   27  150 1    
    57   28  151 1    
    58   28  152 1    
    59   28  153 1    
    60   29   30 am   BACKBONE|DICT|INTERRES
    61   29  154 1    
    62   30   31 2    
    63   30   32 1    
    64   32   33 1    
    65   32   34 1    
    66   32  155 1    
    67   33  156 1    
    68   33  157 1    
    69   33  158 1    
    70   34   35 am   BACKBONE|DICT|INTERRES
    71   34  159 1    
    72   35   36 2    
    73   35   37 1    
    74   37   38 1    
    75   37   39 1    
    76   37  160 1    
    77   38  161 1    
    78   38  162 1    
    79   38  163 1    
    80   39   40 am   BACKBONE|DICT|INTERRES
    81   39  164 1    
    82   40   41 2    
    83   40   42 1    
    84   42   43 1    
    85   42   44 1    
    86   42  165 1    
    87   43  166 1    
    88   43  167 1    
    89   43  168 1    
    90   44   45 am   BACKBONE|DICT|INTERRES
    91   44  169 1    
    92   45   46 2    
    93   45   47 1    
    94   47   48 1    
    95   47   49 1    
    96   47  170 1    
    97   48  171 1    
    98   48  172 1    
    99   48  173 1    
   100   49   50 am   BACKBONE|DICT|INTERRES
   101   49  174 1    
   102   50   51 2    
   103   50   52 1    
   104   52   53 1    
   105   52   54 1    
   106   52  175 1    
   107   53  176 1    
   108   53  177 1    
   109   53  178 1    
   110   54   55 am   BACKBONE|DICT|INTERRES
   111   54  179 1    
   112   55   56 2    
   113   55   57 1    
   114   57   58 1    
   115   57   59 1    
   116   57  180 1    
   117   58  181 1    
   118   58  182 1    
   119   58  183 1    
   120   59   60 am   BACKBONE|DICT|INTERRES
   121   59  184 1    
   122   60   61 2    
   123   60   62 1    
   124   62   63 1    
   125   62   64 1    
   126   62  185 1    
   127   63  186 1    
   128   63  187 1    
   129   63  188 1    
   130   64   65 am   BACKBONE|DICT|INTERRES
   131   64  189 1    
   132   65   66 2    
   133   67   68 2    
   134   67   69 am   BACKBONE|DICT|INTERRES
   135   69   70 1    
   136   69  190 1    
   137   70   71 1    
   138   70   72 1    
   139   70  191 1    
   140   71  192 1    
   141   71  193 1    
   142   71  194 1    
   143   72   73 2    
   144   72   74 am   BACKBONE|DICT|INTERRES
   145   74   75 1    
   146   74  195 1    
   147   75   76 1    
   148   75   77 1    
   149   75  196 1    
   150   76  197 1    
   151   76  198 1    
   152   76  199 1    
   153   77   78 2    
   154   77   79 am   BACKBONE|DICT|INTERRES
   155   79   80 1    
   156   79  200 1    
   157   80   81 1    
   158   80   82 1    
   159   80  201 1    
   160   81  202 1    
   161   81  203 1    
   162   81  204 1    
   163   82   83 2    
   164   82   84 am   BACKBONE|DICT|INTERRES
   165   84   85 1    
   166   84  205 1    
   167   85   86 1    
   168   85   87 1    
   169   85  206 1    
   170   86  207 1    
   171   86  208 1    
   172   86  209 1    
   173   87   88 2    
   174   87   89 am   BACKBONE|DICT|INTERRES
   175   89   90 1    
   176   89  210 1    
   177   90   91 1    
   178   90   92 1    
   179   90  211 1    
   180   91  212 1    
   181   91  213 1    
   182   91  214 1    
   183   92   93 2    
   184   92   94 am   BACKBONE|DICT|INTERRES
   185   94   95 1    
   186   94  215 1    
   187   95   96 1    
   188   95   97 1    
   189   95  216 1    
   190   96  217 1    
   191   96  218 1    
   192   96  219 1    
   193   97   98 2    
   194   97   99 am   BACKBONE|DICT|INTERRES
   195   99  100 1    
   196   99  220 1    
   197  100  101 1    
   198  100  102 1    
   199  100  221 1    
   200  101  222 1    
   201  101  223 1    
   202  101  224 1    
   203  102  103 2    
   204  102  104 am   BACKBONE|DICT|INTERRES
   205  104  105 1    
   206  104  225 1    
   207  105  106 1    
   208  105  107 1    
   209  105  226 1    
   210  106  227 1    
   211  106  228 1    
   212  106  229 1    
   213  107  108 2    
   214  107  109 am   BACKBONE|DICT|INTERRES
   215  109  110 1    
   216  109  230 1    
   217  110  111 1    
   218  110  112 1    
   219  110  231 1    
   220  111  232 1    
   221  111  233 1    
   222  111  234 1    
   223  112  113 2    
   224  112  114 am   BACKBONE|DICT|INTERRES
   225  114  115 1    
   226  114  235 1    
   227  115  116 1    
   228  115  117 1    
   229  115  236 1    
   230  116  237 1    
   231  116  238 1    
   232  116  239 1    
   233  117  118 2    
   234  117  119 am   BACKBONE|DICT|INTERRES
   235  119  120 1    
   236  119  240 1    
   237  120  121 1    
   238  120  124 1    
   239  120  241 1    
   240  121  122 am   BACKBONE|DICT|INTERRES
   241  121  123 2    
   242  122  242 1    
   243  122  243 1    
   244  124  125 1    
   245  124  244 1    
   246  124  245 1    
   247  125  126 1    
   248  126  246 1    
   249  126  247 1    
@<TRIPOS>SUBSTRUCTURE
     1 UNK         1 GROUP             0       ****    0 ROOT    
