@<TRIPOS>MOLECULE
3R540
247   249    1
SMALL
USER_CHARGES


@<TRIPOS>ATOM
      1 CA          0.0749  -16.9167  -50.8438 C.3       0 UNK        -0.1800 
      2 C           0.8215  -15.9503  -49.9411 C.2       0 UNK         0.5000 
      3 O           1.8403  -16.3199  -49.3598 O.2       0 UNK        -0.5000 
      4 N           0.3365  -14.7062  -49.8366 N.am      1 UNK        -0.5000 
      5 CA          0.8282  -13.6679  -48.9163 C.3       1 UNK         0.1400 
      6 C6         -0.2035  -12.5345  -48.6934 C.3       23 UNK        -0.0398 
      7 S7         -1.8749  -13.1104  -48.2261 S.3       23 UNK        -0.2404 
      8 C8         -1.6078  -13.8828  -46.5954 C.3       23 UNK        -0.0205 
      9 C9         -1.7080  -15.4005  -46.6742 C.ar      23 UNK        -0.0193 
     10 C10        -2.9612  -16.0170  -46.7666 C.ar      23 UNK        -0.1150 
     11 C11        -3.0694  -17.4110  -46.8235 C.ar      23 UNK        -0.0193 
     12 C12        -1.9069  -18.1866  -46.8119 C.ar      23 UNK        -0.1150 
     13 C13        -0.6497  -17.5833  -46.7343 C.ar      23 UNK        -0.0193 
     14 C14        -0.5569  -16.1930  -46.6412 C.ar      23 UNK        -0.1150 
     15 C15         0.6049  -18.4351  -46.7994 C.3       23 UNK        -0.0205 
     16 S16         0.8529  -19.4091  -45.2841 S.3       23 UNK        -0.2404 
     17 C17         2.0357  -20.6529  -45.9078 C.3       23 UNK        -0.0398 
     18 CA          1.4551  -22.0715  -46.1464 C.3       11 UNK         0.1400 
     19 N           1.1970  -22.8061  -44.9038 N.am      11 UNK        -0.5000 
     20 C           1.1246  -24.1445  -44.8428 C.2       10 UNK         0.5000 
     21 O           1.2403  -24.8797  -45.8241 O.2       10 UNK        -0.5000 
     22 CA          0.8540  -24.7669  -43.4625 C.3       10 UNK         0.1400 
     23 CB          2.1155  -24.7249  -42.5867 C.3       10 UNK        -0.1800 
     24 N          -0.2520  -24.1241  -42.7552 N.am      10 UNK        -0.5000 
     25 C          -1.5294  -24.1488  -43.1599 C.2       9 UNK         0.5000 
     26 O          -1.9132  -24.6993  -44.1896 O.2       9 UNK        -0.5000 
     27 CA         -2.5459  -23.3967  -42.2841 C.3       9 UNK         0.1400 
     28 CB         -3.0422  -24.2924  -41.1393 C.3       9 UNK        -0.1800 
     29 N          -2.0188  -22.1465  -41.7332 N.am      9 UNK        -0.5000 
     30 C          -1.6148  -21.1105  -42.4776 C.2       8 UNK         0.5000 
     31 O          -1.5974  -21.1173  -43.7119 O.2       8 UNK        -0.5000 
     32 CA         -1.1384  -19.8689  -41.7177 C.3       8 UNK         0.1400 
     33 CB          0.3687  -19.9392  -41.4210 C.3       8 UNK        -0.1800 
     34 N          -1.4337  -18.7117  -42.5483 N.am      8 UNK        -0.5000 
     35 C          -1.7592  -17.4971  -42.1045 C.2       7 UNK         0.5000 
     36 O          -1.7547  -17.1700  -40.9147 O.2       7 UNK        -0.5000 
     37 CA         -2.2329  -16.5012  -43.1748 C.3       7 UNK         0.1400 
     38 CB         -3.7624  -16.5561  -43.3174 C.3       7 UNK        -0.1800 
     39 N          -1.8343  -15.1304  -42.8654 N.am      7 UNK        -0.5000 
     40 C          -0.5825  -14.6738  -42.9723 C.2       6 UNK         0.5000 
     41 O           0.3735  -15.3551  -43.3481 O.2       6 UNK        -0.5000 
     42 CA         -0.3596  -13.2034  -42.6046 C.3       6 UNK         0.1400 
     43 CB          0.1694  -13.0605  -41.1670 C.3       6 UNK        -0.1800 
     44 N           0.5980  -12.6483  -43.5511 N.am      6 UNK        -0.5000 
     45 C           0.7010  -11.3648  -43.9037 C.2       5 UNK         0.5000 
     46 O           0.0065  -10.4746  -43.4096 O.2       5 UNK        -0.5000 
     47 CA          1.7497  -11.0176  -44.9853 C.3       5 UNK         0.1400 
     48 CB          2.0860   -9.5156  -45.0215 C.3       5 UNK        -0.1800 
     49 N           2.9998  -11.7721  -44.8538 N.am      5 UNK        -0.5000 
     50 C           3.1993  -13.0268  -45.2744 C.2       4 UNK         0.5000 
     51 O           2.3021  -13.7287  -45.7426 O.2       4 UNK        -0.5000 
     52 CA          4.6325  -13.5679  -45.1114 C.3       4 UNK         0.1400 
     53 CB          4.8295  -14.2362  -43.7363 C.3       4 UNK        -0.1800 
     54 N           5.0374  -14.4377  -46.2217 N.am      4 UNK        -0.5000 
     55 C           4.6562  -15.6927  -46.5024 C.2       3 UNK         0.5000 
     56 O           3.9600  -16.3967  -45.7701 O.2       3 UNK        -0.5000 
     57 CA          5.1432  -16.2346  -47.8612 C.3       3 UNK         0.1400 
     58 CB          4.7609  -17.7086  -48.0927 C.3       3 UNK        -0.1800 
     59 N           4.5907  -15.4248  -48.9465 N.am      3 UNK        -0.5000 
     60 C           5.1433  -14.3087  -49.4459 C.2       2 UNK         0.5000 
     61 O           6.2294  -13.8659  -49.0704 O.2       2 UNK        -0.5000 
     62 CA          4.3306  -13.5309  -50.5030 C.3       2 UNK         0.1400 
     63 CB          4.6697  -14.0243  -51.9174 C.3       2 UNK        -0.1800 
     64 N           2.8913  -13.6610  -50.2812 N.am      2 UNK        -0.5000 
     65 C           2.2324  -13.1092  -49.2533 C.2       1 UNK         0.5000 
     66 O           2.7121  -12.2126  -48.5585 O.2       1 UNK        -0.5000 
     67 C           0.2360  -22.1016  -47.0942 C.2       11 UNK         0.5000 
     68 O           0.4209  -22.1677  -48.3099 O.2       11 UNK        -0.5000 
     69 N          -0.9804  -22.1114  -46.5251 N.am      12 UNK        -0.5000 
     70 CA         -2.2278  -22.3153  -47.2577 C.3       12 UNK         0.1400 
     71 CB         -3.4288  -22.0462  -46.3390 C.3       12 UNK        -0.1800 
     72 C          -2.3033  -23.7249  -47.8685 C.2       12 UNK         0.5000 
     73 O          -2.5767  -23.8461  -49.0613 O.2       12 UNK        -0.5000 
     74 N          -2.0152  -24.7604  -47.0646 N.am      13 UNK        -0.5000 
     75 CA         -1.9994  -26.1646  -47.4847 C.3       13 UNK         0.1400 
     76 CB         -1.7855  -27.0770  -46.2683 C.3       13 UNK        -0.1800 
     77 C          -0.9535  -26.4650  -48.5716 C.2       13 UNK         0.5000 
     78 O          -1.2514  -27.2177  -49.4988 O.2       13 UNK        -0.5000 
     79 N           0.2247  -25.8316  -48.4798 N.am      14 UNK        -0.5000 
     80 CA          1.2919  -25.9057  -49.4836 C.3       14 UNK         0.1400 
     81 CB          2.5356  -25.1764  -48.9540 C.3       14 UNK        -0.1800 
     82 C           0.8834  -25.3457  -50.8629 C.2       14 UNK         0.5000 
     83 O           1.4004  -25.8042  -51.8818 O.2       14 UNK        -0.5000 
     84 N          -0.0536  -24.3900  -50.8683 N.am      15 UNK        -0.5000 
     85 CA         -0.6560  -23.7894  -52.0580 C.3       15 UNK         0.1400 
     86 CB         -0.8421  -22.2917  -51.7762 C.3       15 UNK        -0.1800 
     87 C          -2.0038  -24.4434  -52.4327 C.2       15 UNK         0.5000 
     88 O          -2.6719  -23.9613  -53.3499 O.2       15 UNK        -0.5000 
     89 N          -2.4082  -25.4912  -51.6949 N.am      16 UNK        -0.5000 
     90 CA         -3.6902  -26.2032  -51.7743 C.3       16 UNK         0.1400 
     91 CB         -3.7664  -27.0220  -53.0792 C.3       16 UNK        -0.1800 
     92 C          -4.9146  -25.2802  -51.5795 C.2       16 UNK         0.5000 
     93 O          -5.9744  -25.5351  -52.1547 O.2       16 UNK        -0.5000 
     94 N          -4.7271  -24.1958  -50.8115 N.am      17 UNK        -0.5000 
     95 CA         -5.6000  -23.0408  -50.5707 C.3       17 UNK         0.1400 
     96 CB         -6.8953  -23.4559  -49.8506 C.3       17 UNK        -0.1800 
     97 C          -5.9078  -22.1945  -51.8228 C.2       17 UNK         0.5000 
     98 O          -5.8762  -20.9667  -51.7418 O.2       17 UNK        -0.5000 
     99 N          -6.2044  -22.8549  -52.9469 N.am      18 UNK        -0.5000 
    100 CA        -6.6482  -22.2736  -54.2098 C.3       18 UNK         0.1400 
    101 CB        -7.0381  -23.4049  -55.1730 C.3       18 UNK        -0.1800 
    102 C         -5.6256  -21.3331  -54.8667 C.2       18 UNK         0.5000 
    103 O         -6.0151  -20.2572  -55.3210 O.2       18 UNK        -0.5000 
    104 N         -4.3432  -21.7281  -54.8968 N.am      19 UNK        -0.5000 
    105 CA        -3.2809  -20.9383  -55.5330 C.3       19 UNK         0.1400 
    106 CB        -2.0640  -21.8297  -55.8235 C.3       19 UNK        -0.1800 
    107 C         -2.8774  -19.7023  -54.7068 C.2       19 UNK         0.5000 
    108 O         -2.4021  -18.7197  -55.2764 O.2       19 UNK        -0.5000 
    109 N         -3.0974  -19.7664  -53.3879 N.am      20 UNK        -0.5000 
    110 CA        -2.8992  -18.6602  -52.4514 C.3       20 UNK         0.1400 
    111 CB        -2.4908  -19.2442  -51.0921 C.3       20 UNK        -0.1800 
    112 C         -4.1464  -17.7622  -52.3169 C.2       20 UNK         0.5000 
    113 O         -4.0430  -16.6769  -51.7451 O.2       20 UNK        -0.5000 
    114 N         -5.2890  -18.2263  -52.8466 N.am      21 UNK        -0.5000 
    115 CA        -6.6228  -17.6221  -52.7859 C.3       21 UNK         0.1400 
    116 CB        -6.6615  -16.2849  -53.5550 C.3       21 UNK        -0.1800 
    117 C         -7.1663  -17.5182  -51.3443 C.2       21 UNK         0.5000 
    118 O         -7.8041  -16.5240  -50.9916 O.2       21 UNK        -0.5000 
    119 N         -6.9070  -18.5554  -50.5378 N.am      22 UNK        -0.5000 
    120 CA        -7.3298  -18.6514  -49.1290 C.3       22 UNK         0.1400 
    121 C         -8.8148  -19.0767  -48.9341 C.2       22 UNK         0.5000 
    122 N         -9.5300  -19.5023  -49.9687 N.am      22 UNK        -0.7600 
    123 O         -9.3313  -19.0122  -47.8221 O.2       22 UNK        -0.5000 
    124 C124       -6.3901  -19.5606  -48.2945 C.3       23 UNK        -0.0398 
    125 S125       -4.6420  -19.0593  -48.3998 S.3       23 UNK        -0.2404 
    126 C126       -4.4364  -18.0807  -46.8808 C.3       23 UNK        -0.0205 
    127 H127       -0.9143  -16.5393  -51.1041 H         1 UNK         0.0600 
    128 H128        0.6353  -17.0880  -51.7627 H         1 UNK         0.0600 
    129 H129       -0.0460  -17.8713  -50.3327 H         1 UNK         0.0600 
    130 H130       -0.5028  -14.4634  -50.3437 H         1 UNK         0.3000 
    131 H131        0.9678  -14.1554  -47.9541 H         1 UNK         0.0600 
    132 H132       -0.3021  -11.9375  -49.6015 H         1 UNK         0.0800 
    133 H133        0.1393  -11.8471  -47.9194 H         1 UNK         0.0800 
    134 H134       -2.3632  -13.5111  -45.9018 H         1 UNK         0.0800 
    135 H135       -0.6446  -13.5799  -46.1819 H         1 UNK         0.0800 
    136 H136       -3.8530  -15.4067  -46.7845 H         1 UNK         0.1150 
    137 H137       -1.9785  -19.2631  -46.8735 H         1 UNK         0.1150 
    138 H138        0.4170  -15.7339  -46.5510 H         1 UNK         0.1150 
    139 H139        0.5261  -19.0979  -47.6623 H         1 UNK         0.0800 
    140 H140        1.4851  -17.8120  -46.9672 H         1 UNK         0.0800 
    141 H141        2.4872  -20.2853  -46.8309 H         1 UNK         0.0800 
    142 H142        2.8605  -20.7126  -45.1967 H         1 UNK         0.0800 
    143 H143        2.2431  -22.6211  -46.6669 H         1 UNK         0.0600 
    144 H144        1.0394  -22.2573  -44.0717 H         1 UNK         0.3000 
    145 H145        0.5865  -25.8141  -43.6199 H         1 UNK         0.0600 
    146 H146        1.9583  -25.2504  -41.6446 H         1 UNK         0.0600 
    147 H147        2.9555  -25.2063  -43.0894 H         1 UNK         0.0600 
    148 H148        2.4143  -23.7019  -42.3543 H         1 UNK         0.0600 
    149 H149       -0.0282  -23.6354  -41.9013 H         1 UNK         0.3000 
    150 H150       -3.4011  -23.1470  -42.9157 H         1 UNK         0.0600 
    151 H151       -3.4560  -25.2251  -41.5253 H         1 UNK         0.0600 
    152 H152       -3.8300  -23.8016  -40.5675 H         1 UNK         0.0600 
    153 H153       -2.2371  -24.5507  -40.4503 H         1 UNK         0.0600 
    154 H154       -1.9984  -22.0696  -40.7264 H         1 UNK         0.3000 
    155 H155       -1.6939  -19.8002  -40.7799 H         1 UNK         0.0600 
    156 H156        0.7080  -19.0472  -40.8943 H         1 UNK         0.0600 
    157 H157        0.9564  -20.0298  -42.3347 H         1 UNK         0.0600 
    158 H158        0.6043  -20.7980  -40.7915 H         1 UNK         0.0600 
    159 H159       -1.4807  -18.9249  -43.5381 H         1 UNK         0.3000 
    160 H160       -1.7846  -16.7828  -44.1280 H         1 UNK         0.0600 
    161 H161       -4.2636  -16.3036  -42.3822 H         1 UNK         0.0600 
    162 H162       -4.0904  -17.5552  -43.6071 H         1 UNK         0.0600 
    163 H163       -4.1146  -15.8654  -44.0833 H         1 UNK         0.0600 
    164 H164       -2.5559  -14.5239  -42.5050 H         1 UNK         0.3000 
    165 H165       -1.3082  -12.6700  -42.6972 H         1 UNK         0.0600 
    166 H166        1.1287  -13.5645  -41.0419 H         1 UNK         0.0600 
    167 H167        0.3033  -12.0131  -40.8961 H         1 UNK         0.0600 
    168 H168       -0.5276  -13.4959  -40.4501 H         1 UNK         0.0600 
    169 H169        1.1601  -13.3387  -44.0420 H         1 UNK         0.3000 
    170 H170        1.2979  -11.2708  -45.9456 H         1 UNK         0.0600 
    171 H171        1.1940   -8.9158  -45.2069 H         1 UNK         0.0600 
    172 H172        2.5209   -9.1785  -44.0799 H         1 UNK         0.0600 
    173 H173        2.7938   -9.2897  -45.8194 H         1 UNK         0.0600 
    174 H174        3.7701  -11.2729  -44.4329 H         1 UNK         0.3000 
    175 H175        5.3120  -12.7155  -45.1607 H         1 UNK         0.0600 
    176 H176        4.1090  -15.0362  -43.5632 H         1 UNK         0.0600 
    177 H177        5.8309  -14.6552  -43.6380 H         1 UNK         0.0600 
    178 H178        4.6995  -13.5109  -42.9324 H         1 UNK         0.0600 
    179 H179        5.5877  -13.9758  -46.9357 H         1 UNK         0.3000 
    180 H180        6.2334  -16.1719  -47.8711 H         1 UNK         0.0600 
    181 H181        3.6802  -17.8525  -48.0889 H         1 UNK         0.0600 
    182 H182        5.1798  -18.3477  -47.3145 H         1 UNK         0.0600 
    183 H183        5.1414  -18.0681  -49.0487 H         1 UNK         0.0600 
    184 H184        3.6541  -15.6867  -49.2435 H         1 UNK         0.3000 
    185 H185        4.6031  -12.4758  -50.4311 H         1 UNK         0.0600 
    186 H186        5.7365  -13.9215  -52.1204 H         1 UNK         0.0600 
    187 H187        4.4094  -15.0751  -52.0513 H         1 UNK         0.0600 
    188 H188        4.1382  -13.4472  -52.6743 H         1 UNK         0.0600 
    189 H189        2.4181  -14.3867  -50.7994 H         1 UNK         0.3000 
    190 H190       -1.0554  -21.9959  -45.5198 H         1 UNK         0.3000 
    191 H191       -2.2602  -21.5925  -48.0761 H         1 UNK         0.0600 
    192 H192       -4.3676  -22.1560  -46.8833 H         1 UNK         0.0600 
    193 H193       -3.4013  -21.0319  -45.9414 H         1 UNK         0.0600 
    194 H194       -3.4541  -22.7329  -45.4928 H         1 UNK         0.0600 
    195 H195       -1.8279  -24.5879  -46.0800 H         1 UNK         0.3000 
    196 H196       -2.9810  -26.3900  -47.9065 H         1 UNK         0.0600 
    197 H197       -1.7590  -28.1265  -46.5642 H         1 UNK         0.0600 
    198 H198       -2.5944  -26.9656  -45.5463 H         1 UNK         0.0600 
    199 H199       -0.8472  -26.8543  -45.7589 H         1 UNK         0.0600 
    200 H200        0.4147  -25.2742  -47.6529 H         1 UNK         0.3000 
    201 H201        1.5459  -26.9588  -49.6198 H         1 UNK         0.0600 
    202 H202        2.8803  -25.6129  -48.0165 H         1 UNK         0.0600 
    203 H203        2.3361  -24.1191  -48.7786 H         1 UNK         0.0600 
    204 H204        3.3601  -25.2416  -49.6652 H         1 UNK         0.0600 
    205 H205       -0.4246  -24.0737  -49.9808 H         1 UNK         0.3000 
    206 H206        0.0118  -23.8981  -52.9147 H         1 UNK         0.0600 
    207 H207        0.1024  -21.8208  -51.5027 H         1 UNK         0.0600 
    208 H208       -1.2219  -21.7665  -52.6509 H         1 UNK         0.0600 
    209 H209       -1.5451  -22.1255  -50.9591 H         1 UNK         0.0600 
    210 H210       -1.7913  -25.8125  -50.9583 H         1 UNK         0.3000 
    211 H211       -3.7037  -26.9045  -50.9392 H         1 UNK         0.0600 
    212 H212       -3.8184  -26.3781  -53.9578 H         1 UNK         0.0600 
    213 H213       -4.6488  -27.6627  -53.0900 H         1 UNK         0.0600 
    214 H214       -2.8964  -27.6693  -53.1886 H         1 UNK         0.0600 
    215 H215       -3.8163  -24.1137  -50.3618 H         1 UNK         0.3000 
    216 H216       -5.0419  -22.3924  -49.8930 H         1 UNK         0.0600 
    217 H217       -7.5015  -24.1300  -50.4562 H         1 UNK         0.0600 
    218 H218       -7.5120  -22.5860  -49.6215 H         1 UNK         0.0600 
    219 H219       -6.6761  -23.9572  -48.9079 H         1 UNK         0.0600 
    220 H220       -6.1982  -23.8705  -52.8903 H         1 UNK         0.3000 
    221 H221       -7.5438  -21.6858  -53.9985 H         1 UNK         0.0600 
    222 H222       -6.1938  -24.0631  -55.3825 H         1 UNK         0.0600 
    223 H223       -7.8418  -24.0144  -54.7594 H         1 UNK         0.0600 
    224 H224       -7.3901  -23.0060  -56.1253 H         1 UNK         0.0600 
    225 H225       -4.0732  -22.6092  -54.4734 H         1 UNK         0.3000 
    226 H226       -3.6565  -20.5772  -56.4930 H         1 UNK         0.0600 
    227 H227       -2.3458  -22.7072  -56.4056 H         1 UNK         0.0600 
    228 H228       -1.3143  -21.2849  -56.3984 H         1 UNK         0.0600 
    229 H229       -1.5823  -22.1738  -54.9102 H         1 UNK         0.0600 
    230 H230       -3.5077  -20.6094  -53.0125 H         1 UNK         0.3000 
    231 H231       -2.0842  -18.0244  -52.8028 H         1 UNK         0.0600 
    232 H232       -3.1816  -20.0210  -50.7632 H         1 UNK         0.0600 
    233 H233       -1.4932  -19.6773  -51.1381 H         1 UNK         0.0600 
    234 H234       -2.4656  -18.4738  -50.3204 H         1 UNK         0.0600 
    235 H235       -5.2584  -19.1402  -53.2768 H         1 UNK         0.3000 
    236 H236       -7.2860  -18.3149  -53.3059 H         1 UNK         0.0600 
    237 H237       -6.2801  -16.4035  -54.5692 H         1 UNK         0.0600 
    238 H238       -7.6826  -15.9105  -53.6350 H         1 UNK         0.0600 
    239 H239       -6.0696  -15.5140  -53.0611 H         1 UNK         0.0600 
    240 H240       -6.3942  -19.3500  -50.9116 H         1 UNK         0.3000 
    241 H241       -7.2571  -17.6501  -48.6999 H         1 UNK         0.0600 
    242 H242       -9.1187  -19.5574  -50.8862 H         1 UNK         0.3800 
    243 H243      -10.4923  -19.7691  -49.8318 H         1 UNK         0.3800 
    244 H244       -6.6902  -19.5726  -47.2452 H         1 UNK         0.0800 
    245 H245       -6.4605  -20.5920  -48.6406 H         1 UNK         0.0800 
    246 H246       -4.5545  -18.7294  -46.0120 H         1 UNK         0.0800 
    247 H247       -5.2311  -17.3351  -46.8270 H         1 UNK         0.0800 
@<TRIPOS>BOND
     1    1    2 1    
     2    1  127 1    
     3    1  128 1    
     4    1  129 1    
     5    2    3 2    
     6    2    4 am   BACKBONE|DICT|INTERRES
     7    4    5 1    
     8    4  130 1    
     9    5    6 1    
    10    5   65 1    
    11    5  131 1    
    12    6    7 1    
    13    6  132 1    
    14    6  133 1    
    15    7    8 1    
    16    8    9 1    
    17    8  134 1    
    18    8  135 1    
    19    9   10 ar   
    20    9   14 ar   
    21   10   11 ar   
    22   10  136 1    
    23   11   12 ar   
    24   11  126 1    
    25   12   13 ar   
    26   12  137 1    
    27   13   14 ar   
    28   13   15 1    
    29   14  138 1    
    30   15   16 1    
    31   15  139 1    
    32   15  140 1    
    33   16   17 1    
    34   17   18 1    
    35   17  141 1    
    36   17  142 1    
    37   18   19 1    
    38   18   67 1    
    39   18  143 1    
    40   19   20 am   BACKBONE|DICT|INTERRES
    41   19  144 1    
    42   20   21 2    
    43   20   22 1    
    44   22   23 1    
    45   22   24 1    
    46   22  145 1    
    47   23  146 1    
    48   23  147 1    
    49   23  148 1    
    50   24   25 am   BACKBONE|DICT|INTERRES
    51   24  149 1    
    52   25   26 2    
    53   25   27 1    
    54   27   28 1    
    55   27   29 1    
    56   27  150 1    
    57   28  151 1    
    58   28  152 1    
    59   28  153 1    
    60   29   30 am   BACKBONE|DICT|INTERRES
    61   29  154 1    
    62   30   31 2    
    63   30   32 1    
    64   32   33 1    
    65   32   34 1    
    66   32  155 1    
    67   33  156 1    
    68   33  157 1    
    69   33  158 1    
    70   34   35 am   BACKBONE|DICT|INTERRES
    71   34  159 1    
    72   35   36 2    
    73   35   37 1    
    74   37   38 1    
    75   37   39 1    
    76   37  160 1    
    77   38  161 1    
    78   38  162 1    
    79   38  163 1    
    80   39   40 am   BACKBONE|DICT|INTERRES
    81   39  164 1    
    82   40   41 2    
    83   40   42 1    
    84   42   43 1    
    85   42   44 1    
    86   42  165 1    
    87   43  166 1    
    88   43  167 1    
    89   43  168 1    
    90   44   45 am   BACKBONE|DICT|INTERRES
    91   44  169 1    
    92   45   46 2    
    93   45   47 1    
    94   47   48 1    
    95   47   49 1    
    96   47  170 1    
    97   48  171 1    
    98   48  172 1    
    99   48  173 1    
   100   49   50 am   BACKBONE|DICT|INTERRES
   101   49  174 1    
   102   50   51 2    
   103   50   52 1    
   104   52   53 1    
   105   52   54 1    
   106   52  175 1    
   107   53  176 1    
   108   53  177 1    
   109   53  178 1    
   110   54   55 am   BACKBONE|DICT|INTERRES
   111   54  179 1    
   112   55   56 2    
   113   55   57 1    
   114   57   58 1    
   115   57   59 1    
   116   57  180 1    
   117   58  181 1    
   118   58  182 1    
   119   58  183 1    
   120   59   60 am   BACKBONE|DICT|INTERRES
   121   59  184 1    
   122   60   61 2    
   123   60   62 1    
   124   62   63 1    
   125   62   64 1    
   126   62  185 1    
   127   63  186 1    
   128   63  187 1    
   129   63  188 1    
   130   64   65 am   BACKBONE|DICT|INTERRES
   131   64  189 1    
   132   65   66 2    
   133   67   68 2    
   134   67   69 am   BACKBONE|DICT|INTERRES
   135   69   70 1    
   136   69  190 1    
   137   70   71 1    
   138   70   72 1    
   139   70  191 1    
   140   71  192 1    
   141   71  193 1    
   142   71  194 1    
   143   72   73 2    
   144   72   74 am   BACKBONE|DICT|INTERRES
   145   74   75 1    
   146   74  195 1    
   147   75   76 1    
   148   75   77 1    
   149   75  196 1    
   150   76  197 1    
   151   76  198 1    
   152   76  199 1    
   153   77   78 2    
   154   77   79 am   BACKBONE|DICT|INTERRES
   155   79   80 1    
   156   79  200 1    
   157   80   81 1    
   158   80   82 1    
   159   80  201 1    
   160   81  202 1    
   161   81  203 1    
   162   81  204 1    
   163   82   83 2    
   164   82   84 am   BACKBONE|DICT|INTERRES
   165   84   85 1    
   166   84  205 1    
   167   85   86 1    
   168   85   87 1    
   169   85  206 1    
   170   86  207 1    
   171   86  208 1    
   172   86  209 1    
   173   87   88 2    
   174   87   89 am   BACKBONE|DICT|INTERRES
   175   89   90 1    
   176   89  210 1    
   177   90   91 1    
   178   90   92 1    
   179   90  211 1    
   180   91  212 1    
   181   91  213 1    
   182   91  214 1    
   183   92   93 2    
   184   92   94 am   BACKBONE|DICT|INTERRES
   185   94   95 1    
   186   94  215 1    
   187   95   96 1    
   188   95   97 1    
   189   95  216 1    
   190   96  217 1    
   191   96  218 1    
   192   96  219 1    
   193   97   98 2    
   194   97   99 am   BACKBONE|DICT|INTERRES
   195   99  100 1    
   196   99  220 1    
   197  100  101 1    
   198  100  102 1    
   199  100  221 1    
   200  101  222 1    
   201  101  223 1    
   202  101  224 1    
   203  102  103 2    
   204  102  104 am   BACKBONE|DICT|INTERRES
   205  104  105 1    
   206  104  225 1    
   207  105  106 1    
   208  105  107 1    
   209  105  226 1    
   210  106  227 1    
   211  106  228 1    
   212  106  229 1    
   213  107  108 2    
   214  107  109 am   BACKBONE|DICT|INTERRES
   215  109  110 1    
   216  109  230 1    
   217  110  111 1    
   218  110  112 1    
   219  110  231 1    
   220  111  232 1    
   221  111  233 1    
   222  111  234 1    
   223  112  113 2    
   224  112  114 am   BACKBONE|DICT|INTERRES
   225  114  115 1    
   226  114  235 1    
   227  115  116 1    
   228  115  117 1    
   229  115  236 1    
   230  116  237 1    
   231  116  238 1    
   232  116  239 1    
   233  117  118 2    
   234  117  119 am   BACKBONE|DICT|INTERRES
   235  119  120 1    
   236  119  240 1    
   237  120  121 1    
   238  120  124 1    
   239  120  241 1    
   240  121  122 am   BACKBONE|DICT|INTERRES
   241  121  123 2    
   242  122  242 1    
   243  122  243 1    
   244  124  125 1    
   245  124  244 1    
   246  124  245 1    
   247  125  126 1    
   248  126  246 1    
   249  126  247 1    
@<TRIPOS>SUBSTRUCTURE
     1 UNK         1 GROUP             0       ****    0 ROOT    
