@<TRIPOS>MOLECULE
3R540
247   249    1
SMALL
USER_CHARGES


@<TRIPOS>ATOM
      1 CA          1.5962  -13.8563  -43.0263 C.3       0 UNK        -0.1800 
      2 C           0.1243  -13.5089  -43.1795 C.2       0 UNK         0.5000 
      3 O          -0.2841  -12.4077  -42.8127 O.2       0 UNK        -0.5000 
      4 N          -0.6732  -14.4531  -43.6981 N.am      1 UNK        -0.5000 
      5 CA         -2.1283  -14.3343  -43.8353 C.3       1 UNK         0.1400 
      6 C6         -2.7829  -15.7015  -44.1511 C.3       23 UNK        -0.0398 
      7 S7         -4.5244  -15.7911  -43.6110 S.3       23 UNK        -0.2404 
      8 C8         -5.4348  -15.4471  -45.1550 C.3       23 UNK        -0.0205 
      9 C9         -5.1367  -16.4600  -46.2513 C.ar      23 UNK        -0.0193 
     10 C10        -4.6103  -16.0433  -47.4764 C.ar      23 UNK        -0.1150 
     11 C11        -4.3355  -16.9739  -48.4826 C.ar      23 UNK        -0.0193 
     12 C12        -4.5618  -18.3336  -48.2463 C.ar      23 UNK        -0.1150 
     13 C13        -5.0781  -18.7654  -47.0201 C.ar      23 UNK        -0.0193 
     14 C14        -5.3881  -17.8170  -46.0398 C.ar      23 UNK        -0.1150 
     15 C15        -5.3150  -20.2518  -46.7717 C.3       23 UNK        -0.0205 
     16 S16        -4.8499  -20.7971  -45.0910 S.3       23 UNK        -0.2404 
     17 C17        -3.0283  -20.6447  -45.1261 C.3       23 UNK        -0.0398 
     18 CA         -2.3396  -21.9797  -45.4942 C.3       11 UNK         0.1400 
     19 N          -1.0228  -21.7919  -46.1167 N.am      11 UNK        -0.5000 
     20 C          -0.3757  -22.7337  -46.8211 C.2       10 UNK         0.5000 
     21 O          -0.8050  -23.8787  -46.9725 O.2       10 UNK        -0.5000 
     22 CA          0.9794  -22.3499  -47.4359 C.3       10 UNK         0.1400 
     23 CB          0.7843  -21.5120  -48.7062 C.3       10 UNK        -0.1800 
     24 N           1.8274  -21.6257  -46.4921 N.am      10 UNK        -0.5000 
     25 C           2.4024  -22.1837  -45.4177 C.2       9 UNK         0.5000 
     26 O           2.3217  -23.3812  -45.1472 O.2       9 UNK        -0.5000 
     27 CA          3.1677  -21.2450  -44.4667 C.3       9 UNK         0.1400 
     28 CB          4.5864  -20.9773  -44.9892 C.3       9 UNK        -0.1800 
     29 N           2.4773  -19.9735  -44.2486 N.am      9 UNK        -0.5000 
     30 C           1.2729  -19.8509  -43.6718 C.2       8 UNK         0.5000 
     31 O           0.6226  -20.7967  -43.2257 O.2       8 UNK        -0.5000 
     32 CA          0.6745  -18.4343  -43.6287 C.3       8 UNK         0.1400 
     33 CB          1.2291  -17.6369  -42.4385 C.3       8 UNK        -0.1800 
     34 N           0.9060  -17.6984  -44.8735 N.am      8 UNK        -0.5000 
     35 C           0.3419  -18.0212  -46.0466 C.2       7 UNK         0.5000 
     36 O          -0.4502  -18.9499  -46.1916 O.2       7 UNK        -0.5000 
     37 CA          0.7732  -17.1919  -47.2655 C.3       7 UNK         0.1400 
     38 CB          0.0744  -15.8255  -47.2576 C.3       7 UNK        -0.1800 
     39 N           2.2227  -17.0020  -47.3134 N.am      7 UNK        -0.5000 
     40 C           3.1010  -17.9945  -47.5262 C.2       6 UNK         0.5000 
     41 O           2.7722  -19.1618  -47.7284 O.2       6 UNK        -0.5000 
     42 CA          4.5995  -17.6432  -47.4618 C.3       6 UNK         0.1400 
     43 CB          5.1125  -17.2437  -48.8532 C.3       6 UNK        -0.1800 
     44 N           4.9123  -16.5754  -46.5133 N.am      6 UNK        -0.5000 
     45 C           4.6319  -16.5829  -45.2023 C.2       5 UNK         0.5000 
     46 O           4.1152  -17.5349  -44.6159 O.2       5 UNK        -0.5000 
     47 CA          4.9241  -15.2801  -44.4322 C.3       5 UNK         0.1400 
     48 CB          6.2966  -15.3607  -43.7486 C.3       5 UNK        -0.1800 
     49 N           4.8692  -14.0689  -45.2624 N.am      5 UNK        -0.5000 
     50 C           3.8036  -13.6506  -45.9601 C.2       4 UNK         0.5000 
     51 O           2.7341  -14.2630  -46.0170 O.2       4 UNK        -0.5000 
     52 CA          3.9888  -12.3726  -46.7912 C.3       4 UNK         0.1400 
     53 CB          4.4292  -12.7352  -48.2179 C.3       4 UNK        -0.1800 
     54 N           2.7461  -11.6076  -46.8626 N.am      4 UNK        -0.5000 
     55 C           2.2765  -10.8216  -45.8844 C.2       3 UNK         0.5000 
     56 O           2.8574  -10.6274  -44.8165 O.2       3 UNK        -0.5000 
     57 CA          0.9199  -10.1579  -46.1514 C.3       3 UNK         0.1400 
     58 CB          1.0686   -9.0649  -47.2323 C.3       3 UNK        -0.1800 
     59 N          -0.0405  -11.1937  -46.5323 N.am      3 UNK        -0.5000 
     60 C          -1.3337  -11.0237  -46.8368 C.2       2 UNK         0.5000 
     61 O          -1.9050   -9.9338  -46.8760 O.2       2 UNK        -0.5000 
     62 CA         -2.1317  -12.3097  -47.1101 C.3       2 UNK         0.1400 
     63 CB         -1.7573  -12.9197  -48.4702 C.3       2 UNK        -0.1800 
     64 N          -1.9162  -13.2956  -46.0504 N.am      2 UNK        -0.5000 
     65 C          -2.5327  -13.2542  -44.8603 C.2       1 UNK         0.5000 
     66 O          -3.3752  -12.4093  -44.5545 O.2       1 UNK        -0.5000 
     67 C          -2.3496  -23.0123  -44.3412 C.2       11 UNK         0.5000 
     68 O          -3.4167  -23.5267  -44.0059 O.2       11 UNK        -0.5000 
     69 N          -1.1726  -23.4035  -43.8304 N.am      12 UNK        -0.5000 
     70 CA         -0.9971  -24.5770  -42.9659 C.3       12 UNK         0.1400 
     71 CB          0.4605  -24.6421  -42.4887 C.3       12 UNK        -0.1800 
     72 C          -1.4092  -25.9069  -43.6434 C.2       12 UNK         0.5000 
     73 O          -1.7698  -26.8532  -42.9431 O.2       12 UNK        -0.5000 
     74 N          -1.3887  -25.9387  -44.9838 N.am      13 UNK        -0.5000 
     75 CA         -1.9076  -27.0097  -45.8353 C.3       13 UNK         0.1400 
     76 CB         -0.7500  -27.5595  -46.6876 C.3       13 UNK        -0.1800 
     77 C          -3.0752  -26.4957  -46.7087 C.2       13 UNK         0.5000 
     78 O          -3.2996  -27.0166  -47.8025 O.2       13 UNK        -0.5000 
     79 N          -3.7771  -25.4528  -46.2331 N.am      14 UNK        -0.5000 
     80 CA         -4.9013  -24.7418  -46.8626 C.3       14 UNK         0.1400 
     81 CB         -6.1109  -25.6814  -47.0420 C.3       14 UNK        -0.1800 
     82 C          -4.5537  -24.0046  -48.1751 C.2       14 UNK         0.5000 
     83 O          -5.4613  -23.5266  -48.8572 O.2       14 UNK        -0.5000 
     84 N          -3.2596  -23.9296  -48.5231 N.am      15 UNK        -0.5000 
     85 CA         -2.6843  -23.3328  -49.7335 C.3       15 UNK         0.1400 
     86 CB         -2.7931  -21.7944  -49.6735 C.3       15 UNK        -0.1800 
     87 C          -3.2587  -23.9161  -51.0413 C.2       15 UNK         0.5000 
     88 O          -3.3095  -23.2111  -52.0497 O.2       15 UNK        -0.5000 
     89 N          -3.7237  -25.1743  -50.9942 N.am      16 UNK        -0.5000 
     90 CA         -4.4842  -25.8665  -52.0427 C.3       16 UNK         0.1400 
     91 CB         -3.5819  -26.1714  -53.2569 C.3       16 UNK        -0.1800 
     92 C          -5.7865  -25.1225  -52.4255 C.2       16 UNK         0.5000 
     93 O          -6.1557  -25.0936  -53.5993 O.2       16 UNK        -0.5000 
     94 N          -6.4380  -24.5166  -51.4194 N.am      17 UNK        -0.5000 
     95 CA         -7.5837  -23.6055  -51.5134 C.3       17 UNK         0.1400 
     96 CB         -8.8150  -24.2931  -52.1413 C.3       17 UNK        -0.1800 
     97 C          -7.1976  -22.2746  -52.1923 C.2       17 UNK         0.5000 
     98 O          -7.9107  -21.7976  -53.0768 O.2       17 UNK        -0.5000 
     99 N          -6.0621  -21.7112  -51.7493 N.am      18 UNK        -0.5000 
    100 CA        -5.4256  -20.4786  -52.2325 C.3       18 UNK         0.1400 
    101 CB        -6.2743  -19.2440  -51.8653 C.3       18 UNK        -0.1800 
    102 C         -5.0545  -20.5472  -53.7292 C.2       18 UNK         0.5000 
    103 O         -5.3636  -19.6302  -54.4930 O.2       18 UNK        -0.5000 
    104 N         -4.4036  -21.6506  -54.1137 N.am      19 UNK        -0.5000 
    105 CA        -3.9266  -21.9233  -55.4691 C.3       19 UNK         0.1400 
    106 CB        -4.6973  -23.1201  -56.0460 C.3       19 UNK        -0.1800 
    107 C         -2.4125  -22.1925  -55.5006 C.2       19 UNK         0.5000 
    108 O         -1.7756  -21.8922  -56.5111 O.2       19 UNK        -0.5000 
    109 N         -1.8499  -22.7359  -54.4103 N.am      20 UNK        -0.5000 
    110 CA        -0.4130  -22.9871  -54.2633 C.3       20 UNK         0.1400 
    111 CB        -0.1874  -24.0275  -53.1551 C.3       20 UNK        -0.1800 
    112 C          0.3732  -21.7004  -53.9532 C.2       20 UNK         0.5000 
    113 O          1.5491  -21.6032  -54.3060 O.2       20 UNK        -0.5000 
    114 N         -0.2955  -20.7379  -53.3115 N.am      21 UNK        -0.5000 
    115 CA         0.1989  -19.4081  -52.9891 C.3       21 UNK         0.1400 
    116 CB         1.0355  -19.4528  -51.6983 C.3       21 UNK        -0.1800 
    117 C         -1.0134  -18.4861  -52.8138 C.2       21 UNK         0.5000 
    118 O         -2.1136  -18.9793  -52.5476 O.2       21 UNK        -0.5000 
    119 N         -0.7675  -17.1779  -52.9588 N.am      22 UNK        -0.5000 
    120 CA        -1.6374  -16.0091  -52.7004 C.3       22 UNK         0.1400 
    121 C         -3.0873  -15.9768  -53.2800 C.2       22 UNK         0.5000 
    122 N         -3.6105  -17.0479  -53.8518 N.am      22 UNK        -0.7600 
    123 O         -3.7353  -14.9341  -53.2473 O.2       22 UNK        -0.5000 
    124 C124       -1.5681  -15.5181  -51.2263 C.3       23 UNK        -0.0398 
    125 S125       -2.0120  -16.7449  -49.9486 S.3       23 UNK        -0.2404 
    126 C126       -3.8068  -16.5039  -49.8271 C.3       23 UNK        -0.0205 
    127 H127        1.8396  -14.7918  -43.5281 H         1 UNK         0.0600 
    128 H128        1.8506  -13.9579  -41.9714 H         1 UNK         0.0600 
    129 H129        2.2156  -13.0674  -43.4517 H         1 UNK         0.0600 
    130 H130       -0.2742  -15.3387  -43.9685 H         1 UNK         0.3000 
    131 H131       -2.4973  -14.0053  -42.8608 H         1 UNK         0.0600 
    132 H132       -2.6817  -15.9685  -45.2038 H         1 UNK         0.0800 
    133 H133       -2.2641  -16.4909  -43.6052 H         1 UNK         0.0800 
    134 H134       -6.5044  -15.4661  -44.9422 H         1 UNK         0.0800 
    135 H135       -5.2094  -14.4333  -45.4882 H         1 UNK         0.0800 
    136 H136       -4.4212  -14.9933  -47.6510 H         1 UNK         0.1150 
    137 H137       -4.3337  -19.0519  -49.0212 H         1 UNK         0.1150 
    138 H138       -5.8038  -18.1344  -45.0940 H         1 UNK         0.1150 
    139 H139       -6.3735  -20.4630  -46.9273 H         1 UNK         0.0800 
    140 H140       -4.7702  -20.8558  -47.4981 H         1 UNK         0.0800 
    141 H141       -2.6719  -20.2683  -44.1659 H         1 UNK         0.0800 
    142 H142       -2.7802  -19.8772  -45.8585 H         1 UNK         0.0800 
    143 H143       -2.9510  -22.4245  -46.2781 H         1 UNK         0.0600 
    144 H144       -0.6280  -20.8563  -46.0590 H         1 UNK         0.3000 
    145 H145        1.4915  -23.2725  -47.7173 H         1 UNK         0.0600 
    146 H146        1.7419  -21.2783  -49.1716 H         1 UNK         0.0600 
    147 H147        0.1919  -22.0485  -49.4468 H         1 UNK         0.0600 
    148 H148        0.2776  -20.5695  -48.4940 H         1 UNK         0.0600 
    149 H149        1.9951  -20.6444  -46.6930 H         1 UNK         0.3000 
    150 H150        3.2503  -21.7458  -43.4999 H         1 UNK         0.0600 
    151 H151        5.1473  -21.9077  -45.0856 H         1 UNK         0.0600 
    152 H152        5.1428  -20.3289  -44.3119 H         1 UNK         0.0600 
    153 H153        4.5692  -20.5031  -45.9699 H         1 UNK         0.0600 
    154 H154        2.9638  -19.1323  -44.5439 H         1 UNK         0.3000 
    155 H155       -0.4040  -18.5391  -43.4908 H         1 UNK         0.0600 
    156 H156        1.1111  -18.1940  -41.5081 H         1 UNK         0.0600 
    157 H157        0.7001  -16.6932  -42.3134 H         1 UNK         0.0600 
    158 H158        2.2909  -17.4176  -42.5552 H         1 UNK         0.0600 
    159 H159        1.6305  -16.9952  -44.8650 H         1 UNK         0.3000 
    160 H160        0.4667  -17.7300  -48.1654 H         1 UNK         0.0600 
    161 H161        0.3530  -15.2319  -46.3881 H         1 UNK         0.0600 
    162 H162       -1.0097  -15.9453  -47.2447 H         1 UNK         0.0600 
    163 H163        0.3309  -15.2573  -48.1512 H         1 UNK         0.0600 
    164 H164        2.5665  -16.0721  -47.1026 H         1 UNK         0.3000 
    165 H165        5.1380  -18.5365  -47.1420 H         1 UNK         0.0600 
    166 H166        6.1900  -17.0783  -48.8447 H         1 UNK         0.0600 
    167 H167        4.9114  -18.0287  -49.5837 H         1 UNK         0.0600 
    168 H168        4.6345  -16.3311  -49.2118 H         1 UNK         0.0600 
    169 H169        5.3347  -15.7439  -46.8975 H         1 UNK         0.3000 
    170 H170        4.1655  -15.1863  -43.6543 H         1 UNK         0.0600 
    171 H171        6.3620  -16.2395  -43.1055 H         1 UNK         0.0600 
    172 H172        7.1061  -15.4258  -44.4768 H         1 UNK         0.0600 
    173 H173        6.4772  -14.4876  -43.1213 H         1 UNK         0.0600 
    174 H174        5.7117  -13.5124  -45.2865 H         1 UNK         0.3000 
    175 H175        4.7617  -11.7532  -46.3310 H         1 UNK         0.0600 
    176 H176        3.6921  -13.3630  -48.7210 H         1 UNK         0.0600 
    177 H177        4.5770  -11.8410  -48.8238 H         1 UNK         0.0600 
    178 H178        5.3740  -13.2801  -48.2110 H         1 UNK         0.0600 
    179 H179        2.2007  -11.7184  -47.7043 H         1 UNK         0.3000 
    180 H180        0.5784   -9.6980  -45.2220 H         1 UNK         0.0600 
    181 H181        1.2587   -9.4922  -48.2174 H         1 UNK         0.0600 
    182 H182        1.8977   -8.3953  -46.9994 H         1 UNK         0.0600 
    183 H183        0.1766   -8.4437  -47.3043 H         1 UNK         0.0600 
    184 H184        0.3163  -12.1372  -46.4794 H         1 UNK         0.3000 
    185 H185       -3.1929  -12.0521  -47.1435 H         1 UNK         0.0600 
    186 H186       -0.6946  -13.1518  -48.5380 H         1 UNK         0.0600 
    187 H187       -2.3145  -13.8378  -48.6547 H         1 UNK         0.0600 
    188 H188       -1.9913  -12.2293  -49.2814 H         1 UNK         0.0600 
    189 H189       -1.2269  -14.0106  -46.2211 H         1 UNK         0.3000 
    190 H190       -0.3329  -22.9218  -44.1236 H         1 UNK         0.3000 
    191 H191       -1.6365  -24.4405  -42.0915 H         1 UNK         0.0600 
    192 H192        1.1429  -24.8497  -43.3127 H         1 UNK         0.0600 
    193 H193        0.7690  -23.7059  -42.0226 H         1 UNK         0.0600 
    194 H194        0.5922  -25.4338  -41.7502 H         1 UNK         0.0600 
    195 H195       -1.0692  -25.1148  -45.4857 H         1 UNK         0.3000 
    196 H196       -2.3047  -27.8248  -45.2277 H         1 UNK         0.0600 
    197 H197        0.0670  -27.9135  -46.0587 H         1 UNK         0.0600 
    198 H198       -0.3503  -26.7974  -47.3580 H         1 UNK         0.0600 
    199 H199       -1.0746  -28.4020  -47.2994 H         1 UNK         0.0600 
    200 H200       -3.5145  -25.0880  -45.3236 H         1 UNK         0.3000 
    201 H201       -5.1947  -23.9631  -46.1572 H         1 UNK         0.0600 
    202 H202       -6.9950  -25.1270  -47.3592 H         1 UNK         0.0600 
    203 H203       -6.3635  -26.1810  -46.1068 H         1 UNK         0.0600 
    204 H204       -5.9225  -26.4490  -47.7929 H         1 UNK         0.0600 
    205 H205       -2.5772  -24.3334  -47.8908 H         1 UNK         0.3000 
    206 H206       -1.6265  -23.5960  -49.7318 H         1 UNK         0.0600 
    207 H207       -2.3472  -21.3991  -48.7616 H         1 UNK         0.0600 
    208 H208       -3.8306  -21.4647  -49.6992 H         1 UNK         0.0600 
    209 H209       -2.2762  -21.3247  -50.5117 H         1 UNK         0.0600 
    210 H210       -3.6291  -25.6747  -50.1198 H         1 UNK         0.3000 
    211 H211       -4.7962  -26.8209  -51.6164 H         1 UNK         0.0600 
    212 H212       -2.6848  -26.7111  -52.9542 H         1 UNK         0.0600 
    213 H213       -4.1028  -26.7936  -53.9853 H         1 UNK         0.0600 
    214 H214       -3.2683  -25.2631  -53.7703 H         1 UNK         0.0600 
    215 H215       -6.0193  -24.5545  -50.4962 H         1 UNK         0.3000 
    216 H216       -7.8483  -23.3518  -50.4857 H         1 UNK         0.0600 
    217 H217       -9.6964  -23.6561  -52.0597 H         1 UNK         0.0600 
    218 H218       -8.6702  -24.5089  -53.1999 H         1 UNK         0.0600 
    219 H219       -9.0443  -25.2305  -51.6348 H         1 UNK         0.0600 
    220 H220       -5.5548  -22.2083  -51.0304 H         1 UNK         0.3000 
    221 H221       -4.4786  -20.3857  -51.7004 H         1 UNK         0.0600 
    222 H222       -7.2380  -19.2467  -52.3750 H         1 UNK         0.0600 
    223 H223       -6.4604  -19.1992  -50.7923 H         1 UNK         0.0600 
    224 H224       -5.7613  -18.3229  -52.1432 H         1 UNK         0.0600 
    225 H225       -4.1740  -22.3371  -53.3996 H         1 UNK         0.3000 
    226 H226       -4.1085  -21.0615  -56.1144 H         1 UNK         0.0600 
    227 H227       -5.7720  -22.9371  -56.0388 H         1 UNK         0.0600 
    228 H228       -4.4046  -23.3123  -57.0789 H         1 UNK         0.0600 
    229 H229       -4.5106  -24.0308  -55.4773 H         1 UNK         0.0600 
    230 H230       -2.4263  -22.9504  -53.6009 H         1 UNK         0.3000 
    231 H231       -0.0310  -23.3994  -55.1996 H         1 UNK         0.0600 
    232 H232        0.8673  -24.2962  -53.0851 H         1 UNK         0.0600 
    233 H233       -0.7434  -24.9440  -53.3511 H         1 UNK         0.0600 
    234 H234       -0.4911  -23.6487  -52.1792 H         1 UNK         0.0600 
    235 H235       -1.2747  -20.8728  -53.0922 H         1 UNK         0.3000 
    236 H236        0.8085  -19.0401  -53.8170 H         1 UNK         0.0600 
    237 H237        1.8635  -20.1570  -51.7785 H         1 UNK         0.0600 
    238 H238        1.4611  -18.4747  -51.4714 H         1 UNK         0.0600 
    239 H239        0.4244  -19.7458  -50.8449 H         1 UNK         0.0600 
    240 H240        0.1737  -16.9246  -53.2219 H         1 UNK         0.3000 
    241 H241       -1.1489  -15.2256  -53.2812 H         1 UNK         0.0600 
    242 H242       -4.5394  -17.0231  -54.2405 H         1 UNK         0.3800 
    243 H243       -3.1348  -17.9351  -53.7306 H         1 UNK         0.3800 
    244 H244       -0.5433  -15.2131  -51.0118 H         1 UNK         0.0800 
    245 H245       -2.1599  -14.6123  -51.0866 H         1 UNK         0.0800 
    246 H246       -4.0556  -15.4525  -49.9780 H         1 UNK         0.0800 
    247 H247       -4.2952  -17.0544  -50.6318 H         1 UNK         0.0800 
@<TRIPOS>BOND
     1    1    2 1    
     2    1  127 1    
     3    1  128 1    
     4    1  129 1    
     5    2    3 2    
     6    2    4 am   BACKBONE|DICT|INTERRES
     7    4    5 1    
     8    4  130 1    
     9    5    6 1    
    10    5   65 1    
    11    5  131 1    
    12    6    7 1    
    13    6  132 1    
    14    6  133 1    
    15    7    8 1    
    16    8    9 1    
    17    8  134 1    
    18    8  135 1    
    19    9   10 ar   
    20    9   14 ar   
    21   10   11 ar   
    22   10  136 1    
    23   11   12 ar   
    24   11  126 1    
    25   12   13 ar   
    26   12  137 1    
    27   13   14 ar   
    28   13   15 1    
    29   14  138 1    
    30   15   16 1    
    31   15  139 1    
    32   15  140 1    
    33   16   17 1    
    34   17   18 1    
    35   17  141 1    
    36   17  142 1    
    37   18   19 1    
    38   18   67 1    
    39   18  143 1    
    40   19   20 am   BACKBONE|DICT|INTERRES
    41   19  144 1    
    42   20   21 2    
    43   20   22 1    
    44   22   23 1    
    45   22   24 1    
    46   22  145 1    
    47   23  146 1    
    48   23  147 1    
    49   23  148 1    
    50   24   25 am   BACKBONE|DICT|INTERRES
    51   24  149 1    
    52   25   26 2    
    53   25   27 1    
    54   27   28 1    
    55   27   29 1    
    56   27  150 1    
    57   28  151 1    
    58   28  152 1    
    59   28  153 1    
    60   29   30 am   BACKBONE|DICT|INTERRES
    61   29  154 1    
    62   30   31 2    
    63   30   32 1    
    64   32   33 1    
    65   32   34 1    
    66   32  155 1    
    67   33  156 1    
    68   33  157 1    
    69   33  158 1    
    70   34   35 am   BACKBONE|DICT|INTERRES
    71   34  159 1    
    72   35   36 2    
    73   35   37 1    
    74   37   38 1    
    75   37   39 1    
    76   37  160 1    
    77   38  161 1    
    78   38  162 1    
    79   38  163 1    
    80   39   40 am   BACKBONE|DICT|INTERRES
    81   39  164 1    
    82   40   41 2    
    83   40   42 1    
    84   42   43 1    
    85   42   44 1    
    86   42  165 1    
    87   43  166 1    
    88   43  167 1    
    89   43  168 1    
    90   44   45 am   BACKBONE|DICT|INTERRES
    91   44  169 1    
    92   45   46 2    
    93   45   47 1    
    94   47   48 1    
    95   47   49 1    
    96   47  170 1    
    97   48  171 1    
    98   48  172 1    
    99   48  173 1    
   100   49   50 am   BACKBONE|DICT|INTERRES
   101   49  174 1    
   102   50   51 2    
   103   50   52 1    
   104   52   53 1    
   105   52   54 1    
   106   52  175 1    
   107   53  176 1    
   108   53  177 1    
   109   53  178 1    
   110   54   55 am   BACKBONE|DICT|INTERRES
   111   54  179 1    
   112   55   56 2    
   113   55   57 1    
   114   57   58 1    
   115   57   59 1    
   116   57  180 1    
   117   58  181 1    
   118   58  182 1    
   119   58  183 1    
   120   59   60 am   BACKBONE|DICT|INTERRES
   121   59  184 1    
   122   60   61 2    
   123   60   62 1    
   124   62   63 1    
   125   62   64 1    
   126   62  185 1    
   127   63  186 1    
   128   63  187 1    
   129   63  188 1    
   130   64   65 am   BACKBONE|DICT|INTERRES
   131   64  189 1    
   132   65   66 2    
   133   67   68 2    
   134   67   69 am   BACKBONE|DICT|INTERRES
   135   69   70 1    
   136   69  190 1    
   137   70   71 1    
   138   70   72 1    
   139   70  191 1    
   140   71  192 1    
   141   71  193 1    
   142   71  194 1    
   143   72   73 2    
   144   72   74 am   BACKBONE|DICT|INTERRES
   145   74   75 1    
   146   74  195 1    
   147   75   76 1    
   148   75   77 1    
   149   75  196 1    
   150   76  197 1    
   151   76  198 1    
   152   76  199 1    
   153   77   78 2    
   154   77   79 am   BACKBONE|DICT|INTERRES
   155   79   80 1    
   156   79  200 1    
   157   80   81 1    
   158   80   82 1    
   159   80  201 1    
   160   81  202 1    
   161   81  203 1    
   162   81  204 1    
   163   82   83 2    
   164   82   84 am   BACKBONE|DICT|INTERRES
   165   84   85 1    
   166   84  205 1    
   167   85   86 1    
   168   85   87 1    
   169   85  206 1    
   170   86  207 1    
   171   86  208 1    
   172   86  209 1    
   173   87   88 2    
   174   87   89 am   BACKBONE|DICT|INTERRES
   175   89   90 1    
   176   89  210 1    
   177   90   91 1    
   178   90   92 1    
   179   90  211 1    
   180   91  212 1    
   181   91  213 1    
   182   91  214 1    
   183   92   93 2    
   184   92   94 am   BACKBONE|DICT|INTERRES
   185   94   95 1    
   186   94  215 1    
   187   95   96 1    
   188   95   97 1    
   189   95  216 1    
   190   96  217 1    
   191   96  218 1    
   192   96  219 1    
   193   97   98 2    
   194   97   99 am   BACKBONE|DICT|INTERRES
   195   99  100 1    
   196   99  220 1    
   197  100  101 1    
   198  100  102 1    
   199  100  221 1    
   200  101  222 1    
   201  101  223 1    
   202  101  224 1    
   203  102  103 2    
   204  102  104 am   BACKBONE|DICT|INTERRES
   205  104  105 1    
   206  104  225 1    
   207  105  106 1    
   208  105  107 1    
   209  105  226 1    
   210  106  227 1    
   211  106  228 1    
   212  106  229 1    
   213  107  108 2    
   214  107  109 am   BACKBONE|DICT|INTERRES
   215  109  110 1    
   216  109  230 1    
   217  110  111 1    
   218  110  112 1    
   219  110  231 1    
   220  111  232 1    
   221  111  233 1    
   222  111  234 1    
   223  112  113 2    
   224  112  114 am   BACKBONE|DICT|INTERRES
   225  114  115 1    
   226  114  235 1    
   227  115  116 1    
   228  115  117 1    
   229  115  236 1    
   230  116  237 1    
   231  116  238 1    
   232  116  239 1    
   233  117  118 2    
   234  117  119 am   BACKBONE|DICT|INTERRES
   235  119  120 1    
   236  119  240 1    
   237  120  121 1    
   238  120  124 1    
   239  120  241 1    
   240  121  122 am   BACKBONE|DICT|INTERRES
   241  121  123 2    
   242  122  242 1    
   243  122  243 1    
   244  124  125 1    
   245  124  244 1    
   246  124  245 1    
   247  125  126 1    
   248  126  246 1    
   249  126  247 1    
@<TRIPOS>SUBSTRUCTURE
     1 UNK         1 GROUP             0       ****    0 ROOT    
