@<TRIPOS>MOLECULE
3R540
247   249    1
SMALL
USER_CHARGES


@<TRIPOS>ATOM
      1 CA          3.4553  -13.7621  -51.3698 C.3       0 UNK        -0.1800 
      2 C           3.5508  -14.0278  -49.8743 C.2       0 UNK         0.5000 
      3 O           4.6230  -14.3777  -49.3785 O.2       0 UNK        -0.5000 
      4 N           2.4372  -13.8602  -49.1509 N.am      1 UNK        -0.5000 
      5 CA          2.3245  -14.0721  -47.7045 C.3       1 UNK         0.1400 
      6 C6          0.8733  -14.4185  -47.2822 C.3       23 UNK        -0.0398 
      7 S7          0.4095  -16.0755  -47.8829 S.3       23 UNK        -0.2404 
      8 C8         -0.9101  -15.7103  -49.0842 C.3       23 UNK        -0.0205 
      9 C9         -1.0256  -16.8130  -50.1284 C.ar      23 UNK        -0.0193 
     10 C10        -0.8827  -16.5155  -51.4876 C.ar      23 UNK        -0.1150 
     11 C11        -0.9504  -17.5294  -52.4476 C.ar      23 UNK        -0.0193 
     12 C12        -1.1431  -18.8519  -52.0393 C.ar      23 UNK        -0.1150 
     13 C13        -1.2960  -19.1622  -50.6849 C.ar      23 UNK        -0.0193 
     14 C14        -1.2586  -18.1355  -49.7376 C.ar      23 UNK        -0.1150 
     15 C15        -1.4994  -20.6052  -50.2514 C.3       23 UNK        -0.0205 
     16 S16         0.0358  -21.3340  -49.6074 S.3       23 UNK        -0.2404 
     17 C17        -0.0773  -20.9442  -47.8285 C.3       23 UNK        -0.0398 
     18 CA         -0.0330  -22.2133  -46.9457 C.3       11 UNK         0.1400 
     19 N           0.4263  -21.9028  -45.5897 N.am      11 UNK        -0.5000 
     20 C           0.7975  -22.8145  -44.6812 C.2       10 UNK         0.5000 
     21 O           0.8052  -24.0252  -44.8945 O.2       10 UNK        -0.5000 
     22 CA          1.1639  -22.2932  -43.2808 C.3       10 UNK         0.1400 
     23 CB          2.5782  -21.6950  -43.2629 C.3       10 UNK        -0.1800 
     24 N           0.1962  -21.3121  -42.7900 N.am      10 UNK        -0.5000 
     25 C          -1.0913  -21.5938  -42.5418 C.2       9 UNK         0.5000 
     26 O          -1.5730  -22.7233  -42.6386 O.2       9 UNK        -0.5000 
     27 CA         -2.0027  -20.4139  -42.1616 C.3       9 UNK         0.1400 
     28 CB         -1.8842  -20.1055  -40.6619 C.3       9 UNK        -0.1800 
     29 N          -1.7271  -19.2051  -42.9415 N.am      9 UNK        -0.5000 
     30 C          -1.8952  -19.0991  -44.2684 C.2       8 UNK         0.5000 
     31 O          -2.3318  -20.0053  -44.9753 O.2       8 UNK        -0.5000 
     32 CA         -1.4426  -17.7867  -44.9327 C.3       8 UNK         0.1400 
     33 CB         -2.4799  -16.6738  -44.7330 C.3       8 UNK        -0.1800 
     34 N          -0.1368  -17.3411  -44.4510 N.am      8 UNK        -0.5000 
     35 C           0.9994  -18.0334  -44.6124 C.2       7 UNK         0.5000 
     36 O           1.0683  -19.1084  -45.2082 O.2       7 UNK        -0.5000 
     37 CA          2.2613  -17.4535  -43.9550 C.3       7 UNK         0.1400 
     38 CB          2.9183  -16.3949  -44.8522 C.3       7 UNK        -0.1800 
     39 N           1.9788  -16.8912  -42.6345 N.am      7 UNK        -0.5000 
     40 C           1.6877  -17.6311  -41.5555 C.2       6 UNK         0.5000 
     41 O           1.6674  -18.8625  -41.5540 O.2       6 UNK        -0.5000 
     42 CA          1.3128  -16.8611  -40.2771 C.3       6 UNK         0.1400 
     43 CB          2.5691  -16.3478  -39.5586 C.3       6 UNK        -0.1800 
     44 N           0.4083  -15.7416  -40.5449 N.am      6 UNK        -0.5000 
     45 C          -0.8591  -15.8880  -40.9578 C.2       5 UNK         0.5000 
     46 O          -1.3910  -16.9798  -41.1489 O.2       5 UNK        -0.5000 
     47 CA         -1.6655  -14.6080  -41.2408 C.3       5 UNK         0.1400 
     48 CB         -2.3829  -14.1350  -39.9680 C.3       5 UNK        -0.1800 
     49 N          -0.8728  -13.5049  -41.7831 N.am      5 UNK        -0.5000 
     50 C          -0.1306  -13.5446  -42.8975 C.2       4 UNK         0.5000 
     51 O           0.0152  -14.5547  -43.5895 O.2       4 UNK        -0.5000 
     52 CA          0.5906  -12.2462  -43.3069 C.3       4 UNK         0.1400 
     53 CB          0.2553  -11.0196  -42.4281 C.3       4 UNK        -0.1800 
     54 N           2.0391  -12.4364  -43.3823 N.am      4 UNK        -0.5000 
     55 C           2.8649  -12.8377  -42.4027 C.2       3 UNK         0.5000 
     56 O           2.4798  -13.1410  -41.2721 O.2       3 UNK        -0.5000 
     57 CA          4.3705  -12.9335  -42.7360 C.3       3 UNK         0.1400 
     58 CB          4.9723  -14.2602  -42.2422 C.3       3 UNK        -0.1800 
     59 N           4.6454  -12.7811  -44.1690 N.am      3 UNK        -0.5000 
     60 C           4.8584  -11.6107  -44.7879 C.2       2 UNK         0.5000 
     61 O           4.9147  -10.5286  -44.2033 O.2       2 UNK        -0.5000 
     62 CA          4.9928  -11.6489  -46.3236 C.3       2 UNK         0.1400 
     63 CB          6.4684  -11.7704  -46.7320 C.3       2 UNK        -0.1800 
     64 N           4.2304  -12.7262  -46.9633 N.am      2 UNK        -0.5000 
     65 C           2.8980  -12.8647  -46.9357 C.2       1 UNK         0.5000 
     66 O           2.1470  -12.0888  -46.3437 O.2       1 UNK        -0.5000 
     67 C          -1.3744  -22.9833  -46.9495 C.2       11 UNK         0.5000 
     68 O          -1.5404  -23.9153  -47.7389 O.2       11 UNK        -0.5000 
     69 N          -2.2925  -22.6262  -46.0391 N.am      12 UNK        -0.5000 
     70 CA         -3.5565  -23.3300  -45.8101 C.3       12 UNK         0.1400 
     71 CB         -4.4142  -22.5666  -44.7912 C.3       12 UNK        -0.1800 
     72 C          -3.3620  -24.7954  -45.3832 C.2       12 UNK         0.5000 
     73 O          -4.1083  -25.6606  -45.8400 O.2       12 UNK        -0.5000 
     74 N          -2.3480  -25.0490  -44.5474 N.am      13 UNK        -0.5000 
     75 CA         -1.9582  -26.3876  -44.1168 C.3       13 UNK         0.1400 
     76 CB         -1.1301  -26.2852  -42.8258 C.3       13 UNK        -0.1800 
     77 C          -1.1890  -27.1552  -45.2084 C.2       13 UNK         0.5000 
     78 O          -1.5486  -28.2914  -45.5184 O.2       13 UNK        -0.5000 
     79 N          -0.1287  -26.5388  -45.7473 N.am      14 UNK        -0.5000 
     80 CA          0.8507  -27.1975  -46.6120 C.3       14 UNK         0.1400 
     81 CB          2.1672  -26.4050  -46.5840 C.3       14 UNK        -0.1800 
     82 C           0.3807  -27.3913  -48.0624 C.2       14 UNK         0.5000 
     83 O           0.6169  -28.4582  -48.6311 O.2       14 UNK        -0.5000 
     84 N          -0.2430  -26.3600  -48.6450 N.am      15 UNK        -0.5000 
     85 CA         -0.6150  -26.3174  -50.0630 C.3       15 UNK         0.1400 
     86 CB         -0.1614  -24.9700  -50.6493 C.3       15 UNK        -0.1800 
     87 C          -2.1237  -26.5191  -50.2874 C.2       15 UNK         0.5000 
     88 O          -2.5566  -26.5267  -51.4400 O.2       15 UNK        -0.5000 
     89 N          -2.8923  -26.6630  -49.1970 N.am      16 UNK        -0.5000 
     90 CA         -4.3582  -26.7196  -49.1522 C.3       16 UNK         0.1400 
     91 CB         -4.9050  -27.9460  -49.9143 C.3       16 UNK        -0.1800 
     92 C          -5.0121  -25.3864  -49.5794 C.2       16 UNK         0.5000 
     93 O          -6.0854  -25.3916  -50.1853 O.2       16 UNK        -0.5000 
     94 N          -4.3507  -24.2745  -49.2220 N.am      17 UNK        -0.5000 
     95 CA         -4.7203  -22.8766  -49.4673 C.3       17 UNK         0.1400 
     96 CB         -6.1256  -22.5560  -48.9111 C.3       17 UNK        -0.1800 
     97 C          -4.5512  -22.4408  -50.9363 C.2       17 UNK         0.5000 
     98 O          -4.1363  -23.2279  -51.7887 O.2       17 UNK        -0.5000 
     99 N          -4.8149  -21.1509  -51.1864 N.am      18 UNK        -0.5000 
    100 CA        -4.5999  -20.4878  -52.4740 C.3       18 UNK         0.1400 
    101 CB        -4.7092  -18.9679  -52.2718 C.3       18 UNK        -0.1800 
    102 C         -5.5798  -20.9309  -53.5722 C.2       18 UNK         0.5000 
    103 O         -5.2207  -20.8960  -54.7490 O.2       18 UNK        -0.5000 
    104 N         -6.8170  -21.2718  -53.1749 N.am      19 UNK        -0.5000 
    105 CA        -7.9519  -21.6484  -54.0342 C.3       19 UNK         0.1400 
    106 CB        -7.6955  -23.0266  -54.6782 C.3       19 UNK        -0.1800 
    107 C         -8.3276  -20.5710  -55.0815 C.2       19 UNK         0.5000 
    108 O         -8.9064  -20.8961  -56.1190 O.2       19 UNK        -0.5000 
    109 N         -7.9547  -19.3128  -54.7960 N.am      20 UNK        -0.5000 
    110 CA        -8.0220  -18.1231  -55.6528 C.3       20 UNK         0.1400 
    111 CB        -9.4861  -17.7611  -55.9776 C.3       20 UNK        -0.1800 
    112 C         -7.1420  -18.1947  -56.9235 C.2       20 UNK         0.5000 
    113 O         -7.2804  -17.3339  -57.7944 O.2       20 UNK        -0.5000 
    114 N         -6.2345  -19.1805  -57.0156 N.am      21 UNK        -0.5000 
    115 CA        -5.3998  -19.4388  -58.1941 C.3       21 UNK         0.1400 
    116 CB        -4.6925  -20.7925  -58.0312 C.3       21 UNK        -0.1800 
    117 C         -4.3770  -18.3240  -58.4800 C.2       21 UNK         0.5000 
    118 O         -4.0801  -18.0562  -59.6451 O.2       21 UNK        -0.5000 
    119 N         -3.8841  -17.6831  -57.4147 N.am      22 UNK        -0.5000 
    120 CA        -3.0166  -16.4963  -57.4595 C.3       22 UNK         0.1400 
    121 C         -3.7918  -15.1448  -57.3986 C.2       22 UNK         0.5000 
    122 N         -5.1191  -15.1273  -57.4619 N.am      22 UNK        -0.7600 
    123 O         -3.1788  -14.0837  -57.3175 O.2       22 UNK        -0.5000 
    124 C124       -1.8643  -16.5893  -56.4237 C.3       23 UNK        -0.0398 
    125 S125       -2.4046  -16.8461  -54.6983 S.3       23 UNK        -0.2404 
    126 C126       -0.7969  -17.2015  -53.9240 C.3       23 UNK        -0.0205 
    127 H127        4.1362  -12.9593  -51.6524 H         1 UNK         0.0600 
    128 H128        2.4465  -13.4742  -51.6670 H         1 UNK         0.0600 
    129 H129        3.7308  -14.6571  -51.9275 H         1 UNK         0.0600 
    130 H130        1.5955  -13.5476  -49.6120 H         1 UNK         0.3000 
    131 H131        2.9508  -14.9253  -47.4370 H         1 UNK         0.0600 
    132 H132        0.7735  -14.4330  -46.1963 H         1 UNK         0.0800 
    133 H133        0.1680  -13.6655  -47.6367 H         1 UNK         0.0800 
    134 H134       -0.7083  -14.7539  -49.5684 H         1 UNK         0.0800 
    135 H135       -1.8595  -15.6031  -48.5580 H         1 UNK         0.0800 
    136 H136       -0.7146  -15.4950  -51.8020 H         1 UNK         0.1150 
    137 H137       -1.1791  -19.6391  -52.7792 H         1 UNK         0.1150 
    138 H138       -1.3761  -18.3644  -48.6888 H         1 UNK         0.1150 
    139 H139       -2.2952  -20.6667  -49.5093 H         1 UNK         0.0800 
    140 H140       -1.8238  -21.2071  -51.1007 H         1 UNK         0.0800 
    141 H141       -0.9605  -20.3455  -47.6031 H         1 UNK         0.0800 
    142 H142        0.7769  -20.3038  -47.6044 H         1 UNK         0.0800 
    143 H143        0.7156  -22.8871  -47.3689 H         1 UNK         0.0600 
    144 H144        0.4827  -20.9176  -45.3434 H         1 UNK         0.3000 
    145 H145        1.1510  -23.1448  -42.5972 H         1 UNK         0.0600 
    146 H146        2.8610  -21.3840  -42.2571 H         1 UNK         0.0600 
    147 H147        3.3144  -22.4273  -43.5964 H         1 UNK         0.0600 
    148 H148        2.6611  -20.8267  -43.9160 H         1 UNK         0.0600 
    149 H149        0.5310  -20.3661  -42.6504 H         1 UNK         0.3000 
    150 H150       -3.0330  -20.7122  -42.3645 H         1 UNK         0.0600 
    151 H151       -2.0792  -20.9952  -40.0619 H         1 UNK         0.0600 
    152 H152       -2.6047  -19.3459  -40.3586 H         1 UNK         0.0600 
    153 H153       -0.8879  -19.7445  -40.4032 H         1 UNK         0.0600 
    154 H154       -1.4035  -18.3965  -42.4170 H         1 UNK         0.3000 
    155 H155       -1.3511  -17.9721  -46.0050 H         1 UNK         0.0600 
    156 H156       -2.6360  -16.4559  -43.6774 H         1 UNK         0.0600 
    157 H157       -3.4437  -16.9608  -45.1550 H         1 UNK         0.0600 
    158 H158       -2.1686  -15.7521  -45.2255 H         1 UNK         0.0600 
    159 H159       -0.1002  -16.4373  -43.9881 H         1 UNK         0.3000 
    160 H160        2.9706  -18.2755  -43.8368 H         1 UNK         0.0600 
    161 H161        2.3756  -15.4508  -44.8273 H         1 UNK         0.0600 
    162 H162        2.9563  -16.7340  -45.8882 H         1 UNK         0.0600 
    163 H163        3.9457  -16.2041  -44.5470 H         1 UNK         0.0600 
    164 H164        1.8912  -15.8875  -42.5695 H         1 UNK         0.3000 
    165 H165        0.8017  -17.5575  -39.6088 H         1 UNK         0.0600 
    166 H166        2.3141  -15.8687  -38.6132 H         1 UNK         0.0600 
    167 H167        3.2529  -17.1673  -39.3340 H         1 UNK         0.0600 
    168 H168        3.1125  -15.6231  -40.1646 H         1 UNK         0.0600 
    169 H169        0.7879  -14.8087  -40.4508 H         1 UNK         0.3000 
    170 H170       -2.4254  -14.8558  -41.9832 H         1 UNK         0.0600 
    171 H171       -3.0026  -14.9298  -39.5505 H         1 UNK         0.0600 
    172 H172       -1.6746  -13.8310  -39.1962 H         1 UNK         0.0600 
    173 H173       -3.0388  -13.2891  -40.1750 H         1 UNK         0.0600 
    174 H174       -0.9056  -12.6370  -41.2685 H         1 UNK         0.3000 
    175 H175        0.2546  -12.0252  -44.3208 H         1 UNK         0.0600 
    176 H176        0.5674  -11.1539  -41.3917 H         1 UNK         0.0600 
    177 H177        0.7545  -10.1272  -42.8059 H         1 UNK         0.0600 
    178 H178       -0.8150  -10.8094  -42.4331 H         1 UNK         0.0600 
    179 H179        2.4355  -12.2469  -44.2951 H         1 UNK         0.3000 
    180 H180        4.8662  -12.1281  -42.1903 H         1 UNK         0.0600 
    181 H181        4.4208  -15.1224  -42.6127 H         1 UNK         0.0600 
    182 H182        4.9554  -14.3100  -41.1530 H         1 UNK         0.0600 
    183 H183        6.0126  -14.3647  -42.5507 H         1 UNK         0.0600 
    184 H184        4.6203  -13.6202  -44.7290 H         1 UNK         0.3000 
    185 H185        4.6093  -10.7014  -46.7077 H         1 UNK         0.0600 
    186 H186        7.0627  -10.9658  -46.2968 H         1 UNK         0.0600 
    187 H187        6.9010  -12.7152  -46.4006 H         1 UNK         0.0600 
    188 H188        6.5844  -11.7095  -47.8144 H         1 UNK         0.0600 
    189 H189        4.7554  -13.3762  -47.5388 H         1 UNK         0.3000 
    190 H190       -2.1260  -21.8004  -45.4690 H         1 UNK         0.3000 
    191 H191       -4.1049  -23.3368  -46.7483 H         1 UNK         0.0600 
    192 H192       -3.9295  -22.5063  -43.8179 H         1 UNK         0.0600 
    193 H193       -5.3765  -23.0592  -44.6467 H         1 UNK         0.0600 
    194 H194       -4.6185  -21.5508  -45.1294 H         1 UNK         0.0600 
    195 H195       -1.8032  -24.2729  -44.1902 H         1 UNK         0.3000 
    196 H196       -2.8625  -26.9547  -43.8851 H         1 UNK         0.0600 
    197 H197       -0.8312  -27.2731  -42.4735 H         1 UNK         0.0600 
    198 H198       -1.7050  -25.8147  -42.0279 H         1 UNK         0.0600 
    199 H199       -0.2224  -25.6983  -42.9696 H         1 UNK         0.0600 
    200 H200        0.1107  -25.6001  -45.4314 H         1 UNK         0.3000 
    201 H201        1.0555  -28.1877  -46.1988 H         1 UNK         0.0600 
    202 H202        2.5549  -26.3207  -45.5687 H         1 UNK         0.0600 
    203 H203        2.0384  -25.3957  -46.9772 H         1 UNK         0.0600 
    204 H204        2.9332  -26.8964  -47.1852 H         1 UNK         0.0600 
    205 H205       -0.4532  -25.5249  -48.1067 H         1 UNK         0.3000 
    206 H206       -0.1010  -27.1068  -50.6150 H         1 UNK         0.0600 
    207 H207        0.8933  -24.7817  -50.4487 H         1 UNK         0.0600 
    208 H208       -0.2951  -24.9500  -51.7314 H         1 UNK         0.0600 
    209 H209       -0.7362  -24.1404  -50.2387 H         1 UNK         0.0600 
    210 H210       -2.4267  -26.6481  -48.3004 H         1 UNK         0.3000 
    211 H211       -4.6212  -26.8589  -48.1039 H         1 UNK         0.0600 
    212 H212       -4.7785  -27.8483  -50.9926 H         1 UNK         0.0600 
    213 H213       -5.9710  -28.0762  -49.7248 H         1 UNK         0.0600 
    214 H214       -4.4062  -28.8620  -49.5979 H         1 UNK         0.0600 
    215 H215       -3.4462  -24.4018  -48.7834 H         1 UNK         0.3000 
    216 H216       -4.0008  -22.2894  -48.8959 H         1 UNK         0.0600 
    217 H217       -6.2953  -21.4806  -48.8569 H         1 UNK         0.0600 
    218 H218       -6.2530  -22.9480  -47.9020 H         1 UNK         0.0600 
    219 H219       -6.9155  -22.9770  -49.5338 H         1 UNK         0.0600 
    220 H220       -5.1439  -20.5633  -50.4343 H         1 UNK         0.3000 
    221 H221       -3.5901  -20.7194  -52.8185 H         1 UNK         0.0600 
    222 H222       -3.9897  -18.6085  -51.5370 H         1 UNK         0.0600 
    223 H223       -4.5118  -18.4356  -53.2028 H         1 UNK         0.0600 
    224 H224       -5.7031  -18.6747  -51.9319 H         1 UNK         0.0600 
    225 H225       -7.0083  -21.2538  -52.1832 H         1 UNK         0.3000 
    226 H226       -8.8169  -21.7450  -53.3769 H         1 UNK         0.0600 
    227 H227       -8.5829  -23.3898  -55.1976 H         1 UNK         0.0600 
    228 H228       -6.8835  -22.9880  -55.4051 H         1 UNK         0.0600 
    229 H229       -7.4352  -23.7705  -53.9251 H         1 UNK         0.0600 
    230 H230       -7.4915  -19.1723  -53.9099 H         1 UNK         0.3000 
    231 H231       -7.6100  -17.3070  -55.0577 H         1 UNK         0.0600 
    232 H232      -10.0889  -17.7037  -55.0713 H         1 UNK         0.0600 
    233 H233       -9.9474  -18.4914  -56.6427 H         1 UNK         0.0600 
    234 H234       -9.5500  -16.7894  -56.4687 H         1 UNK         0.0600 
    235 H235       -6.1261  -19.8262  -56.2403 H         1 UNK         0.3000 
    236 H236       -6.0625  -19.5063  -59.0594 H         1 UNK         0.0600 
    237 H237       -4.1226  -21.0451  -58.9262 H         1 UNK         0.0600 
    238 H238       -3.9968  -20.7840  -57.1914 H         1 UNK         0.0600 
    239 H239       -5.4101  -21.5960  -57.8637 H         1 UNK         0.0600 
    240 H240       -4.1882  -17.9691  -56.4953 H         1 UNK         0.3000 
    241 H241       -2.5298  -16.4719  -58.4360 H         1 UNK         0.0600 
    242 H242       -5.6539  -15.9772  -57.5868 H         1 UNK         0.3800 
    243 H243       -5.5985  -14.2413  -57.4313 H         1 UNK         0.3800 
    244 H244       -1.2167  -17.4228  -56.6992 H         1 UNK         0.0800 
    245 H245       -1.2307  -15.7018  -56.4664 H         1 UNK         0.0800 
    246 H246       -0.3200  -18.0361  -54.4404 H         1 UNK         0.0800 
    247 H247       -0.1359  -16.3426  -54.0500 H         1 UNK         0.0800 
@<TRIPOS>BOND
     1    1    2 1    
     2    1  127 1    
     3    1  128 1    
     4    1  129 1    
     5    2    3 2    
     6    2    4 am   BACKBONE|DICT|INTERRES
     7    4    5 1    
     8    4  130 1    
     9    5    6 1    
    10    5   65 1    
    11    5  131 1    
    12    6    7 1    
    13    6  132 1    
    14    6  133 1    
    15    7    8 1    
    16    8    9 1    
    17    8  134 1    
    18    8  135 1    
    19    9   10 ar   
    20    9   14 ar   
    21   10   11 ar   
    22   10  136 1    
    23   11   12 ar   
    24   11  126 1    
    25   12   13 ar   
    26   12  137 1    
    27   13   14 ar   
    28   13   15 1    
    29   14  138 1    
    30   15   16 1    
    31   15  139 1    
    32   15  140 1    
    33   16   17 1    
    34   17   18 1    
    35   17  141 1    
    36   17  142 1    
    37   18   19 1    
    38   18   67 1    
    39   18  143 1    
    40   19   20 am   BACKBONE|DICT|INTERRES
    41   19  144 1    
    42   20   21 2    
    43   20   22 1    
    44   22   23 1    
    45   22   24 1    
    46   22  145 1    
    47   23  146 1    
    48   23  147 1    
    49   23  148 1    
    50   24   25 am   BACKBONE|DICT|INTERRES
    51   24  149 1    
    52   25   26 2    
    53   25   27 1    
    54   27   28 1    
    55   27   29 1    
    56   27  150 1    
    57   28  151 1    
    58   28  152 1    
    59   28  153 1    
    60   29   30 am   BACKBONE|DICT|INTERRES
    61   29  154 1    
    62   30   31 2    
    63   30   32 1    
    64   32   33 1    
    65   32   34 1    
    66   32  155 1    
    67   33  156 1    
    68   33  157 1    
    69   33  158 1    
    70   34   35 am   BACKBONE|DICT|INTERRES
    71   34  159 1    
    72   35   36 2    
    73   35   37 1    
    74   37   38 1    
    75   37   39 1    
    76   37  160 1    
    77   38  161 1    
    78   38  162 1    
    79   38  163 1    
    80   39   40 am   BACKBONE|DICT|INTERRES
    81   39  164 1    
    82   40   41 2    
    83   40   42 1    
    84   42   43 1    
    85   42   44 1    
    86   42  165 1    
    87   43  166 1    
    88   43  167 1    
    89   43  168 1    
    90   44   45 am   BACKBONE|DICT|INTERRES
    91   44  169 1    
    92   45   46 2    
    93   45   47 1    
    94   47   48 1    
    95   47   49 1    
    96   47  170 1    
    97   48  171 1    
    98   48  172 1    
    99   48  173 1    
   100   49   50 am   BACKBONE|DICT|INTERRES
   101   49  174 1    
   102   50   51 2    
   103   50   52 1    
   104   52   53 1    
   105   52   54 1    
   106   52  175 1    
   107   53  176 1    
   108   53  177 1    
   109   53  178 1    
   110   54   55 am   BACKBONE|DICT|INTERRES
   111   54  179 1    
   112   55   56 2    
   113   55   57 1    
   114   57   58 1    
   115   57   59 1    
   116   57  180 1    
   117   58  181 1    
   118   58  182 1    
   119   58  183 1    
   120   59   60 am   BACKBONE|DICT|INTERRES
   121   59  184 1    
   122   60   61 2    
   123   60   62 1    
   124   62   63 1    
   125   62   64 1    
   126   62  185 1    
   127   63  186 1    
   128   63  187 1    
   129   63  188 1    
   130   64   65 am   BACKBONE|DICT|INTERRES
   131   64  189 1    
   132   65   66 2    
   133   67   68 2    
   134   67   69 am   BACKBONE|DICT|INTERRES
   135   69   70 1    
   136   69  190 1    
   137   70   71 1    
   138   70   72 1    
   139   70  191 1    
   140   71  192 1    
   141   71  193 1    
   142   71  194 1    
   143   72   73 2    
   144   72   74 am   BACKBONE|DICT|INTERRES
   145   74   75 1    
   146   74  195 1    
   147   75   76 1    
   148   75   77 1    
   149   75  196 1    
   150   76  197 1    
   151   76  198 1    
   152   76  199 1    
   153   77   78 2    
   154   77   79 am   BACKBONE|DICT|INTERRES
   155   79   80 1    
   156   79  200 1    
   157   80   81 1    
   158   80   82 1    
   159   80  201 1    
   160   81  202 1    
   161   81  203 1    
   162   81  204 1    
   163   82   83 2    
   164   82   84 am   BACKBONE|DICT|INTERRES
   165   84   85 1    
   166   84  205 1    
   167   85   86 1    
   168   85   87 1    
   169   85  206 1    
   170   86  207 1    
   171   86  208 1    
   172   86  209 1    
   173   87   88 2    
   174   87   89 am   BACKBONE|DICT|INTERRES
   175   89   90 1    
   176   89  210 1    
   177   90   91 1    
   178   90   92 1    
   179   90  211 1    
   180   91  212 1    
   181   91  213 1    
   182   91  214 1    
   183   92   93 2    
   184   92   94 am   BACKBONE|DICT|INTERRES
   185   94   95 1    
   186   94  215 1    
   187   95   96 1    
   188   95   97 1    
   189   95  216 1    
   190   96  217 1    
   191   96  218 1    
   192   96  219 1    
   193   97   98 2    
   194   97   99 am   BACKBONE|DICT|INTERRES
   195   99  100 1    
   196   99  220 1    
   197  100  101 1    
   198  100  102 1    
   199  100  221 1    
   200  101  222 1    
   201  101  223 1    
   202  101  224 1    
   203  102  103 2    
   204  102  104 am   BACKBONE|DICT|INTERRES
   205  104  105 1    
   206  104  225 1    
   207  105  106 1    
   208  105  107 1    
   209  105  226 1    
   210  106  227 1    
   211  106  228 1    
   212  106  229 1    
   213  107  108 2    
   214  107  109 am   BACKBONE|DICT|INTERRES
   215  109  110 1    
   216  109  230 1    
   217  110  111 1    
   218  110  112 1    
   219  110  231 1    
   220  111  232 1    
   221  111  233 1    
   222  111  234 1    
   223  112  113 2    
   224  112  114 am   BACKBONE|DICT|INTERRES
   225  114  115 1    
   226  114  235 1    
   227  115  116 1    
   228  115  117 1    
   229  115  236 1    
   230  116  237 1    
   231  116  238 1    
   232  116  239 1    
   233  117  118 2    
   234  117  119 am   BACKBONE|DICT|INTERRES
   235  119  120 1    
   236  119  240 1    
   237  120  121 1    
   238  120  124 1    
   239  120  241 1    
   240  121  122 am   BACKBONE|DICT|INTERRES
   241  121  123 2    
   242  122  242 1    
   243  122  243 1    
   244  124  125 1    
   245  124  244 1    
   246  124  245 1    
   247  125  126 1    
   248  126  246 1    
   249  126  247 1    
@<TRIPOS>SUBSTRUCTURE
     1 UNK         1 GROUP             0       ****    0 ROOT    
