@<TRIPOS>MOLECULE
3R540
247   249    1
SMALL
USER_CHARGES


@<TRIPOS>ATOM
      1 CA          3.9223   -9.0937  -50.9153 C.3       0 UNK        -0.1800 
      2 C           4.0242  -10.0200  -49.7121 C.2       0 UNK         0.5000 
      3 O           3.9989   -9.5505  -48.5740 O.2       0 UNK        -0.5000 
      4 N           4.1280  -11.3344  -49.9577 N.am      1 UNK        -0.5000 
      5 CA          4.2464  -12.3801  -48.9307 C.3       1 UNK         0.1400 
      6 C6          4.5678  -13.7636  -49.5538 C.3       23 UNK        -0.0398 
      7 S7          5.5180  -14.8730  -48.4515 S.3       23 UNK        -0.2404 
      8 C8          4.2533  -15.8301  -47.5437 C.3       23 UNK        -0.0205 
      9 C9          3.3717  -16.6755  -48.4473 C.ar      23 UNK        -0.0193 
     10 C10         2.1513  -16.1783  -48.9139 C.ar      23 UNK        -0.1150 
     11 C11         1.3450  -16.9486  -49.7563 C.ar      23 UNK        -0.0193 
     12 C12         1.7576  -18.2370  -50.1097 C.ar      23 UNK        -0.1150 
     13 C13         2.9549  -18.7595  -49.6131 C.ar      23 UNK        -0.0193 
     14 C14         3.7642  -17.9697  -48.7936 C.ar      23 UNK        -0.1150 
     15 C15         3.3724  -20.1818  -49.9448 C.3       23 UNK        -0.0205 
     16 S16         2.9473  -21.3214  -48.5915 S.3       23 UNK        -0.2404 
     17 C17         1.1311  -21.3701  -48.7397 C.3       23 UNK        -0.0398 
     18 CA          0.5240  -22.4967  -47.8749 C.3       11 UNK         0.1400 
     19 N           0.5654  -22.1926  -46.4400 N.am      11 UNK        -0.5000 
     20 C           0.2949  -23.0820  -45.4744 C.2       10 UNK         0.5000 
     21 O           0.0316  -24.2639  -45.6928 O.2       10 UNK        -0.5000 
     22 CA          0.2525  -22.5598  -44.0270 C.3       10 UNK         0.1400 
     23 CB          1.6671  -22.4187  -43.4459 C.3       10 UNK        -0.1800 
     24 N          -0.4734  -21.2943  -43.9077 N.am      10 UNK        -0.5000 
     25 C          -1.7789  -21.1496  -44.1787 C.2       9 UNK         0.5000 
     26 O          -2.5120  -22.0804  -44.5084 O.2       9 UNK        -0.5000 
     27 CA         -2.3635  -19.7282  -44.1123 C.3       9 UNK         0.1400 
     28 CB         -2.7418  -19.3654  -42.6690 C.3       9 UNK        -0.1800 
     29 N          -1.4656  -18.7137  -44.6638 N.am      9 UNK        -0.5000 
     30 C          -1.0493  -18.6721  -45.9383 C.2       8 UNK         0.5000 
     31 O          -1.4119  -19.4722  -46.8009 O.2       8 UNK        -0.5000 
     32 CA          0.0020  -17.6012  -46.2861 C.3       8 UNK         0.1400 
     33 CB         -0.6361  -16.2109  -46.4260 C.3       8 UNK        -0.1800 
     34 N           1.0796  -17.5439  -45.2989 N.am      8 UNK        -0.5000 
     35 C           1.9046  -18.5633  -45.0214 C.2       7 UNK         0.5000 
     36 O           1.8884  -19.6411  -45.6154 O.2       7 UNK        -0.5000 
     37 CA          2.8582  -18.3686  -43.8312 C.3       7 UNK         0.1400 
     38 CB          4.1211  -17.6015  -44.2461 C.3       7 UNK        -0.1800 
     39 N           2.2005  -17.6744  -42.7239 N.am      7 UNK        -0.5000 
     40 C           1.2848  -18.2383  -41.9239 C.2       6 UNK         0.5000 
     41 O           0.9267  -19.4118  -42.0200 O.2       6 UNK        -0.5000 
     42 CA          0.6383  -17.3327  -40.8587 C.3       6 UNK         0.1400 
     43 CB          1.5211  -17.2585  -39.6041 C.3       6 UNK        -0.1800 
     44 N           0.3745  -15.9780  -41.3461 N.am      6 UNK        -0.5000 
     45 C          -0.5159  -15.6789  -42.3021 C.2       5 UNK         0.5000 
     46 O          -1.2318  -16.5140  -42.8508 O.2       5 UNK        -0.5000 
     47 CA         -0.5924  -14.2095  -42.7551 C.3       5 UNK         0.1400 
     48 CB         -1.6088  -13.4348  -41.9040 C.3       5 UNK        -0.1800 
     49 N           0.6909  -13.5044  -42.7329 N.am      5 UNK        -0.5000 
     50 C           1.7940  -13.8758  -43.3954 C.2       4 UNK         0.5000 
     51 O           1.8827  -14.9176  -44.0493 O.2       4 UNK        -0.5000 
     52 CA          2.9667  -12.8827  -43.3395 C.3       4 UNK         0.1400 
     53 CB          4.3054  -13.5255  -43.7453 C.3       4 UNK        -0.1800 
     54 N           2.6681  -11.7704  -44.2367 N.am      4 UNK        -0.5000 
     55 C           1.9607  -10.6794  -43.9082 C.2       3 UNK         0.5000 
     56 O           1.6029  -10.4262  -42.7569 O.2       3 UNK        -0.5000 
     57 CA          1.5434   -9.7331  -45.0554 C.3       3 UNK         0.1400 
     58 CB          2.5884   -8.6239  -45.2460 C.3       3 UNK        -0.1800 
     59 N           1.3465  -10.4257  -46.3303 N.am      3 UNK        -0.5000 
     60 C           0.4117  -11.3598  -46.5620 C.2       2 UNK         0.5000 
     61 O          -0.4952  -11.6219  -45.7714 O.2       2 UNK        -0.5000 
     62 CA          0.5179  -12.1670  -47.8758 C.3       2 UNK         0.1400 
     63 CB         -0.5686  -11.7309  -48.8702 C.3       2 UNK        -0.1800 
     64 N           1.8214  -12.1186  -48.5513 N.am      2 UNK        -0.5000 
     65 C           3.0049  -12.4587  -48.0173 C.2       1 UNK         0.5000 
     66 O           3.1442  -12.7849  -46.8420 O.2       1 UNK        -0.5000 
     67 C          -0.8991  -22.8527  -48.3496 C.2       11 UNK         0.5000 
     68 O          -1.0564  -23.8117  -49.1054 O.2       11 UNK        -0.5000 
     69 N          -1.9129  -22.1163  -47.8742 N.am      12 UNK        -0.5000 
     70 CA         -3.3243  -22.3912  -48.1465 C.3       12 UNK         0.1400 
     71 CB         -4.1870  -21.2423  -47.6071 C.3       12 UNK        -0.1800 
     72 C          -3.7903  -23.7493  -47.5877 C.2       12 UNK         0.5000 
     73 O          -4.5032  -24.4752  -48.2812 O.2       12 UNK        -0.5000 
     74 N          -3.3463  -24.0853  -46.3687 N.am      13 UNK        -0.5000 
     75 CA         -3.5867  -25.3729  -45.7179 C.3       13 UNK         0.1400 
     76 CB         -3.1698  -25.2942  -44.2418 C.3       13 UNK        -0.1800 
     77 C          -2.8737  -26.5391  -46.4252 C.2       13 UNK         0.5000 
     78 O          -3.4706  -27.6053  -46.5712 O.2       13 UNK        -0.5000 
     79 N          -1.6327  -26.3137  -46.8812 N.am      14 UNK        -0.5000 
     80 CA         -0.8445  -27.2734  -47.6595 C.3       14 UNK         0.1400 
     81 CB          0.6021  -26.7736  -47.7895 C.3       14 UNK        -0.1800 
     82 C          -1.4518  -27.5550  -49.0466 C.2       14 UNK         0.5000 
     83 O          -1.4464  -28.7039  -49.4902 O.2       14 UNK        -0.5000 
     84 N          -1.9974  -26.5114  -49.6876 N.am      15 UNK        -0.5000 
     85 CA         -2.7585  -26.6020  -50.9357 C.3       15 UNK         0.1400 
     86 CB         -2.9298  -25.1914  -51.5194 C.3       15 UNK        -0.1800 
     87 C          -4.1353  -27.2741  -50.7596 C.2       15 UNK         0.5000 
     88 O          -4.6992  -27.7588  -51.7411 O.2       15 UNK        -0.5000 
     89 N          -4.6582  -27.2658  -49.5248 N.am      16 UNK        -0.5000 
     90 CA         -5.9218  -27.8232  -49.0253 C.3       16 UNK         0.1400 
     91 CB         -6.0024  -29.3421  -49.2650 C.3       16 UNK        -0.1800 
     92 C          -7.1824  -27.1049  -49.5407 C.2       16 UNK         0.5000 
     93 O          -8.1012  -26.8578  -48.7589 O.2       16 UNK        -0.5000 
     94 N          -7.2018  -26.7650  -50.8336 N.am      17 UNK        -0.5000 
     95 CA         -8.2671  -26.0163  -51.4982 C.3       17 UNK         0.1400 
     96 CB         -8.1409  -26.2297  -53.0147 C.3       17 UNK        -0.1800 
     97 C          -8.2518  -24.5107  -51.1680 C.2       17 UNK         0.5000 
     98 O          -9.2646  -23.8451  -51.3891 O.2       17 UNK        -0.5000 
     99 N          -7.1128  -24.0042  -50.6660 N.am      18 UNK        -0.5000 
    100 CA        -6.8151  -22.5936  -50.4012 C.3       18 UNK         0.1400 
    101 CB        -7.6515  -22.0751  -49.2095 C.3       18 UNK        -0.1800 
    102 C         -6.9392  -21.7524  -51.6904 C.2       18 UNK         0.5000 
    103 O         -6.3612  -22.1464  -52.7058 O.2       18 UNK        -0.5000 
    104 N         -7.6840  -20.6369  -51.6350 N.am      19 UNK        -0.5000 
    105 CA        -8.0831  -19.7691  -52.7493 C.3       19 UNK         0.1400 
    106 CB        -9.2068  -20.4518  -53.5603 C.3       19 UNK        -0.1800 
    107 C         -6.8882  -19.3167  -53.6131 C.2       19 UNK         0.5000 
    108 O         -6.1246  -18.4499  -53.1833 O.2       19 UNK        -0.5000 
    109 N         -6.7174  -19.9449  -54.7850 N.am      20 UNK        -0.5000 
    110 CA        -5.6404  -19.7298  -55.7563 C.3       20 UNK         0.1400 
    111 CB        -5.8948  -20.6313  -56.9746 C.3       20 UNK        -0.1800 
    112 C         -4.2104  -19.9444  -55.2140 C.2       20 UNK         0.5000 
    113 O         -3.2574  -19.5134  -55.8644 O.2       20 UNK        -0.5000 
    114 N         -4.0785  -20.5708  -54.0343 N.am      21 UNK        -0.5000 
    115 CA        -2.8374  -20.6741  -53.2635 C.3       21 UNK         0.1400 
    116 CB        -3.1030  -21.4883  -51.9880 C.3       21 UNK        -0.1800 
    117 C         -2.2213  -19.3057  -52.9020 C.2       21 UNK         0.5000 
    118 O         -0.9947  -19.1943  -52.8833 O.2       21 UNK        -0.5000 
    119 N         -3.0729  -18.2985  -52.6544 N.am      22 UNK        -0.5000 
    120 CA        -2.6727  -16.9021  -52.4063 C.3       22 UNK         0.1400 
    121 C         -3.4863  -15.8598  -53.2239 C.2       22 UNK         0.5000 
    122 N         -4.6515  -16.1766  -53.7736 N.am      22 UNK        -0.7600 
    123 O         -3.0359  -14.7285  -53.3825 O.2       22 UNK        -0.5000 
    124 C124       -2.6711  -16.5337  -50.8972 C.3       23 UNK        -0.0398 
    125 S125       -1.3983  -17.4173  -49.9362 S.3       23 UNK        -0.2404 
    126 C126        0.0493  -16.3751  -50.3099 C.3       23 UNK        -0.0205 
    127 H127        4.7473   -8.3814  -50.9105 H         1 UNK         0.0600 
    128 H128        3.9538   -9.6443  -51.8557 H         1 UNK         0.0600 
    129 H129        2.9874   -8.5343  -50.8794 H         1 UNK         0.0600 
    130 H130        4.1420  -11.6530  -50.9164 H         1 UNK         0.3000 
    131 H131        5.0876  -12.0887  -48.2977 H         1 UNK         0.0600 
    132 H132        5.2064  -13.6215  -50.4267 H         1 UNK         0.0800 
    133 H133        3.6769  -14.2549  -49.9424 H         1 UNK         0.0800 
    134 H134        3.6396  -15.1851  -46.9188 H         1 UNK         0.0800 
    135 H135        4.7797  -16.4839  -46.8490 H         1 UNK         0.0800 
    136 H136        1.8371  -15.1842  -48.6312 H         1 UNK         0.1150 
    137 H137        1.1335  -18.8378  -50.7571 H         1 UNK         0.1150 
    138 H138        4.6944  -18.3691  -48.4144 H         1 UNK         0.1150 
    139 H139        2.9081  -20.5169  -50.8736 H         1 UNK         0.0800 
    140 H140        4.4499  -20.2167  -50.1119 H         1 UNK         0.0800 
    141 H141        0.8899  -21.5158  -49.7947 H         1 UNK         0.0800 
    142 H142        0.7168  -20.4005  -48.4568 H         1 UNK         0.0800 
    143 H143        1.1264  -23.3946  -48.0292 H         1 UNK         0.0600 
    144 H144        0.8213  -21.2441  -46.1806 H         1 UNK         0.3000 
    145 H145       -0.2802  -23.3003  -43.4267 H         1 UNK         0.0600 
    146 H146        1.6352  -22.1106  -42.4008 H         1 UNK         0.0600 
    147 H147        2.2005  -23.3690  -43.4884 H         1 UNK         0.0600 
    148 H148        2.2606  -21.6872  -43.9930 H         1 UNK         0.0600 
    149 H149        0.0564  -20.4901  -43.5913 H         1 UNK         0.3000 
    150 H150       -3.2761  -19.7177  -44.7108 H         1 UNK         0.0600 
    151 H151       -3.4160  -20.1093  -42.2426 H         1 UNK         0.0600 
    152 H152       -3.2520  -18.4032  -42.6257 H         1 UNK         0.0600 
    153 H153       -1.8644  -19.3089  -42.0245 H         1 UNK         0.0600 
    154 H154       -1.1617  -17.9857  -44.0222 H         1 UNK         0.3000 
    155 H155        0.4455  -17.8770  -47.2440 H         1 UNK         0.0600 
    156 H156       -1.1066  -15.8872  -45.4987 H         1 UNK         0.0600 
    157 H157       -1.4052  -16.2091  -47.1982 H         1 UNK         0.0600 
    158 H158        0.1078  -15.4642  -46.7020 H         1 UNK         0.0600 
    159 H159        1.1887  -16.6778  -44.7813 H         1 UNK         0.3000 
    160 H160        3.1663  -19.3574  -43.4847 H         1 UNK         0.0600 
    161 H161        4.8195  -17.5127  -43.4139 H         1 UNK         0.0600 
    162 H162        3.8871  -16.5958  -44.5944 H         1 UNK         0.0600 
    163 H163        4.6405  -18.1204  -45.0525 H         1 UNK         0.0600 
    164 H164        2.3803  -16.6836  -42.6402 H         1 UNK         0.3000 
    165 H165       -0.3163  -17.7823  -40.5768 H         1 UNK         0.0600 
    166 H166        1.0354  -16.6864  -38.8134 H         1 UNK         0.0600 
    167 H167        1.7193  -18.2552  -39.2075 H         1 UNK         0.0600 
    168 H168        2.4840  -16.7914  -39.8146 H         1 UNK         0.0600 
    169 H169        0.9246  -15.2305  -40.9495 H         1 UNK         0.3000 
    170 H170       -0.9433  -14.2034  -43.7886 H         1 UNK         0.0600 
    171 H171       -2.5843  -13.9228  -41.9196 H         1 UNK         0.0600 
    172 H172       -1.2922  -13.3649  -40.8626 H         1 UNK         0.0600 
    173 H173       -1.7479  -12.4217  -42.2824 H         1 UNK         0.0600 
    174 H174        0.7029  -12.6106  -42.2599 H         1 UNK         0.3000 
    175 H175        3.0669  -12.5222  -42.3137 H         1 UNK         0.0600 
    176 H176        4.2784  -13.9258  -44.7589 H         1 UNK         0.0600 
    177 H177        5.1195  -12.8025  -43.6952 H         1 UNK         0.0600 
    178 H178        4.5586  -14.3493  -43.0770 H         1 UNK         0.0600 
    179 H179        2.8600  -11.9520  -45.2199 H         1 UNK         0.3000 
    180 H180        0.5960   -9.2691  -44.7740 H         1 UNK         0.0600 
    181 H181        3.5522   -9.0297  -45.5568 H         1 UNK         0.0600 
    182 H182        2.7465   -8.0714  -44.3188 H         1 UNK         0.0600 
    183 H183        2.2686   -7.9061  -46.0017 H         1 UNK         0.0600 
    184 H184        2.0561  -10.2786  -47.0354 H         1 UNK         0.3000 
    185 H185        0.3352  -13.2103  -47.6132 H         1 UNK         0.0600 
    186 H186       -1.5597  -11.7849  -48.4176 H         1 UNK         0.0600 
    187 H187       -0.4158  -10.7043  -49.2054 H         1 UNK         0.0600 
    188 H188       -0.5813  -12.3751  -49.7497 H         1 UNK         0.0600 
    189 H189        1.8105  -11.8205  -49.5158 H         1 UNK         0.3000 
    190 H190       -1.7068  -21.3024  -47.3000 H         1 UNK         0.3000 
    191 H191       -3.4486  -22.4268  -49.2297 H         1 UNK         0.0600 
    192 H192       -4.0642  -21.1184  -46.5319 H         1 UNK         0.0600 
    193 H193       -5.2445  -21.4240  -47.7929 H         1 UNK         0.0600 
    194 H194       -3.9274  -20.2972  -48.0848 H         1 UNK         0.0600 
    195 H195       -2.8192  -23.3997  -45.8337 H         1 UNK         0.3000 
    196 H196       -4.6602  -25.5700  -45.7553 H         1 UNK         0.0600 
    197 H197       -3.3548  -26.2404  -43.7319 H         1 UNK         0.0600 
    198 H198       -3.7338  -24.5248  -43.7144 H         1 UNK         0.0600 
    199 H199       -2.1096  -25.0638  -44.1338 H         1 UNK         0.0600 
    200 H200       -1.1807  -25.4319  -46.6557 H         1 UNK         0.3000 
    201 H201       -0.8277  -28.2157  -47.1080 H         1 UNK         0.0600 
    202 H202        1.0623  -26.6392  -46.8105 H         1 UNK         0.0600 
    203 H203        0.6536  -25.8214  -48.3173 H         1 UNK         0.0600 
    204 H204        1.2140  -27.4882  -48.3412 H         1 UNK         0.0600 
    205 H205       -1.8808  -25.5823  -49.2928 H         1 UNK         0.3000 
    206 H206       -2.1856  -27.2014  -51.6460 H         1 UNK         0.0600 
    207 H207       -1.9640  -24.7231  -51.7099 H         1 UNK         0.0600 
    208 H208       -3.4702  -25.2197  -52.4665 H         1 UNK         0.0600 
    209 H209       -3.4867  -24.5432  -50.8424 H         1 UNK         0.0600 
    210 H210       -4.1231  -26.7730  -48.8217 H         1 UNK         0.3000 
    211 H211       -5.8987  -27.6657  -47.9459 H         1 UNK         0.0600 
    212 H212       -6.0527  -29.5876  -50.3260 H         1 UNK         0.0600 
    213 H213       -6.8907  -29.7625  -48.7920 H         1 UNK         0.0600 
    214 H214       -5.1365  -29.8520  -48.8424 H         1 UNK         0.0600 
    215 H215       -6.4037  -27.0417  -51.3995 H         1 UNK         0.3000 
    216 H216       -9.2298  -26.4166  -51.1733 H         1 UNK         0.0600 
    217 H217       -8.9374  -25.7122  -53.5511 H         1 UNK         0.0600 
    218 H218       -8.2104  -27.2869  -53.2718 H         1 UNK         0.0600 
    219 H219       -7.1903  -25.8530  -53.3948 H         1 UNK         0.0600 
    220 H220       -6.3453  -24.6442  -50.5222 H         1 UNK         0.3000 
    221 H221       -5.7644  -22.5511  -50.1142 H         1 UNK         0.0600 
    222 H222       -8.7205  -22.0744  -49.4246 H         1 UNK         0.0600 
    223 H223       -7.4948  -22.6988  -48.3291 H         1 UNK         0.0600 
    224 H224       -7.3666  -21.0591  -48.9346 H         1 UNK         0.0600 
    225 H225       -8.0842  -20.3922  -50.7406 H         1 UNK         0.3000 
    226 H226       -8.4989  -18.8621  -52.3082 H         1 UNK         0.0600 
    227 H227      -10.0840  -20.6224  -52.9359 H         1 UNK         0.0600 
    228 H228       -9.5262  -19.8290  -54.3971 H         1 UNK         0.0600 
    229 H229       -8.9005  -21.4198  -53.9589 H         1 UNK         0.0600 
    230 H230       -7.3710  -20.6797  -55.0131 H         1 UNK         0.3000 
    231 H231       -5.7014  -18.6894  -56.0815 H         1 UNK         0.0600 
    232 H232       -6.8628  -20.4187  -57.4288 H         1 UNK         0.0600 
    233 H233       -5.8749  -21.6873  -56.7019 H         1 UNK         0.0600 
    234 H234       -5.1370  -20.4764  -57.7438 H         1 UNK         0.0600 
    235 H235       -4.9144  -20.9465  -53.5993 H         1 UNK         0.3000 
    236 H236       -2.1138  -21.2165  -53.8752 H         1 UNK         0.0600 
    237 H237       -2.1813  -21.6522  -51.4278 H         1 UNK         0.0600 
    238 H238       -3.8043  -20.9785  -51.3263 H         1 UNK         0.0600 
    239 H239       -3.5190  -22.4663  -52.2271 H         1 UNK         0.0600 
    240 H240       -4.0681  -18.4745  -52.7169 H         1 UNK         0.3000 
    241 H241       -1.6551  -16.7726  -52.7775 H         1 UNK         0.0600 
    242 H242       -5.1383  -15.4728  -54.3051 H         1 UNK         0.3800 
    243 H243       -5.1151  -17.0644  -53.5941 H         1 UNK         0.3800 
    244 H244       -2.5136  -15.4630  -50.7529 H         1 UNK         0.0800 
    245 H245       -3.6454  -16.7538  -50.4586 H         1 UNK         0.0800 
    246 H246       -0.1281  -15.3726  -49.9172 H         1 UNK         0.0800 
    247 H247        0.1583  -16.2728  -51.3898 H         1 UNK         0.0800 
@<TRIPOS>BOND
     1    1    2 1    
     2    1  127 1    
     3    1  128 1    
     4    1  129 1    
     5    2    3 2    
     6    2    4 am   BACKBONE|DICT|INTERRES
     7    4    5 1    
     8    4  130 1    
     9    5    6 1    
    10    5   65 1    
    11    5  131 1    
    12    6    7 1    
    13    6  132 1    
    14    6  133 1    
    15    7    8 1    
    16    8    9 1    
    17    8  134 1    
    18    8  135 1    
    19    9   10 ar   
    20    9   14 ar   
    21   10   11 ar   
    22   10  136 1    
    23   11   12 ar   
    24   11  126 1    
    25   12   13 ar   
    26   12  137 1    
    27   13   14 ar   
    28   13   15 1    
    29   14  138 1    
    30   15   16 1    
    31   15  139 1    
    32   15  140 1    
    33   16   17 1    
    34   17   18 1    
    35   17  141 1    
    36   17  142 1    
    37   18   19 1    
    38   18   67 1    
    39   18  143 1    
    40   19   20 am   BACKBONE|DICT|INTERRES
    41   19  144 1    
    42   20   21 2    
    43   20   22 1    
    44   22   23 1    
    45   22   24 1    
    46   22  145 1    
    47   23  146 1    
    48   23  147 1    
    49   23  148 1    
    50   24   25 am   BACKBONE|DICT|INTERRES
    51   24  149 1    
    52   25   26 2    
    53   25   27 1    
    54   27   28 1    
    55   27   29 1    
    56   27  150 1    
    57   28  151 1    
    58   28  152 1    
    59   28  153 1    
    60   29   30 am   BACKBONE|DICT|INTERRES
    61   29  154 1    
    62   30   31 2    
    63   30   32 1    
    64   32   33 1    
    65   32   34 1    
    66   32  155 1    
    67   33  156 1    
    68   33  157 1    
    69   33  158 1    
    70   34   35 am   BACKBONE|DICT|INTERRES
    71   34  159 1    
    72   35   36 2    
    73   35   37 1    
    74   37   38 1    
    75   37   39 1    
    76   37  160 1    
    77   38  161 1    
    78   38  162 1    
    79   38  163 1    
    80   39   40 am   BACKBONE|DICT|INTERRES
    81   39  164 1    
    82   40   41 2    
    83   40   42 1    
    84   42   43 1    
    85   42   44 1    
    86   42  165 1    
    87   43  166 1    
    88   43  167 1    
    89   43  168 1    
    90   44   45 am   BACKBONE|DICT|INTERRES
    91   44  169 1    
    92   45   46 2    
    93   45   47 1    
    94   47   48 1    
    95   47   49 1    
    96   47  170 1    
    97   48  171 1    
    98   48  172 1    
    99   48  173 1    
   100   49   50 am   BACKBONE|DICT|INTERRES
   101   49  174 1    
   102   50   51 2    
   103   50   52 1    
   104   52   53 1    
   105   52   54 1    
   106   52  175 1    
   107   53  176 1    
   108   53  177 1    
   109   53  178 1    
   110   54   55 am   BACKBONE|DICT|INTERRES
   111   54  179 1    
   112   55   56 2    
   113   55   57 1    
   114   57   58 1    
   115   57   59 1    
   116   57  180 1    
   117   58  181 1    
   118   58  182 1    
   119   58  183 1    
   120   59   60 am   BACKBONE|DICT|INTERRES
   121   59  184 1    
   122   60   61 2    
   123   60   62 1    
   124   62   63 1    
   125   62   64 1    
   126   62  185 1    
   127   63  186 1    
   128   63  187 1    
   129   63  188 1    
   130   64   65 am   BACKBONE|DICT|INTERRES
   131   64  189 1    
   132   65   66 2    
   133   67   68 2    
   134   67   69 am   BACKBONE|DICT|INTERRES
   135   69   70 1    
   136   69  190 1    
   137   70   71 1    
   138   70   72 1    
   139   70  191 1    
   140   71  192 1    
   141   71  193 1    
   142   71  194 1    
   143   72   73 2    
   144   72   74 am   BACKBONE|DICT|INTERRES
   145   74   75 1    
   146   74  195 1    
   147   75   76 1    
   148   75   77 1    
   149   75  196 1    
   150   76  197 1    
   151   76  198 1    
   152   76  199 1    
   153   77   78 2    
   154   77   79 am   BACKBONE|DICT|INTERRES
   155   79   80 1    
   156   79  200 1    
   157   80   81 1    
   158   80   82 1    
   159   80  201 1    
   160   81  202 1    
   161   81  203 1    
   162   81  204 1    
   163   82   83 2    
   164   82   84 am   BACKBONE|DICT|INTERRES
   165   84   85 1    
   166   84  205 1    
   167   85   86 1    
   168   85   87 1    
   169   85  206 1    
   170   86  207 1    
   171   86  208 1    
   172   86  209 1    
   173   87   88 2    
   174   87   89 am   BACKBONE|DICT|INTERRES
   175   89   90 1    
   176   89  210 1    
   177   90   91 1    
   178   90   92 1    
   179   90  211 1    
   180   91  212 1    
   181   91  213 1    
   182   91  214 1    
   183   92   93 2    
   184   92   94 am   BACKBONE|DICT|INTERRES
   185   94   95 1    
   186   94  215 1    
   187   95   96 1    
   188   95   97 1    
   189   95  216 1    
   190   96  217 1    
   191   96  218 1    
   192   96  219 1    
   193   97   98 2    
   194   97   99 am   BACKBONE|DICT|INTERRES
   195   99  100 1    
   196   99  220 1    
   197  100  101 1    
   198  100  102 1    
   199  100  221 1    
   200  101  222 1    
   201  101  223 1    
   202  101  224 1    
   203  102  103 2    
   204  102  104 am   BACKBONE|DICT|INTERRES
   205  104  105 1    
   206  104  225 1    
   207  105  106 1    
   208  105  107 1    
   209  105  226 1    
   210  106  227 1    
   211  106  228 1    
   212  106  229 1    
   213  107  108 2    
   214  107  109 am   BACKBONE|DICT|INTERRES
   215  109  110 1    
   216  109  230 1    
   217  110  111 1    
   218  110  112 1    
   219  110  231 1    
   220  111  232 1    
   221  111  233 1    
   222  111  234 1    
   223  112  113 2    
   224  112  114 am   BACKBONE|DICT|INTERRES
   225  114  115 1    
   226  114  235 1    
   227  115  116 1    
   228  115  117 1    
   229  115  236 1    
   230  116  237 1    
   231  116  238 1    
   232  116  239 1    
   233  117  118 2    
   234  117  119 am   BACKBONE|DICT|INTERRES
   235  119  120 1    
   236  119  240 1    
   237  120  121 1    
   238  120  124 1    
   239  120  241 1    
   240  121  122 am   BACKBONE|DICT|INTERRES
   241  121  123 2    
   242  122  242 1    
   243  122  243 1    
   244  124  125 1    
   245  124  244 1    
   246  124  245 1    
   247  125  126 1    
   248  126  246 1    
   249  126  247 1    
@<TRIPOS>SUBSTRUCTURE
     1 UNK         1 GROUP             0       ****    0 ROOT    
