@<TRIPOS>MOLECULE
3R540
247   249    1
SMALL
USER_CHARGES


@<TRIPOS>ATOM
      1 CA         -3.1056  -13.2286  -52.2581 C.3       0 UNK        -0.1800 
      2 C          -2.5504  -13.4788  -50.8646 C.2       0 UNK         0.5000 
      3 O          -3.2416  -13.2401  -49.8750 O.2       0 UNK        -0.5000 
      4 N          -1.2987  -13.9481  -50.7853 N.am      1 UNK        -0.5000 
      5 CA         -0.5278  -14.2979  -49.5776 C.3       1 UNK         0.1400 
      6 C6         -1.2107  -15.3398  -48.6525 C.3       23 UNK        -0.0398 
      7 S7         -1.7946  -16.8391  -49.5083 S.3       23 UNK        -0.2404 
      8 C8         -1.0923  -18.1651  -48.4714 C.3       23 UNK        -0.0205 
      9 C9          0.2971  -18.5937  -48.9192 C.ar      23 UNK        -0.0193 
     10 C10         0.4896  -19.0652  -50.2205 C.ar      23 UNK        -0.1150 
     11 C11         1.7294  -19.5639  -50.6221 C.ar      23 UNK        -0.0193 
     12 C12         2.7912  -19.5757  -49.7146 C.ar      23 UNK        -0.1150 
     13 C13         2.6204  -19.0968  -48.4117 C.ar      23 UNK        -0.0193 
     14 C14         1.3706  -18.6000  -48.0214 C.ar      23 UNK        -0.1150 
     15 C15         3.7917  -19.1347  -47.4342 C.3       23 UNK        -0.0205 
     16 S16         3.4524  -20.1274  -45.9422 S.3       23 UNK        -0.2404 
     17 C17         2.9810  -21.7374  -46.6585 C.3       23 UNK        -0.0398 
     18 CA          3.5743  -22.9656  -45.9230 C.3       11 UNK         0.1400 
     19 N           3.2156  -22.9975  -44.4991 N.am      11 UNK        -0.5000 
     20 C           3.7132  -23.8570  -43.5970 C.2       10 UNK         0.5000 
     21 O           4.6228  -24.6513  -43.8376 O.2       10 UNK        -0.5000 
     22 CA          3.0475  -23.8673  -42.2099 C.3       10 UNK         0.1400 
     23 CB          3.7269  -22.8623  -41.2664 C.3       10 UNK        -0.1800 
     24 N           1.6160  -23.5713  -42.3009 N.am      10 UNK        -0.5000 
     25 C           0.6731  -24.4624  -42.6380 C.2       9 UNK         0.5000 
     26 O           0.9061  -25.6515  -42.8546 O.2       9 UNK        -0.5000 
     27 CA         -0.7702  -23.9397  -42.7828 C.3       9 UNK         0.1400 
     28 CB         -1.5061  -24.0129  -41.4366 C.3       9 UNK        -0.1800 
     29 N          -0.8392  -22.5694  -43.2918 N.am      9 UNK        -0.5000 
     30 C          -0.5351  -22.2055  -44.5447 C.2       8 UNK         0.5000 
     31 O          -0.2045  -23.0009  -45.4260 O.2       8 UNK        -0.5000 
     32 CA         -0.5644  -20.6956  -44.8559 C.3       8 UNK         0.1400 
     33 CB         -1.9611  -20.2732  -45.3276 C.3       8 UNK        -0.1800 
     34 N          -0.1633  -19.8177  -43.7511 N.am      8 UNK        -0.5000 
     35 C           0.9675  -19.9014  -43.0350 C.2       7 UNK         0.5000 
     36 O           1.7586  -20.8376  -43.1302 O.2       7 UNK        -0.5000 
     37 CA          1.2816  -18.7661  -42.0443 C.3       7 UNK         0.1400 
     38 CB          2.6159  -18.0942  -42.4100 C.3       7 UNK        -0.1800 
     39 N           0.2371  -17.7421  -42.0156 N.am      7 UNK        -0.5000 
     40 C          -0.7202  -17.6341  -41.0846 C.2       6 UNK         0.5000 
     41 O          -0.8448  -18.4171  -40.1427 O.2       6 UNK        -0.5000 
     42 CA         -1.7016  -16.4500  -41.2143 C.3       6 UNK         0.1400 
     43 CB         -1.3367  -15.3421  -40.2141 C.3       6 UNK        -0.1800 
     44 N          -1.7358  -15.8710  -42.5583 N.am      6 UNK        -0.5000 
     45 C          -2.3411  -16.4304  -43.6148 C.2       5 UNK         0.5000 
     46 O          -2.9866  -17.4761  -43.5576 O.2       5 UNK        -0.5000 
     47 CA         -2.1411  -15.7304  -44.9738 C.3       5 UNK         0.1400 
     48 CB         -3.2579  -14.7045  -45.2167 C.3       5 UNK        -0.1800 
     49 N          -0.8311  -15.0806  -45.1089 N.am      5 UNK        -0.5000 
     50 C           0.3423  -15.7317  -45.0361 C.2       4 UNK         0.5000 
     51 O           0.4159  -16.9485  -44.8801 O.2       4 UNK        -0.5000 
     52 CA          1.6509  -14.9237  -45.1247 C.3       4 UNK         0.1400 
     53 CB          2.4800  -15.3634  -46.3399 C.3       4 UNK        -0.1800 
     54 N           1.4466  -13.4760  -45.1623 N.am      4 UNK        -0.5000 
     55 C           1.1464  -12.7289  -44.0889 C.2       3 UNK         0.5000 
     56 O           1.0196  -13.1935  -42.9554 O.2       3 UNK        -0.5000 
     57 CA          0.9160  -11.2200  -44.3155 C.3       3 UNK         0.1400 
     58 CB          2.1831  -10.4257  -43.9647 C.3       3 UNK        -0.1800 
     59 N           0.5019  -10.8771  -45.6789 N.am      3 UNK        -0.5000 
     60 C          -0.6251  -11.2973  -46.2684 C.2       2 UNK         0.5000 
     61 O          -1.4503  -12.0217  -45.7092 O.2       2 UNK        -0.5000 
     62 CA         -0.8581  -10.8951  -47.7394 C.3       2 UNK         0.1400 
     63 CB          0.1994   -9.9274  -48.3174 C.3       2 UNK        -0.1800 
     64 N          -0.9858  -12.0858  -48.5825 N.am      2 UNK        -0.5000 
     65 C          -0.0920  -13.0720  -48.7418 C.2       1 UNK         0.5000 
     66 O           1.0342  -13.0532  -48.2439 O.2       1 UNK        -0.5000 
     67 C           3.1231  -24.2446  -46.6652 C.2       11 UNK         0.5000 
     68 O           3.7165  -24.5852  -47.6889 O.2       11 UNK        -0.5000 
     69 N           2.0611  -24.8913  -46.1548 N.am      12 UNK        -0.5000 
     70 CA          1.2852  -25.9705  -46.7745 C.3       12 UNK         0.1400 
     71 CB          2.1333  -27.2471  -46.9501 C.3       12 UNK        -0.1800 
     72 C           0.6134  -25.4873  -48.0769 C.2       12 UNK         0.5000 
     73 O           0.6369  -26.1821  -49.0941 O.2       12 UNK        -0.5000 
     74 N           0.0577  -24.2696  -48.0160 N.am      13 UNK        -0.5000 
     75 CA         -0.4787  -23.5328  -49.1582 C.3       13 UNK         0.1400 
     76 CB         -0.5604  -22.0486  -48.7814 C.3       13 UNK        -0.1800 
     77 C          -1.8461  -24.0392  -49.6475 C.2       13 UNK         0.5000 
     78 O          -2.1949  -23.7781  -50.7985 O.2       13 UNK        -0.5000 
     79 N          -2.5817  -24.7493  -48.7767 N.am      14 UNK        -0.5000 
     80 CA         -3.9355  -25.2751  -48.9841 C.3       14 UNK         0.1400 
     81 CB         -3.9467  -26.3534  -50.0883 C.3       14 UNK        -0.1800 
     82 C          -4.9414  -24.1343  -49.2383 C.2       14 UNK         0.5000 
     83 O          -5.3955  -23.9510  -50.3678 O.2       14 UNK        -0.5000 
     84 N          -5.2318  -23.3899  -48.1616 N.am      15 UNK        -0.5000 
     85 CA         -5.9757  -22.1250  -48.0860 C.3       15 UNK         0.1400 
     86 CB         -7.2683  -22.1218  -48.9341 C.3       15 UNK        -0.1800 
     87 C          -5.0653  -20.9099  -48.3533 C.2       15 UNK         0.5000 
     88 O          -3.8482  -21.0594  -48.4755 O.2       15 UNK        -0.5000 
     89 N          -5.6687  -19.7180  -48.3775 N.am      16 UNK        -0.5000 
     90 CA         -5.0037  -18.4262  -48.5183 C.3       16 UNK         0.1400 
     91 CB         -4.6004  -17.9021  -47.1273 C.3       16 UNK        -0.1800 
     92 C          -5.9342  -17.4503  -49.2545 C.2       16 UNK         0.5000 
     93 O          -6.9778  -17.8700  -49.7568 O.2       16 UNK        -0.5000 
     94 N          -5.5425  -16.1690  -49.3257 N.am      17 UNK        -0.5000 
     95 CA         -6.2899  -15.0674  -49.9521 C.3       17 UNK         0.1400 
     96 CB         -7.5773  -14.7606  -49.1580 C.3       17 UNK        -0.1800 
     97 C          -6.5473  -15.3088  -51.4550 C.2       17 UNK         0.5000 
     98 O          -7.6484  -15.0641  -51.9492 O.2       17 UNK        -0.5000 
     99 N          -5.5136  -15.8296  -52.1329 N.am      18 UNK        -0.5000 
    100 CA        -5.4636  -16.2429  -53.5409 C.3       18 UNK         0.1400 
    101 CB        -5.8512  -15.0930  -54.4945 C.3       18 UNK        -0.1800 
    102 C         -6.2269  -17.5482  -53.8572 C.2       18 UNK         0.5000 
    103 O         -6.2166  -17.9727  -55.0131 O.2       18 UNK        -0.5000 
    104 N         -6.8239  -18.2002  -52.8467 N.am      19 UNK        -0.5000 
    105 CA        -7.4211  -19.5354  -52.9698 C.3       19 UNK         0.1400 
    106 CB        -8.5762  -19.6784  -51.9650 C.3       19 UNK        -0.1800 
    107 C         -6.3850  -20.6636  -52.7775 C.2       19 UNK         0.5000 
    108 O         -6.7270  -21.8282  -52.9840 O.2       19 UNK        -0.5000 
    109 N         -5.1527  -20.3030  -52.3854 N.am      20 UNK        -0.5000 
    110 CA        -4.0003  -21.1893  -52.2182 C.3       20 UNK         0.1400 
    111 CB        -2.7928  -20.3476  -51.7749 C.3       20 UNK        -0.1800 
    112 C         -3.6501  -21.9551  -53.5072 C.2       20 UNK         0.5000 
    113 O         -3.7094  -21.3788  -54.5966 O.2       20 UNK        -0.5000 
    114 N         -3.2265  -23.2152  -53.3590 N.am      21 UNK        -0.5000 
    115 CA        -2.7999  -24.0899  -54.4549 C.3       21 UNK         0.1400 
    116 CB        -2.6068  -25.5159  -53.9180 C.3       21 UNK        -0.1800 
    117 C         -1.5208  -23.5920  -55.1546 C.2       21 UNK         0.5000 
    118 O         -1.3678  -23.7869  -56.3608 O.2       21 UNK        -0.5000 
    119 N         -0.6500  -22.9295  -54.3860 N.am      22 UNK        -0.5000 
    120 CA         0.5357  -22.2027  -54.8605 C.3       22 UNK         0.1400 
    121 C          0.2483  -20.7458  -55.3361 C.2       22 UNK         0.5000 
    122 N         -0.9905  -20.2654  -55.3433 N.am      22 UNK        -0.7600 
    123 O          1.1703  -20.0357  -55.7277 O.2       22 UNK        -0.5000 
    124 C124        1.6973  -22.2791  -53.8336 C.3       23 UNK        -0.0398 
    125 S125        1.2334  -21.8046  -52.1316 S.3       23 UNK        -0.2404 
    126 C126        1.9059  -20.1194  -52.0251 C.3       23 UNK        -0.0205 
    127 H127       -2.7504  -12.2712  -52.6385 H         1 UNK         0.0600 
    128 H128       -4.1948  -13.2014  -52.2362 H         1 UNK         0.0600 
    129 H129       -2.7995  -14.0136  -52.9499 H         1 UNK         0.0600 
    130 H130       -0.7945  -14.0917  -51.6491 H         1 UNK         0.3000 
    131 H131        0.3910  -14.7545  -49.9497 H         1 UNK         0.0600 
    132 H132       -0.5127  -15.6369  -47.8703 H         1 UNK         0.0800 
    133 H133       -2.0680  -14.9003  -48.1429 H         1 UNK         0.0800 
    134 H134       -1.0892  -17.8598  -47.4249 H         1 UNK         0.0800 
    135 H135       -1.7478  -19.0354  -48.5286 H         1 UNK         0.0800 
    136 H136       -0.3390  -19.0767  -50.9138 H         1 UNK         0.1150 
    137 H137        3.7490  -19.9716  -50.0216 H         1 UNK         0.1150 
    138 H138        1.2293  -18.2529  -47.0078 H         1 UNK         0.1150 
    139 H139        4.6849  -19.5337  -47.9172 H         1 UNK         0.0800 
    140 H140        4.0416  -18.1173  -47.1354 H         1 UNK         0.0800 
    141 H141        1.8924  -21.7859  -46.6687 H         1 UNK         0.0800 
    142 H142        3.2904  -21.7542  -47.7052 H         1 UNK         0.0800 
    143 H143        4.6629  -22.9130  -45.9903 H         1 UNK         0.0600 
    144 H144        2.5421  -22.3057  -44.1838 H         1 UNK         0.3000 
    145 H145        3.1746  -24.8650  -41.7841 H         1 UNK         0.0600 
    146 H146        3.2639  -22.8727  -40.2796 H         1 UNK         0.0600 
    147 H147        3.6773  -21.8430  -41.6498 H         1 UNK         0.0600 
    148 H148        4.7811  -23.1082  -41.1335 H         1 UNK         0.0600 
    149 H149        1.3645  -22.5913  -42.2421 H         1 UNK         0.3000 
    150 H150       -1.2883  -24.5913  -43.4898 H         1 UNK         0.0600 
    151 H151       -1.4937  -25.0289  -41.0395 H         1 UNK         0.0600 
    152 H152       -2.5507  -23.7192  -41.5417 H         1 UNK         0.0600 
    153 H153       -1.0472  -23.3629  -40.6905 H         1 UNK         0.0600 
    154 H154       -1.0915  -21.8480  -42.6325 H         1 UNK         0.3000 
    155 H155        0.1361  -20.5181  -45.6735 H         1 UNK         0.0600 
    156 H156       -2.3062  -20.8841  -46.1614 H         1 UNK         0.0600 
    157 H157       -1.9556  -19.2370  -45.6622 H         1 UNK         0.0600 
    158 H158       -2.6994  -20.3608  -44.5297 H         1 UNK         0.0600 
    159 H159       -0.7400  -19.0015  -43.6069 H         1 UNK         0.3000 
    160 H160        1.3919  -19.2196  -41.0574 H         1 UNK         0.0600 
    161 H161        2.5971  -17.6814  -43.4192 H         1 UNK         0.0600 
    162 H162        3.4381  -18.8100  -42.3685 H         1 UNK         0.0600 
    163 H163        2.8549  -17.2857  -41.7191 H         1 UNK         0.0600 
    164 H164        0.2324  -17.1041  -42.8017 H         1 UNK         0.3000 
    165 H165       -2.6990  -16.8198  -40.9672 H         1 UNK         0.0600 
    166 H166       -2.0621  -14.5288  -40.2445 H         1 UNK         0.0600 
    167 H167       -1.3224  -15.7249  -39.1928 H         1 UNK         0.0600 
    168 H168       -0.3517  -14.9215  -40.4218 H         1 UNK         0.0600 
    169 H169       -1.2169  -15.0149  -42.6967 H         1 UNK         0.3000 
    170 H170       -2.2058  -16.4980  -45.7459 H         1 UNK         0.0600 
    171 H171       -3.2352  -13.9054  -44.4747 H         1 UNK         0.0600 
    172 H172       -3.1741  -14.2443  -46.2005 H         1 UNK         0.0600 
    173 H173       -4.2401  -15.1758  -45.1623 H         1 UNK         0.0600 
    174 H174       -0.8335  -14.0746  -45.2320 H         1 UNK         0.3000 
    175 H175        2.2313  -15.1613  -44.2306 H         1 UNK         0.0600 
    176 H176        1.9166  -15.2925  -47.2696 H         1 UNK         0.0600 
    177 H177        3.3852  -14.7654  -46.4446 H         1 UNK         0.0600 
    178 H178        2.7895  -16.4020  -46.2295 H         1 UNK         0.0600 
    179 H179        1.4942  -13.0367  -46.0744 H         1 UNK         0.3000 
    180 H180        0.1182  -10.9087  -43.6380 H         1 UNK         0.0600 
    181 H181        2.0087   -9.3519  -44.0349 H         1 UNK         0.0600 
    182 H182        3.0115  -10.6768  -44.6284 H         1 UNK         0.0600 
    183 H183        2.5056  -10.6346  -42.9437 H         1 UNK         0.0600 
    184 H184        1.1412  -10.3091  -46.2155 H         1 UNK         0.3000 
    185 H185       -1.8237  -10.3884  -47.7682 H         1 UNK         0.0600 
    186 H186       -0.0475   -9.6547  -49.3435 H         1 UNK         0.0600 
    187 H187        0.2408   -9.0006  -47.7438 H         1 UNK         0.0600 
    188 H188        1.2000  -10.3608  -48.3268 H         1 UNK         0.0600 
    189 H189       -1.9043  -12.2426  -48.9894 H         1 UNK         0.3000 
    190 H190        1.6430  -24.4902  -45.3263 H         1 UNK         0.3000 
    191 H191        0.4776  -26.2044  -46.0793 H         1 UNK         0.0600 
    192 H192        1.5144  -28.0809  -47.2831 H         1 UNK         0.0600 
    193 H193        2.5977  -27.5426  -46.0093 H         1 UNK         0.0600 
    194 H194        2.9245  -27.1151  -47.6883 H         1 UNK         0.0600 
    195 H195        0.0502  -23.7842  -47.1220 H         1 UNK         0.3000 
    196 H196        0.2204  -23.6361  -49.9899 H         1 UNK         0.0600 
    197 H197       -0.9872  -21.4607  -49.5928 H         1 UNK         0.0600 
    198 H198        0.4270  -21.6392  -48.5714 H         1 UNK         0.0600 
    199 H199       -1.1873  -21.8920  -47.9052 H         1 UNK         0.0600 
    200 H200       -2.1887  -24.8921  -47.8579 H         1 UNK         0.3000 
    201 H201       -4.2296  -25.7633  -48.0536 H         1 UNK         0.0600 
    202 H202       -3.6801  -25.9466  -51.0632 H         1 UNK         0.0600 
    203 H203       -4.9372  -26.7993  -50.1834 H         1 UNK         0.0600 
    204 H204       -3.2471  -27.1574  -49.8601 H         1 UNK         0.0600 
    205 H205       -4.7531  -23.6296  -47.3054 H         1 UNK         0.3000 
    206 H206       -6.2805  -22.0410  -47.0419 H         1 UNK         0.0600 
    207 H207       -7.8307  -23.0462  -48.8031 H         1 UNK         0.0600 
    208 H208       -7.9287  -21.3037  -48.6456 H         1 UNK         0.0600 
    209 H209       -7.0566  -22.0043  -49.9972 H         1 UNK         0.0600 
    210 H210       -6.6784  -19.6654  -48.3538 H         1 UNK         0.3000 
    211 H211       -4.1151  -18.5495  -49.1371 H         1 UNK         0.0600 
    212 H212       -5.4735  -17.6853  -46.5107 H         1 UNK         0.0600 
    213 H213       -4.0132  -16.9878  -47.2028 H         1 UNK         0.0600 
    214 H214       -3.9930  -18.6305  -46.5935 H         1 UNK         0.0600 
    215 H215       -4.6595  -15.9088  -48.9092 H         1 UNK         0.3000 
    216 H216       -5.6571  -14.1828  -49.8908 H         1 UNK         0.0600 
    217 H217       -8.0680  -13.8653  -49.5415 H         1 UNK         0.0600 
    218 H218       -7.3570  -14.5827  -48.1055 H         1 UNK         0.0600 
    219 H219       -8.2972  -15.5774  -49.2167 H         1 UNK         0.0600 
    220 H220       -4.6694  -16.0069  -51.6073 H         1 UNK         0.3000 
    221 H221       -4.4139  -16.4706  -53.7321 H         1 UNK         0.0600 
    222 H222       -5.6279  -15.3545  -55.5294 H         1 UNK         0.0600 
    223 H223       -6.9152  -14.8616  -54.4452 H         1 UNK         0.0600 
    224 H224       -5.2971  -14.1830  -54.2666 H         1 UNK         0.0600 
    225 H225       -6.8297  -17.7924  -51.9191 H         1 UNK         0.3000 
    226 H226       -7.8426  -19.6473  -53.9709 H         1 UNK         0.0600 
    227 H227       -9.2646  -18.8353  -52.0251 H         1 UNK         0.0600 
    228 H228       -9.1512  -20.5831  -52.1655 H         1 UNK         0.0600 
    229 H229       -8.2169  -19.7503  -50.9392 H         1 UNK         0.0600 
    230 H230       -4.9763  -19.3186  -52.2693 H         1 UNK         0.3000 
    231 H231       -4.2365  -21.9042  -51.4301 H         1 UNK         0.0600 
    232 H232       -1.9015  -20.9686  -51.6810 H         1 UNK         0.0600 
    233 H233       -2.9650  -19.8825  -50.8051 H         1 UNK         0.0600 
    234 H234       -2.5632  -19.5588  -52.4923 H         1 UNK         0.0600 
    235 H235       -3.1032  -23.5756  -52.4139 H         1 UNK         0.3000 
    236 H236       -3.5976  -24.1090  -55.2002 H         1 UNK         0.0600 
    237 H237       -1.8596  -25.5490  -53.1238 H         1 UNK         0.0600 
    238 H238       -3.5396  -25.9138  -53.5187 H         1 UNK         0.0600 
    239 H239       -2.2784  -26.1916  -54.7087 H         1 UNK         0.0600 
    240 H240       -0.8609  -22.8218  -53.4039 H         1 UNK         0.3000 
    241 H241        0.8941  -22.7106  -55.7577 H         1 UNK         0.0600 
    242 H242       -1.1435  -19.3241  -55.6674 H         1 UNK         0.3800 
    243 H243       -1.7856  -20.8308  -55.0721 H         1 UNK         0.3800 
    244 H244        2.5588  -21.6967  -54.1645 H         1 UNK         0.0800 
    245 H245        2.0533  -23.3090  -53.7867 H         1 UNK         0.0800 
    246 H246        2.9616  -20.1267  -52.3004 H         1 UNK         0.0800 
    247 H247        1.3985  -19.4755  -52.7450 H         1 UNK         0.0800 
@<TRIPOS>BOND
     1    1    2 1    
     2    1  127 1    
     3    1  128 1    
     4    1  129 1    
     5    2    3 2    
     6    2    4 am   BACKBONE|DICT|INTERRES
     7    4    5 1    
     8    4  130 1    
     9    5    6 1    
    10    5   65 1    
    11    5  131 1    
    12    6    7 1    
    13    6  132 1    
    14    6  133 1    
    15    7    8 1    
    16    8    9 1    
    17    8  134 1    
    18    8  135 1    
    19    9   10 ar   
    20    9   14 ar   
    21   10   11 ar   
    22   10  136 1    
    23   11   12 ar   
    24   11  126 1    
    25   12   13 ar   
    26   12  137 1    
    27   13   14 ar   
    28   13   15 1    
    29   14  138 1    
    30   15   16 1    
    31   15  139 1    
    32   15  140 1    
    33   16   17 1    
    34   17   18 1    
    35   17  141 1    
    36   17  142 1    
    37   18   19 1    
    38   18   67 1    
    39   18  143 1    
    40   19   20 am   BACKBONE|DICT|INTERRES
    41   19  144 1    
    42   20   21 2    
    43   20   22 1    
    44   22   23 1    
    45   22   24 1    
    46   22  145 1    
    47   23  146 1    
    48   23  147 1    
    49   23  148 1    
    50   24   25 am   BACKBONE|DICT|INTERRES
    51   24  149 1    
    52   25   26 2    
    53   25   27 1    
    54   27   28 1    
    55   27   29 1    
    56   27  150 1    
    57   28  151 1    
    58   28  152 1    
    59   28  153 1    
    60   29   30 am   BACKBONE|DICT|INTERRES
    61   29  154 1    
    62   30   31 2    
    63   30   32 1    
    64   32   33 1    
    65   32   34 1    
    66   32  155 1    
    67   33  156 1    
    68   33  157 1    
    69   33  158 1    
    70   34   35 am   BACKBONE|DICT|INTERRES
    71   34  159 1    
    72   35   36 2    
    73   35   37 1    
    74   37   38 1    
    75   37   39 1    
    76   37  160 1    
    77   38  161 1    
    78   38  162 1    
    79   38  163 1    
    80   39   40 am   BACKBONE|DICT|INTERRES
    81   39  164 1    
    82   40   41 2    
    83   40   42 1    
    84   42   43 1    
    85   42   44 1    
    86   42  165 1    
    87   43  166 1    
    88   43  167 1    
    89   43  168 1    
    90   44   45 am   BACKBONE|DICT|INTERRES
    91   44  169 1    
    92   45   46 2    
    93   45   47 1    
    94   47   48 1    
    95   47   49 1    
    96   47  170 1    
    97   48  171 1    
    98   48  172 1    
    99   48  173 1    
   100   49   50 am   BACKBONE|DICT|INTERRES
   101   49  174 1    
   102   50   51 2    
   103   50   52 1    
   104   52   53 1    
   105   52   54 1    
   106   52  175 1    
   107   53  176 1    
   108   53  177 1    
   109   53  178 1    
   110   54   55 am   BACKBONE|DICT|INTERRES
   111   54  179 1    
   112   55   56 2    
   113   55   57 1    
   114   57   58 1    
   115   57   59 1    
   116   57  180 1    
   117   58  181 1    
   118   58  182 1    
   119   58  183 1    
   120   59   60 am   BACKBONE|DICT|INTERRES
   121   59  184 1    
   122   60   61 2    
   123   60   62 1    
   124   62   63 1    
   125   62   64 1    
   126   62  185 1    
   127   63  186 1    
   128   63  187 1    
   129   63  188 1    
   130   64   65 am   BACKBONE|DICT|INTERRES
   131   64  189 1    
   132   65   66 2    
   133   67   68 2    
   134   67   69 am   BACKBONE|DICT|INTERRES
   135   69   70 1    
   136   69  190 1    
   137   70   71 1    
   138   70   72 1    
   139   70  191 1    
   140   71  192 1    
   141   71  193 1    
   142   71  194 1    
   143   72   73 2    
   144   72   74 am   BACKBONE|DICT|INTERRES
   145   74   75 1    
   146   74  195 1    
   147   75   76 1    
   148   75   77 1    
   149   75  196 1    
   150   76  197 1    
   151   76  198 1    
   152   76  199 1    
   153   77   78 2    
   154   77   79 am   BACKBONE|DICT|INTERRES
   155   79   80 1    
   156   79  200 1    
   157   80   81 1    
   158   80   82 1    
   159   80  201 1    
   160   81  202 1    
   161   81  203 1    
   162   81  204 1    
   163   82   83 2    
   164   82   84 am   BACKBONE|DICT|INTERRES
   165   84   85 1    
   166   84  205 1    
   167   85   86 1    
   168   85   87 1    
   169   85  206 1    
   170   86  207 1    
   171   86  208 1    
   172   86  209 1    
   173   87   88 2    
   174   87   89 am   BACKBONE|DICT|INTERRES
   175   89   90 1    
   176   89  210 1    
   177   90   91 1    
   178   90   92 1    
   179   90  211 1    
   180   91  212 1    
   181   91  213 1    
   182   91  214 1    
   183   92   93 2    
   184   92   94 am   BACKBONE|DICT|INTERRES
   185   94   95 1    
   186   94  215 1    
   187   95   96 1    
   188   95   97 1    
   189   95  216 1    
   190   96  217 1    
   191   96  218 1    
   192   96  219 1    
   193   97   98 2    
   194   97   99 am   BACKBONE|DICT|INTERRES
   195   99  100 1    
   196   99  220 1    
   197  100  101 1    
   198  100  102 1    
   199  100  221 1    
   200  101  222 1    
   201  101  223 1    
   202  101  224 1    
   203  102  103 2    
   204  102  104 am   BACKBONE|DICT|INTERRES
   205  104  105 1    
   206  104  225 1    
   207  105  106 1    
   208  105  107 1    
   209  105  226 1    
   210  106  227 1    
   211  106  228 1    
   212  106  229 1    
   213  107  108 2    
   214  107  109 am   BACKBONE|DICT|INTERRES
   215  109  110 1    
   216  109  230 1    
   217  110  111 1    
   218  110  112 1    
   219  110  231 1    
   220  111  232 1    
   221  111  233 1    
   222  111  234 1    
   223  112  113 2    
   224  112  114 am   BACKBONE|DICT|INTERRES
   225  114  115 1    
   226  114  235 1    
   227  115  116 1    
   228  115  117 1    
   229  115  236 1    
   230  116  237 1    
   231  116  238 1    
   232  116  239 1    
   233  117  118 2    
   234  117  119 am   BACKBONE|DICT|INTERRES
   235  119  120 1    
   236  119  240 1    
   237  120  121 1    
   238  120  124 1    
   239  120  241 1    
   240  121  122 am   BACKBONE|DICT|INTERRES
   241  121  123 2    
   242  122  242 1    
   243  122  243 1    
   244  124  125 1    
   245  124  244 1    
   246  124  245 1    
   247  125  126 1    
   248  126  246 1    
   249  126  247 1    
@<TRIPOS>SUBSTRUCTURE
     1 UNK         1 GROUP             0       ****    0 ROOT    
