@<TRIPOS>MOLECULE
3R540
247   249    1
SMALL
USER_CHARGES


@<TRIPOS>ATOM
      1 CA          3.1101  -19.0649  -45.2014 C.3       0 UNK        -0.1800 
      2 C           3.4999  -17.5954  -45.1653 C.2       0 UNK         0.5000 
      3 O           3.5166  -17.0028  -44.0871 O.2       0 UNK        -0.5000 
      4 N           3.8380  -17.0057  -46.3222 N.am      1 UNK        -0.5000 
      5 CA          4.3449  -15.6312  -46.4694 C.3       1 UNK         0.1400 
      6 C6          4.2294  -15.1170  -47.9296 C.3       23 UNK        -0.0398 
      7 S7          2.5107  -14.7223  -48.3915 S.3       23 UNK        -0.2404 
      8 C8          2.5939  -14.7283  -50.2124 C.3       23 UNK        -0.0205 
      9 C9          1.8621  -15.9269  -50.7967 C.ar      23 UNK        -0.0193 
     10 C10         0.6611  -15.7592  -51.4949 C.ar      23 UNK        -0.1150 
     11 C11        -0.0250  -16.8664  -52.0059 C.ar      23 UNK        -0.0193 
     12 C12         0.4959  -18.1477  -51.8018 C.ar      23 UNK        -0.1150 
     13 C13         1.6828  -18.3296  -51.0889 C.ar      23 UNK        -0.0193 
     14 C14         2.3785  -17.2118  -50.6195 C.ar      23 UNK        -0.1150 
     15 C15         2.1684  -19.7384  -50.7721 C.3       23 UNK        -0.0205 
     16 S16         2.5537  -19.9706  -49.0025 S.3       23 UNK        -0.2404 
     17 C17         1.0621  -19.3127  -48.1740 C.3       23 UNK        -0.0398 
     18 CA          0.2917  -20.4012  -47.3955 C.3       11 UNK         0.1400 
     19 N          -0.3642  -19.8539  -46.2072 N.am      11 UNK        -0.5000 
     20 C          -0.9737  -20.5855  -45.2651 C.2       10 UNK         0.5000 
     21 O          -1.0421  -21.8141  -45.2855 O.2       10 UNK        -0.5000 
     22 CA         -1.6631  -19.8030  -44.1374 C.3       10 UNK         0.1400 
     23 CB         -0.6473  -19.3798  -43.0644 C.3       10 UNK        -0.1800 
     24 N          -2.3727  -18.6333  -44.6594 N.am      10 UNK        -0.5000 
     25 C          -3.5034  -18.7116  -45.3777 C.2       9 UNK         0.5000 
     26 O          -4.1068  -19.7649  -45.5854 O.2       9 UNK        -0.5000 
     27 CA         -4.0215  -17.4072  -46.0121 C.3       9 UNK         0.1400 
     28 CB         -4.9379  -16.6463  -45.0437 C.3       9 UNK        -0.1800 
     29 N          -2.9395  -16.5302  -46.4658 N.am      9 UNK        -0.5000 
     30 C          -2.1511  -16.8114  -47.5144 C.2       8 UNK         0.5000 
     31 O          -2.2624  -17.8309  -48.1880 O.2       8 UNK        -0.5000 
     32 CA         -1.0159  -15.8300  -47.8479 C.3       8 UNK         0.1400 
     33 CB         -1.4958  -14.7727  -48.8523 C.3       8 UNK        -0.1800 
     34 N          -0.4523  -15.1637  -46.6767 N.am      8 UNK        -0.5000 
     35 C           0.1153  -15.7772  -45.6305 C.2       7 UNK         0.5000 
     36 O           0.1879  -17.0029  -45.5157 O.2       7 UNK        -0.5000 
     37 CA          0.6630  -14.8719  -44.5082 C.3       7 UNK         0.1400 
     38 CB          0.7871  -13.3838  -44.9021 C.3       7 UNK        -0.1800 
     39 N          -0.0990  -14.9884  -43.2640 N.am      7 UNK        -0.5000 
     40 C          -1.4277  -14.8805  -43.0981 C.2       6 UNK         0.5000 
     41 O          -2.2282  -14.7423  -44.0243 O.2       6 UNK        -0.5000 
     42 CA         -1.9614  -14.9248  -41.6505 C.3       6 UNK         0.1400 
     43 CB         -2.6005  -16.2867  -41.3434 C.3       6 UNK        -0.1800 
     44 N          -0.9328  -14.6574  -40.6438 N.am      6 UNK        -0.5000 
     45 C          -0.3856  -13.4588  -40.3986 C.2       5 UNK         0.5000 
     46 O          -0.7527  -12.4149  -40.9386 O.2       5 UNK        -0.5000 
     47 CA          0.7867  -13.4284  -39.3976 C.3       5 UNK         0.1400 
     48 CB          0.2877  -13.0446  -37.9962 C.3       5 UNK        -0.1800 
     49 N           1.5215  -14.6964  -39.3137 N.am      5 UNK        -0.5000 
     50 C           2.2563  -15.2204  -40.3040 C.2       4 UNK         0.5000 
     51 O           2.3694  -14.7058  -41.4179 O.2       4 UNK        -0.5000 
     52 CA          2.9402  -16.5673  -40.0155 C.3       4 UNK         0.1400 
     53 CB          2.2697  -17.6997  -40.8106 C.3       4 UNK        -0.1800 
     54 N           4.3686  -16.5143  -40.3307 N.am      4 UNK        -0.5000 
     55 C           5.2745  -15.8805  -39.5717 C.2       3 UNK         0.5000 
     56 O           4.9873  -15.2846  -38.5321 O.2       3 UNK        -0.5000 
     57 CA          6.7515  -15.9376  -40.0092 C.3       3 UNK         0.1400 
     58 CB          7.4971  -17.0271  -39.2222 C.3       3 UNK        -0.1800 
     59 N           6.9517  -16.1740  -41.4400 N.am      3 UNK        -0.5000 
     60 C           6.7933  -15.2495  -42.3956 C.2       2 UNK         0.5000 
     61 O           6.3826  -14.1088  -42.1772 O.2       2 UNK        -0.5000 
     62 CA          7.1538  -15.6514  -43.8358 C.3       2 UNK         0.1400 
     63 CB          7.8851  -17.0061  -43.9630 C.3       2 UNK        -0.1800 
     64 N           5.9205  -15.6777  -44.6046 N.am      2 UNK        -0.5000 
     65 C           5.7891  -15.5192  -45.9233 C.2       1 UNK         0.5000 
     66 O           6.7375  -15.3231  -46.6857 O.2       1 UNK        -0.5000 
     67 C          -0.6980  -21.1566  -48.3054 C.2       11 UNK         0.5000 
     68 O          -0.3979  -22.2681  -48.7373 O.2       11 UNK        -0.5000 
     69 N          -1.8807  -20.5670  -48.5301 N.am      12 UNK        -0.5000 
     70 CA         -2.9811  -21.1454  -49.2977 C.3       12 UNK         0.1400 
     71 CB         -4.1125  -20.1165  -49.4300 C.3       12 UNK        -0.1800 
     72 C          -3.5200  -22.4514  -48.6952 C.2       12 UNK         0.5000 
     73 O          -3.8641  -23.3615  -49.4487 O.2       12 UNK        -0.5000 
     74 N          -3.5688  -22.5301  -47.3595 N.am      13 UNK        -0.5000 
     75 CA         -3.9454  -23.7377  -46.6296 C.3       13 UNK         0.1400 
     76 CB         -4.2665  -23.3785  -45.1709 C.3       13 UNK        -0.1800 
     77 C          -2.8531  -24.8196  -46.7098 C.2       13 UNK         0.5000 
     78 O          -3.1709  -25.9824  -46.9592 O.2       13 UNK        -0.5000 
     79 N          -1.5895  -24.4153  -46.5170 N.am      14 UNK        -0.5000 
     80 CA         -0.4170  -25.2916  -46.5336 C.3       14 UNK         0.1400 
     81 CB          0.8045  -24.5174  -46.0137 C.3       14 UNK        -0.1800 
     82 C          -0.1265  -25.8979  -47.9187 C.2       14 UNK         0.5000 
     83 O           0.1187  -27.1008  -48.0170 O.2       14 UNK        -0.5000 
     84 N          -0.1654  -25.0594  -48.9620 N.am      15 UNK        -0.5000 
     85 CA          0.0928  -25.4470  -50.3509 C.3       15 UNK         0.1400 
     86 CB          0.5783  -24.2094  -51.1248 C.3       15 UNK        -0.1800 
     87 C          -1.1362  -26.0590  -51.0502 C.2       15 UNK         0.5000 
     88 O          -0.9931  -26.5906  -52.1514 O.2       15 UNK        -0.5000 
     89 N          -2.3181  -25.9332  -50.4270 N.am      16 UNK        -0.5000 
     90 CA         -3.6496  -26.2822  -50.9410 C.3       16 UNK         0.1400 
     91 CB         -3.7636  -27.7885  -51.2524 C.3       16 UNK        -0.1800 
     92 C          -4.1064  -25.3914  -52.1187 C.2       16 UNK         0.5000 
     93 O          -5.0608  -25.7351  -52.8181 O.2       16 UNK        -0.5000 
     94 N          -3.4536  -24.2318  -52.2878 N.am      17 UNK        -0.5000 
     95 CA         -3.7757  -23.2064  -53.2804 C.3       17 UNK         0.1400 
     96 CB         -2.5907  -22.2386  -53.4209 C.3       17 UNK        -0.1800 
     97 C          -5.0777  -22.4443  -52.9684 C.2       17 UNK         0.5000 
     98 O          -5.5803  -21.7410  -53.8440 O.2       17 UNK        -0.5000 
     99 N          -5.6336  -22.6164  -51.7586 N.am      18 UNK        -0.5000 
    100 CA        -6.9465  -22.1099  -51.3436 C.3       18 UNK         0.1400 
    101 CB        -7.2150  -22.5240  -49.8882 C.3       18 UNK        -0.1800 
    102 C         -8.1003  -22.5801  -52.2514 C.2       18 UNK         0.5000 
    103 O         -9.0395  -21.8182  -52.4807 O.2       18 UNK        -0.5000 
    104 N         -7.9752  -23.7937  -52.8091 N.am      19 UNK        -0.5000 
    105 CA        -8.8933  -24.3655  -53.7983 C.3       19 UNK         0.1400 
    106 CB        -8.5379  -25.8462  -54.0017 C.3       19 UNK        -0.1800 
    107 C         -8.8899  -23.6202  -55.1508 C.2       19 UNK         0.5000 
    108 O         -9.8672  -23.7137  -55.8939 O.2       19 UNK        -0.5000 
    109 N         -7.8061  -22.8868  -55.4350 N.am      20 UNK        -0.5000 
    110 CA        -7.6237  -22.0373  -56.6108 C.3       20 UNK         0.1400 
    111 CB        -6.2801  -22.4044  -57.2661 C.3       20 UNK        -0.1800 
    112 C         -7.6707  -20.5406  -56.2377 C.2       20 UNK         0.5000 
    113 O         -7.2559  -19.7072  -57.0448 O.2       20 UNK        -0.5000 
    114 N         -8.1333  -20.2187  -55.0175 N.am      21 UNK        -0.5000 
    115 CA        -8.2241  -18.8779  -54.4249 C.3       21 UNK         0.1400 
    116 CB        -9.3313  -18.0590  -55.1201 C.3       21 UNK        -0.1800 
    117 C         -6.8686  -18.1362  -54.3742 C.2       21 UNK         0.5000 
    118 O         -6.8183  -16.9217  -54.5765 O.2       21 UNK        -0.5000 
    119 N         -5.7913  -18.8915  -54.1207 N.am      22 UNK        -0.5000 
    120 CA        -4.3848  -18.4567  -54.1596 C.3       22 UNK         0.1400 
    121 C         -3.8177  -18.2396  -55.5982 C.2       22 UNK         0.5000 
    122 N         -4.5322  -18.5784  -56.6656 N.am      22 UNK        -0.7600 
    123 O         -2.6910  -17.7817  -55.7596 O.2       22 UNK        -0.5000 
    124 C124       -4.0723  -17.2736  -53.1871 C.3       23 UNK        -0.0398 
    125 S125       -2.6952  -17.6269  -52.0434 S.3       23 UNK        -0.2404 
    126 C126       -1.3228  -16.6850  -52.7830 C.3       23 UNK        -0.0205 
    127 H127        3.3247  -19.5192  -46.1674 H         1 UNK         0.0600 
    128 H128        2.0476  -19.1734  -44.9898 H         1 UNK         0.0600 
    129 H129        3.6641  -19.6163  -44.4419 H         1 UNK         0.0600 
    130 H130        3.8187  -17.5505  -47.1717 H         1 UNK         0.3000 
    131 H131        3.7338  -14.9766  -45.8439 H         1 UNK         0.0600 
    132 H132        4.8017  -14.1974  -48.0658 H         1 UNK         0.0800 
    133 H133        4.6484  -15.8443  -48.6266 H         1 UNK         0.0800 
    134 H134        2.1554  -13.7994  -50.5801 H         1 UNK         0.0800 
    135 H135        3.6304  -14.7287  -50.5521 H         1 UNK         0.0800 
    136 H136        0.2580  -14.7664  -51.6367 H         1 UNK         0.1150 
    137 H137       -0.0445  -19.0061  -52.1756 H         1 UNK         0.1150 
    138 H138        3.2981  -17.3456  -50.0684 H         1 UNK         0.1150 
    139 H139        1.4205  -20.4794  -51.0597 H         1 UNK         0.0800 
    140 H140        3.0604  -19.9498  -51.3628 H         1 UNK         0.0800 
    141 H141        1.4110  -18.5354  -47.4941 H         1 UNK         0.0800 
    142 H142        0.4045  -18.7936  -48.8719 H         1 UNK         0.0800 
    143 H143        1.0119  -21.1336  -47.0241 H         1 UNK         0.0600 
    144 H144       -0.3322  -18.8463  -46.0873 H         1 UNK         0.3000 
    145 H145       -2.3878  -20.4722  -43.6684 H         1 UNK         0.0600 
    146 H146       -0.0238  -20.2221  -42.7616 H         1 UNK         0.0600 
    147 H147        0.0187  -18.5904  -43.4130 H         1 UNK         0.0600 
    148 H148       -1.1538  -19.0254  -42.1691 H         1 UNK         0.0600 
    149 H149       -1.8996  -17.7427  -44.5935 H         1 UNK         0.3000 
    150 H150       -4.6178  -17.6839  -46.8844 H         1 UNK         0.0600 
    151 H151       -5.7666  -17.2750  -44.7156 H         1 UNK         0.0600 
    152 H152       -5.3672  -15.7644  -45.5194 H         1 UNK         0.0600 
    153 H153       -4.4034  -16.3181  -44.1538 H         1 UNK         0.0600 
    154 H154       -2.7496  -15.7045  -45.9088 H         1 UNK         0.3000 
    155 H155       -0.2133  -16.4029  -48.3168 H         1 UNK         0.0600 
    156 H156       -0.6755  -14.1266  -49.1656 H         1 UNK         0.0600 
    157 H157       -2.2806  -14.1432  -48.4314 H         1 UNK         0.0600 
    158 H158       -1.8972  -15.2444  -49.7506 H         1 UNK         0.0600 
    159 H159       -0.4893  -14.1554  -46.6738 H         1 UNK         0.3000 
    160 H160        1.6661  -15.2318  -44.2859 H         1 UNK         0.0600 
    161 H161       -0.1846  -12.9208  -45.0778 H         1 UNK         0.0600 
    162 H162        1.3894  -13.2605  -45.8031 H         1 UNK         0.0600 
    163 H163        1.2796  -12.8176  -44.1111 H         1 UNK         0.0600 
    164 H164        0.4743  -15.0892  -42.4361 H         1 UNK         0.3000 
    165 H165       -2.7354  -14.1588  -41.5690 H         1 UNK         0.0600 
    166 H166       -1.8524  -17.0764  -41.3078 H         1 UNK         0.0600 
    167 H167       -3.1125  -16.2705  -40.3812 H         1 UNK         0.0600 
    168 H168       -3.3382  -16.5628  -42.0964 H         1 UNK         0.0600 
    169 H169       -0.5780  -15.4536  -40.1354 H         1 UNK         0.3000 
    170 H170        1.4838  -12.6584  -39.7351 H         1 UNK         0.0600 
    171 H171       -0.2407  -12.0904  -38.0173 H         1 UNK         0.0600 
    172 H172       -0.3987  -13.7909  -37.5945 H         1 UNK         0.0600 
    173 H173        1.1174  -12.9388  -37.2969 H         1 UNK         0.0600 
    174 H174        1.4816  -15.1778  -38.4266 H         1 UNK         0.3000 
    175 H175        2.8339  -16.8012  -38.9539 H         1 UNK         0.0600 
    176 H176        2.2966  -17.5147  -41.8838 H         1 UNK         0.0600 
    177 H177        2.7550  -18.6575  -40.6231 H         1 UNK         0.0600 
    178 H178        1.2216  -17.8062  -40.5281 H         1 UNK         0.0600 
    179 H179        4.6629  -16.9393  -41.1975 H         1 UNK         0.3000 
    180 H180        7.2007  -14.9749  -39.7554 H         1 UNK         0.0600 
    181 H181        7.1070  -18.0215  -39.4430 H         1 UNK         0.0600 
    182 H182        7.4015  -16.8687  -38.1471 H         1 UNK         0.0600 
    183 H183        8.5621  -17.0238  -39.4551 H         1 UNK         0.0600 
    184 H184        7.2846  -17.0900  -41.7041 H         1 UNK         0.3000 
    185 H185        7.8036  -14.8669  -44.2291 H         1 UNK         0.0600 
    186 H186        8.1847  -17.1914  -44.9946 H         1 UNK         0.0600 
    187 H187        8.7952  -17.0229  -43.3619 H         1 UNK         0.0600 
    188 H188        7.2559  -17.8407  -43.6515 H         1 UNK         0.0600 
    189 H189        5.0759  -15.8845  -44.0765 H         1 UNK         0.3000 
    190 H190       -2.0274  -19.6152  -48.1979 H         1 UNK         0.3000 
    191 H191       -2.5995  -21.3703  -50.2929 H         1 UNK         0.0600 
    192 H192       -4.9096  -20.4864  -50.0712 H         1 UNK         0.0600 
    193 H193       -3.7556  -19.1906  -49.8758 H         1 UNK         0.0600 
    194 H194       -4.5503  -19.8711  -48.4617 H         1 UNK         0.0600 
    195 H195       -3.2870  -21.7289  -46.8104 H         1 UNK         0.3000 
    196 H196       -4.8528  -24.1431  -47.0830 H         1 UNK         0.0600 
    197 H197       -4.5822  -24.2608  -44.6129 H         1 UNK         0.0600 
    198 H198       -5.0759  -22.6502  -45.1149 H         1 UNK         0.0600 
    199 H199       -3.4034  -22.9561  -44.6563 H         1 UNK         0.0600 
    200 H200       -1.4202  -23.4413  -46.2814 H         1 UNK         0.3000 
    201 H201       -0.6099  -26.1172  -45.8454 H         1 UNK         0.0600 
    202 H202        0.6406  -24.1603  -44.9969 H         1 UNK         0.0600 
    203 H203        1.0287  -23.6522  -46.6385 H         1 UNK         0.0600 
    204 H204        1.6922  -25.1509  -45.9974 H         1 UNK         0.0600 
    205 H205       -0.3388  -24.0685  -48.7954 H         1 UNK         0.3000 
    206 H206        0.8896  -26.1935  -50.3700 H         1 UNK         0.0600 
    207 H207        1.4528  -23.7639  -50.6500 H         1 UNK         0.0600 
    208 H208        0.8605  -24.4705  -52.1455 H         1 UNK         0.0600 
    209 H209       -0.1951  -23.4427  -51.1856 H         1 UNK         0.0600 
    210 H210       -2.3174  -25.4703  -49.5279 H         1 UNK         0.3000 
    211 H211       -4.3415  -26.0682  -50.1252 H         1 UNK         0.0600 
    212 H212       -3.1745  -28.0709  -52.1250 H         1 UNK         0.0600 
    213 H213       -4.7981  -28.0663  -51.4573 H         1 UNK         0.0600 
    214 H214       -3.4279  -28.3918  -50.4089 H         1 UNK         0.0600 
    215 H215       -2.7270  -24.0104  -51.6237 H         1 UNK         0.3000 
    216 H216       -3.9194  -23.7041  -54.2416 H         1 UNK         0.0600 
    217 H217       -2.7604  -21.5346  -54.2364 H         1 UNK         0.0600 
    218 H218       -1.6679  -22.7739  -53.6457 H         1 UNK         0.0600 
    219 H219       -2.4280  -21.6547  -52.5165 H         1 UNK         0.0600 
    220 H220       -5.1246  -23.1661  -51.0749 H         1 UNK         0.3000 
    221 H221       -6.9150  -21.0198  -51.3953 H         1 UNK         0.0600 
    222 H222       -7.1844  -23.6075  -49.7668 H         1 UNK         0.0600 
    223 H223       -6.4833  -22.0922  -49.2068 H         1 UNK         0.0600 
    224 H224       -8.1978  -22.1837  -49.5590 H         1 UNK         0.0600 
    225 H225       -7.1578  -24.3457  -52.5848 H         1 UNK         0.3000 
    226 H226       -9.9057  -24.3067  -53.3938 H         1 UNK         0.0600 
    227 H227       -8.6062  -26.4010  -53.0658 H         1 UNK         0.0600 
    228 H228       -9.2194  -26.3194  -54.7099 H         1 UNK         0.0600 
    229 H229       -7.5252  -25.9661  -54.3891 H         1 UNK         0.0600 
    230 H230       -7.0621  -22.8304  -54.7492 H         1 UNK         0.3000 
    231 H231       -8.4189  -22.2119  -57.3378 H         1 UNK         0.0600 
    232 H232       -6.1266  -21.8474  -58.1911 H         1 UNK         0.0600 
    233 H233       -6.2418  -23.4642  -57.5184 H         1 UNK         0.0600 
    234 H234       -5.4385  -22.1861  -56.6074 H         1 UNK         0.0600 
    235 H235       -8.4406  -20.9729  -54.4159 H         1 UNK         0.3000 
    236 H236       -8.5255  -19.0245  -53.3868 H         1 UNK         0.0600 
    237 H237      -10.2786  -18.5982  -55.1199 H         1 UNK         0.0600 
    238 H238       -9.4994  -17.1114  -54.6071 H         1 UNK         0.0600 
    239 H239       -9.0757  -17.8304  -56.1553 H         1 UNK         0.0600 
    240 H240       -5.9189  -19.8944  -54.0117 H         1 UNK         0.3000 
    241 H241       -3.8469  -19.3346  -53.8016 H         1 UNK         0.0600 
    242 H242       -5.4742  -18.9457  -56.5855 H         1 UNK         0.3800 
    243 H243       -4.1362  -18.4368  -57.5810 H         1 UNK         0.3800 
    244 H244       -3.8880  -16.3414  -53.7239 H         1 UNK         0.0800 
    245 H245       -4.9322  -17.0645  -52.5501 H         1 UNK         0.0800 
    246 H246       -1.6005  -15.6312  -52.8328 H         1 UNK         0.0800 
    247 H247       -1.1606  -17.0169  -53.8081 H         1 UNK         0.0800 
@<TRIPOS>BOND
     1    1    2 1    
     2    1  127 1    
     3    1  128 1    
     4    1  129 1    
     5    2    3 2    
     6    2    4 am   BACKBONE|DICT|INTERRES
     7    4    5 1    
     8    4  130 1    
     9    5    6 1    
    10    5   65 1    
    11    5  131 1    
    12    6    7 1    
    13    6  132 1    
    14    6  133 1    
    15    7    8 1    
    16    8    9 1    
    17    8  134 1    
    18    8  135 1    
    19    9   10 ar   
    20    9   14 ar   
    21   10   11 ar   
    22   10  136 1    
    23   11   12 ar   
    24   11  126 1    
    25   12   13 ar   
    26   12  137 1    
    27   13   14 ar   
    28   13   15 1    
    29   14  138 1    
    30   15   16 1    
    31   15  139 1    
    32   15  140 1    
    33   16   17 1    
    34   17   18 1    
    35   17  141 1    
    36   17  142 1    
    37   18   19 1    
    38   18   67 1    
    39   18  143 1    
    40   19   20 am   BACKBONE|DICT|INTERRES
    41   19  144 1    
    42   20   21 2    
    43   20   22 1    
    44   22   23 1    
    45   22   24 1    
    46   22  145 1    
    47   23  146 1    
    48   23  147 1    
    49   23  148 1    
    50   24   25 am   BACKBONE|DICT|INTERRES
    51   24  149 1    
    52   25   26 2    
    53   25   27 1    
    54   27   28 1    
    55   27   29 1    
    56   27  150 1    
    57   28  151 1    
    58   28  152 1    
    59   28  153 1    
    60   29   30 am   BACKBONE|DICT|INTERRES
    61   29  154 1    
    62   30   31 2    
    63   30   32 1    
    64   32   33 1    
    65   32   34 1    
    66   32  155 1    
    67   33  156 1    
    68   33  157 1    
    69   33  158 1    
    70   34   35 am   BACKBONE|DICT|INTERRES
    71   34  159 1    
    72   35   36 2    
    73   35   37 1    
    74   37   38 1    
    75   37   39 1    
    76   37  160 1    
    77   38  161 1    
    78   38  162 1    
    79   38  163 1    
    80   39   40 am   BACKBONE|DICT|INTERRES
    81   39  164 1    
    82   40   41 2    
    83   40   42 1    
    84   42   43 1    
    85   42   44 1    
    86   42  165 1    
    87   43  166 1    
    88   43  167 1    
    89   43  168 1    
    90   44   45 am   BACKBONE|DICT|INTERRES
    91   44  169 1    
    92   45   46 2    
    93   45   47 1    
    94   47   48 1    
    95   47   49 1    
    96   47  170 1    
    97   48  171 1    
    98   48  172 1    
    99   48  173 1    
   100   49   50 am   BACKBONE|DICT|INTERRES
   101   49  174 1    
   102   50   51 2    
   103   50   52 1    
   104   52   53 1    
   105   52   54 1    
   106   52  175 1    
   107   53  176 1    
   108   53  177 1    
   109   53  178 1    
   110   54   55 am   BACKBONE|DICT|INTERRES
   111   54  179 1    
   112   55   56 2    
   113   55   57 1    
   114   57   58 1    
   115   57   59 1    
   116   57  180 1    
   117   58  181 1    
   118   58  182 1    
   119   58  183 1    
   120   59   60 am   BACKBONE|DICT|INTERRES
   121   59  184 1    
   122   60   61 2    
   123   60   62 1    
   124   62   63 1    
   125   62   64 1    
   126   62  185 1    
   127   63  186 1    
   128   63  187 1    
   129   63  188 1    
   130   64   65 am   BACKBONE|DICT|INTERRES
   131   64  189 1    
   132   65   66 2    
   133   67   68 2    
   134   67   69 am   BACKBONE|DICT|INTERRES
   135   69   70 1    
   136   69  190 1    
   137   70   71 1    
   138   70   72 1    
   139   70  191 1    
   140   71  192 1    
   141   71  193 1    
   142   71  194 1    
   143   72   73 2    
   144   72   74 am   BACKBONE|DICT|INTERRES
   145   74   75 1    
   146   74  195 1    
   147   75   76 1    
   148   75   77 1    
   149   75  196 1    
   150   76  197 1    
   151   76  198 1    
   152   76  199 1    
   153   77   78 2    
   154   77   79 am   BACKBONE|DICT|INTERRES
   155   79   80 1    
   156   79  200 1    
   157   80   81 1    
   158   80   82 1    
   159   80  201 1    
   160   81  202 1    
   161   81  203 1    
   162   81  204 1    
   163   82   83 2    
   164   82   84 am   BACKBONE|DICT|INTERRES
   165   84   85 1    
   166   84  205 1    
   167   85   86 1    
   168   85   87 1    
   169   85  206 1    
   170   86  207 1    
   171   86  208 1    
   172   86  209 1    
   173   87   88 2    
   174   87   89 am   BACKBONE|DICT|INTERRES
   175   89   90 1    
   176   89  210 1    
   177   90   91 1    
   178   90   92 1    
   179   90  211 1    
   180   91  212 1    
   181   91  213 1    
   182   91  214 1    
   183   92   93 2    
   184   92   94 am   BACKBONE|DICT|INTERRES
   185   94   95 1    
   186   94  215 1    
   187   95   96 1    
   188   95   97 1    
   189   95  216 1    
   190   96  217 1    
   191   96  218 1    
   192   96  219 1    
   193   97   98 2    
   194   97   99 am   BACKBONE|DICT|INTERRES
   195   99  100 1    
   196   99  220 1    
   197  100  101 1    
   198  100  102 1    
   199  100  221 1    
   200  101  222 1    
   201  101  223 1    
   202  101  224 1    
   203  102  103 2    
   204  102  104 am   BACKBONE|DICT|INTERRES
   205  104  105 1    
   206  104  225 1    
   207  105  106 1    
   208  105  107 1    
   209  105  226 1    
   210  106  227 1    
   211  106  228 1    
   212  106  229 1    
   213  107  108 2    
   214  107  109 am   BACKBONE|DICT|INTERRES
   215  109  110 1    
   216  109  230 1    
   217  110  111 1    
   218  110  112 1    
   219  110  231 1    
   220  111  232 1    
   221  111  233 1    
   222  111  234 1    
   223  112  113 2    
   224  112  114 am   BACKBONE|DICT|INTERRES
   225  114  115 1    
   226  114  235 1    
   227  115  116 1    
   228  115  117 1    
   229  115  236 1    
   230  116  237 1    
   231  116  238 1    
   232  116  239 1    
   233  117  118 2    
   234  117  119 am   BACKBONE|DICT|INTERRES
   235  119  120 1    
   236  119  240 1    
   237  120  121 1    
   238  120  124 1    
   239  120  241 1    
   240  121  122 am   BACKBONE|DICT|INTERRES
   241  121  123 2    
   242  122  242 1    
   243  122  243 1    
   244  124  125 1    
   245  124  244 1    
   246  124  245 1    
   247  125  126 1    
   248  126  246 1    
   249  126  247 1    
@<TRIPOS>SUBSTRUCTURE
     1 UNK         1 GROUP             0       ****    0 ROOT    
