@<TRIPOS>MOLECULE
3R540
247   249    1
SMALL
USER_CHARGES


@<TRIPOS>ATOM
      1 CA         -2.0506   -8.1103  -46.9774 C.3       0 UNK        -0.1800 
      2 C          -0.8170   -8.8018  -47.5411 C.2       0 UNK         0.5000 
      3 O           0.1555   -8.1321  -47.8911 O.2       0 UNK        -0.5000 
      4 N          -0.8569  -10.1354  -47.6383 N.am      1 UNK        -0.5000 
      5 CA          0.2563  -10.9821  -48.0754 C.3       1 UNK         0.1400 
      6 C6         -0.2185  -12.4012  -48.4796 C.3       23 UNK        -0.0398 
      7 S7         -1.2076  -13.2570  -47.1995 S.3       23 UNK        -0.2404 
      8 C8         -2.6286  -13.8517  -48.1672 C.3       23 UNK        -0.0205 
      9 C9         -2.2509  -15.0340  -49.0466 C.ar      23 UNK        -0.0193 
     10 C10        -1.9512  -14.8496  -50.3993 C.ar      23 UNK        -0.1150 
     11 C11        -1.6143  -15.9412  -51.2043 C.ar      23 UNK        -0.0193 
     12 C12        -1.5850  -17.2243  -50.6510 C.ar      23 UNK        -0.1150 
     13 C13        -1.8736  -17.4220  -49.2969 C.ar      23 UNK        -0.0193 
     14 C14        -2.2114  -16.3208  -48.5038 C.ar      23 UNK        -0.1150 
     15 C15        -1.8659  -18.8129  -48.6754 C.3       23 UNK        -0.0205 
     16 S16        -0.4873  -19.8850  -49.2279 S.3       23 UNK        -0.2404 
     17 C17         0.1344  -20.5405  -47.6344 C.3       23 UNK        -0.0398 
     18 CA         -0.5350  -21.8461  -47.1235 C.3       11 UNK         0.1400 
     19 N          -0.0088  -22.2113  -45.8028 N.am      11 UNK        -0.5000 
     20 C          -0.3346  -23.3144  -45.1085 C.2       10 UNK         0.5000 
     21 O          -1.0458  -24.2129  -45.5509 O.2       10 UNK        -0.5000 
     22 CA          0.1614  -23.4069  -43.6500 C.3       10 UNK         0.1400 
     23 CB          1.5208  -24.1185  -43.5914 C.3       10 UNK        -0.1800 
     24 N           0.2755  -22.1052  -42.9925 N.am      10 UNK        -0.5000 
     25 C          -0.6971  -21.1884  -42.8884 C.2       9 UNK         0.5000 
     26 O          -1.8706  -21.4126  -43.1861 O.2       9 UNK        -0.5000 
     27 CA         -0.2907  -19.7685  -42.4396 C.3       9 UNK         0.1400 
     28 CB         -0.9224  -19.4406  -41.0787 C.3       9 UNK        -0.1800 
     29 N           1.1585  -19.5127  -42.3903 N.am      9 UNK        -0.5000 
     30 C           2.0191  -19.6160  -43.4185 C.2       8 UNK         0.5000 
     31 O           1.6752  -19.9392  -44.5575 O.2       8 UNK        -0.5000 
     32 CA          3.5068  -19.3644  -43.1060 C.3       8 UNK         0.1400 
     33 CB          4.3350  -19.0271  -44.3592 C.3       8 UNK        -0.1800 
     34 N           3.6439  -18.2844  -42.1348 N.am      8 UNK        -0.5000 
     35 C           4.2645  -18.3545  -40.9526 C.2       7 UNK         0.5000 
     36 O           4.8445  -19.3599  -40.5413 O.2       7 UNK        -0.5000 
     37 CA          4.2197  -17.0910  -40.0672 C.3       7 UNK         0.1400 
     38 CB          5.5060  -16.2692  -40.2420 C.3       7 UNK        -0.1800 
     39 N           3.0655  -16.2170  -40.3074 N.am      7 UNK        -0.5000 
     40 C           1.7825  -16.5555  -40.1197 C.2       6 UNK         0.5000 
     41 O           1.4268  -17.6745  -39.7510 O.2       6 UNK        -0.5000 
     42 CA          0.7191  -15.4802  -40.4002 C.3       6 UNK         0.1400 
     43 CB          1.2496  -14.0350  -40.3036 C.3       6 UNK        -0.1800 
     44 N           0.1537  -15.6982  -41.7286 N.am      6 UNK        -0.5000 
     45 C          -1.1367  -15.5469  -42.0569 C.2       5 UNK         0.5000 
     46 O          -2.0069  -15.2403  -41.2406 O.2       5 UNK        -0.5000 
     47 CA         -1.5309  -15.7609  -43.5346 C.3       5 UNK         0.1400 
     48 CB         -2.5389  -14.7065  -44.0236 C.3       5 UNK        -0.1800 
     49 N          -0.3632  -15.7410  -44.4175 N.am      5 UNK        -0.5000 
     50 C          -0.0045  -16.7282  -45.2451 C.2       4 UNK         0.5000 
     51 O          -0.6849  -17.7382  -45.4237 O.2       4 UNK        -0.5000 
     52 CA          1.3469  -16.5917  -45.9837 C.3       4 UNK         0.1400 
     53 CB          1.1469  -16.4453  -47.4978 C.3       4 UNK        -0.1800 
     54 N           2.2389  -15.5174  -45.5277 N.am      4 UNK        -0.5000 
     55 C           2.7855  -15.4044  -44.3135 C.2       3 UNK         0.5000 
     56 O           2.4472  -16.1048  -43.3615 O.2       3 UNK        -0.5000 
     57 CA          3.8984  -14.3600  -44.0947 C.3       3 UNK         0.1400 
     58 CB          5.2787  -15.0061  -44.3161 C.3       3 UNK        -0.1800 
     59 N           3.7815  -13.0985  -44.8414 N.am      3 UNK        -0.5000 
     60 C           3.8187  -12.8887  -46.1635 C.2       2 UNK         0.5000 
     61 O           3.8672  -13.7846  -47.0088 O.2       2 UNK        -0.5000 
     62 CA          3.7842  -11.4222  -46.6240 C.3       2 UNK         0.1400 
     63 CB          5.0589  -11.0586  -47.4020 C.3       2 UNK        -0.1800 
     64 N           2.6199  -11.1998  -47.4751 N.am      2 UNK        -0.5000 
     65 C           1.3741  -11.0433  -47.0125 C.2       1 UNK         0.5000 
     66 O           1.0967  -10.9742  -45.8116 O.2       1 UNK        -0.5000 
     67 C          -2.0763  -21.7395  -47.0976 C.2       11 UNK         0.5000 
     68 O          -2.7513  -22.3489  -47.9307 O.2       11 UNK        -0.5000 
     69 N          -2.5964  -20.9654  -46.1355 N.am      12 UNK        -0.5000 
     70 CA         -4.0233  -20.7182  -45.9490 C.3       12 UNK         0.1400 
     71 CB         -4.2160  -19.5255  -45.0001 C.3       12 UNK        -0.1800 
     72 C          -4.7606  -21.9671  -45.4402 C.2       12 UNK         0.5000 
     73 O          -5.8399  -22.2786  -45.9444 O.2       12 UNK        -0.5000 
     74 N          -4.1407  -22.6896  -44.4954 N.am      13 UNK        -0.5000 
     75 CA         -4.6422  -23.9510  -43.9409 C.3       13 UNK         0.1400 
     76 CB         -3.7383  -24.3938  -42.7821 C.3       13 UNK        -0.1800 
     77 C          -4.7616  -25.0723  -44.9923 C.2       13 UNK         0.5000 
     78 O          -5.6840  -25.8838  -44.9140 O.2       13 UNK        -0.5000 
     79 N          -3.8577  -25.0671  -45.9809 N.am      14 UNK        -0.5000 
     80 CA         -3.8625  -25.9537  -47.1444 C.3       14 UNK         0.1400 
     81 CB         -2.4231  -26.0945  -47.6688 C.3       14 UNK        -0.1800 
     82 C          -4.8159  -25.4950  -48.2681 C.2       14 UNK         0.5000 
     83 O          -4.7526  -26.0649  -49.3562 O.2       14 UNK        -0.5000 
     84 N          -5.6634  -24.4852  -48.0148 N.am      15 UNK        -0.5000 
     85 CA         -6.6465  -23.9048  -48.9349 C.3       15 UNK         0.1400 
     86 CB         -7.7409  -24.9313  -49.2967 C.3       15 UNK        -0.1800 
     87 C          -5.9675  -23.2848  -50.1697 C.2       15 UNK         0.5000 
     88 O          -6.1494  -23.7624  -51.2913 O.2       15 UNK        -0.5000 
     89 N          -5.1569  -22.2488  -49.9141 N.am      16 UNK        -0.5000 
     90 CA         -4.3368  -21.5146  -50.8822 C.3       16 UNK         0.1400 
     91 CB         -5.2142  -20.7478  -51.8949 C.3       16 UNK        -0.1800 
     92 C          -3.2943  -22.4280  -51.5502 C.2       16 UNK         0.5000 
     93 O          -3.2192  -22.4841  -52.7787 O.2       16 UNK        -0.5000 
     94 N          -2.5362  -23.1441  -50.7068 N.am      17 UNK        -0.5000 
     95 CA         -1.4592  -24.0750  -51.0559 C.3       17 UNK         0.1400 
     96 CB         -0.2354  -23.2958  -51.5797 C.3       17 UNK        -0.1800 
     97 C          -1.9216  -25.1948  -52.0125 C.2       17 UNK         0.5000 
     98 O          -1.3268  -25.3863  -53.0740 O.2       17 UNK        -0.5000 
     99 N          -2.9915  -25.8996  -51.6151 N.am      18 UNK        -0.5000 
    100 CA        -3.6738  -26.9661  -52.3542 C.3       18 UNK         0.1400 
    101 CB        -2.7495  -28.1846  -52.5636 C.3       18 UNK        -0.1800 
    102 C         -4.3213  -26.4485  -53.6533 C.2       18 UNK         0.5000 
    103 O         -4.1537  -27.0521  -54.7149 O.2       18 UNK        -0.5000 
    104 N         -5.0559  -25.3327  -53.5295 N.am      19 UNK        -0.5000 
    105 CA        -5.7895  -24.6322  -54.5860 C.3       19 UNK         0.1400 
    106 CB        -6.9760  -25.4839  -55.0838 C.3       19 UNK        -0.1800 
    107 C         -4.8853  -24.1204  -55.7269 C.2       19 UNK         0.5000 
    108 O         -5.2718  -24.1761  -56.8962 O.2       19 UNK        -0.5000 
    109 N         -3.7035  -23.6009  -55.3661 N.am      20 UNK        -0.5000 
    110 CA        -2.7919  -22.9118  -56.2820 C.3       20 UNK         0.1400 
    111 CB        -1.3924  -22.8392  -55.6531 C.3       20 UNK        -0.1800 
    112 C         -3.2951  -21.5004  -56.6402 C.2       20 UNK         0.5000 
    113 O         -2.9259  -20.9756  -57.6921 O.2       20 UNK        -0.5000 
    114 N         -4.1249  -20.9173  -55.7579 N.am      21 UNK        -0.5000 
    115 CA        -4.8518  -19.6502  -55.9147 C.3       21 UNK         0.1400 
    116 CB        -5.9767  -19.8156  -56.9570 C.3       21 UNK        -0.1800 
    117 C         -3.9361  -18.4427  -56.2093 C.2       21 UNK         0.5000 
    118 O         -4.3170  -17.5426  -56.9599 O.2       21 UNK        -0.5000 
    119 N         -2.7345  -18.4682  -55.6185 N.am      22 UNK        -0.5000 
    120 CA        -1.6471  -17.4903  -55.7979 C.3       22 UNK         0.1400 
    121 C         -0.9649  -17.5313  -57.2010 C.2       22 UNK         0.5000 
    122 N         -1.1999  -18.5403  -58.0329 N.am      22 UNK        -0.7600 
    123 O         -0.1784  -16.6487  -57.5341 O.2       22 UNK        -0.5000 
    124 C124       -2.0260  -16.0429  -55.3644 C.3       23 UNK        -0.0398 
    125 S125       -2.7695  -15.9622  -53.6986 S.3       23 UNK        -0.2404 
    126 C126       -1.2866  -15.7421  -52.6737 C.3       23 UNK        -0.0205 
    127 H127       -2.8338   -8.8242  -46.7211 H         1 UNK         0.0600 
    128 H128       -2.4551   -7.4095  -47.7077 H         1 UNK         0.0600 
    129 H129       -1.7900   -7.5540  -46.0770 H         1 UNK         0.0600 
    130 H130       -1.6637  -10.6369  -47.2954 H         1 UNK         0.3000 
    131 H131        0.6835  -10.5183  -48.9676 H         1 UNK         0.0600 
    132 H132       -0.8115  -12.3161  -49.3900 H         1 UNK         0.0800 
    133 H133        0.6278  -13.0372  -48.7457 H         1 UNK         0.0800 
    134 H134       -3.4202  -14.1509  -47.4788 H         1 UNK         0.0800 
    135 H135       -3.0407  -13.0374  -48.7651 H         1 UNK         0.0800 
    136 H136       -1.9859  -13.8589  -50.8297 H         1 UNK         0.1150 
    137 H137       -1.3392  -18.0690  -51.2788 H         1 UNK         0.1150 
    138 H138       -2.4411  -16.4617  -47.4565 H         1 UNK         0.1150 
    139 H139       -1.8392  -18.7158  -47.5906 H         1 UNK         0.0800 
    140 H140       -2.8124  -19.2987  -48.9051 H         1 UNK         0.0800 
    141 H141        0.0671  -19.7564  -46.8803 H         1 UNK         0.0800 
    142 H142        1.2033  -20.7189  -47.7579 H         1 UNK         0.0800 
    143 H143       -0.2788  -22.6520  -47.8144 H         1 UNK         0.0600 
    144 H144        0.5814  -21.5192  -45.3518 H         1 UNK         0.3000 
    145 H145       -0.5591  -23.9991  -43.0854 H         1 UNK         0.0600 
    146 H146        1.4652  -25.1045  -44.0549 H         1 UNK         0.0600 
    147 H147        2.2940  -23.5531  -44.1134 H         1 UNK         0.0600 
    148 H148        1.8470  -24.2633  -42.5614 H         1 UNK         0.0600 
    149 H149        1.2039  -21.8272  -42.7142 H         1 UNK         0.3000 
    150 H150       -0.7159  -19.0847  -43.1746 H         1 UNK         0.0600 
    151 H151       -0.8407  -18.3788  -40.8525 H         1 UNK         0.0600 
    152 H152       -0.4476  -19.9972  -40.2700 H         1 UNK         0.0600 
    153 H153       -1.9861  -19.6825  -41.0651 H         1 UNK         0.0600 
    154 H154        1.5229  -19.2219  -41.4915 H         1 UNK         0.3000 
    155 H155        3.8911  -20.2982  -42.6915 H         1 UNK         0.0600 
    156 H156        3.9838  -18.1172  -44.8440 H         1 UNK         0.0600 
    157 H157        4.2863  -19.8323  -45.0932 H         1 UNK         0.0600 
    158 H158        5.3856  -18.8838  -44.1066 H         1 UNK         0.0600 
    159 H159        3.1827  -17.4139  -42.3938 H         1 UNK         0.3000 
    160 H160        4.1681  -17.4269  -39.0295 H         1 UNK         0.0600 
    161 H161        6.3900  -16.8798  -40.0532 H         1 UNK         0.0600 
    162 H162        5.5373  -15.4318  -39.5447 H         1 UNK         0.0600 
    163 H163        5.5934  -15.8688  -41.2523 H         1 UNK         0.0600 
    164 H164        3.2704  -15.2815  -40.6238 H         1 UNK         0.3000 
    165 H165       -0.0522  -15.6117  -39.6384 H         1 UNK         0.0600 
    166 H166        0.4314  -13.3182  -40.3757 H         1 UNK         0.0600 
    167 H167        1.7460  -13.8590  -39.3483 H         1 UNK         0.0600 
    168 H168        1.9571  -13.8033  -41.1004 H         1 UNK         0.0600 
    169 H169        0.8191  -15.9902  -42.4398 H         1 UNK         0.3000 
    170 H170       -2.0210  -16.7357  -43.5722 H         1 UNK         0.0600 
    171 H171       -2.8443  -14.9073  -45.0504 H         1 UNK         0.0600 
    172 H172       -3.4434  -14.7071  -43.4142 H         1 UNK         0.0600 
    173 H173       -2.1164  -13.7017  -43.9902 H         1 UNK         0.0600 
    174 H174        0.2463  -14.9397  -44.3406 H         1 UNK         0.3000 
    175 H175        1.8748  -17.5313  -45.8182 H         1 UNK         0.0600 
    176 H176        0.6122  -15.5299  -47.7481 H         1 UNK         0.0600 
    177 H177        0.5767  -17.2831  -47.8966 H         1 UNK         0.0600 
    178 H178        2.1013  -16.4301  -48.0241 H         1 UNK         0.0600 
    179 H179        2.6178  -14.9098  -46.2497 H         1 UNK         0.3000 
    180 H180        3.8402  -14.0786  -43.0422 H         1 UNK         0.0600 
    181 H181        6.0824  -14.3251  -44.0364 H         1 UNK         0.0600 
    182 H182        5.4305  -15.2954  -45.3564 H         1 UNK         0.0600 
    183 H183        5.3918  -15.9074  -43.7121 H         1 UNK         0.0600 
    184 H184        3.6806  -12.2812  -44.2550 H         1 UNK         0.3000 
    185 H185        3.7237  -10.7666  -45.7524 H         1 UNK         0.0600 
    186 H186        5.1739  -11.6670  -48.3002 H         1 UNK         0.0600 
    187 H187        5.0499  -10.0116  -47.7055 H         1 UNK         0.0600 
    188 H188        5.9467  -11.2111  -46.7869 H         1 UNK         0.0600 
    189 H189        2.7747  -11.2814  -48.4696 H         1 UNK         0.3000 
    190 H190       -1.9768  -20.5414  -45.4597 H         1 UNK         0.3000 
    191 H191       -4.4498  -20.4497  -46.9178 H         1 UNK         0.0600 
    192 H192       -3.8109  -19.7254  -44.0077 H         1 UNK         0.0600 
    193 H193       -5.2742  -19.2903  -44.8808 H         1 UNK         0.0600 
    194 H194       -3.7249  -18.6317  -45.3864 H         1 UNK         0.0600 
    195 H195       -3.2685  -22.3337  -44.1123 H         1 UNK         0.3000 
    196 H196       -5.6407  -23.7607  -43.5422 H         1 UNK         0.0600 
    197 H197       -4.1533  -25.2670  -42.2775 H         1 UNK         0.0600 
    198 H198       -3.6304  -23.6055  -42.0366 H         1 UNK         0.0600 
    199 H199       -2.7439  -24.6639  -43.1350 H         1 UNK         0.0600 
    200 H200       -3.0944  -24.4008  -45.9371 H         1 UNK         0.3000 
    201 H201       -4.2003  -26.9431  -46.8302 H         1 UNK         0.0600 
    202 H202       -1.7644  -26.4979  -46.8997 H         1 UNK         0.0600 
    203 H203       -2.0193  -25.1319  -47.9822 H         1 UNK         0.0600 
    204 H204       -2.3691  -26.7720  -48.5219 H         1 UNK         0.0600 
    205 H205       -5.6142  -24.0396  -47.1063 H         1 UNK         0.3000 
    206 H206       -7.1310  -23.0879  -48.3980 H         1 UNK         0.0600 
    207 H207       -8.5177  -24.4692  -49.9068 H         1 UNK         0.0600 
    208 H208       -7.3443  -25.7749  -49.8623 H         1 UNK         0.0600 
    209 H209       -8.2216  -25.3251  -48.4013 H         1 UNK         0.0600 
    210 H210       -5.0092  -21.9986  -48.9462 H         1 UNK         0.3000 
    211 H211       -3.7729  -20.7762  -50.3146 H         1 UNK         0.0600 
    212 H212       -5.7739  -21.4206  -52.5450 H         1 UNK         0.0600 
    213 H213       -4.6005  -20.1112  -52.5332 H         1 UNK         0.0600 
    214 H214       -5.9291  -20.1018  -51.3857 H         1 UNK         0.0600 
    215 H215       -2.6940  -23.0054  -49.7115 H         1 UNK         0.3000 
    216 H216       -1.1586  -24.5667  -50.1305 H         1 UNK         0.0600 
    217 H217        0.6041  -23.9659  -51.7679 H         1 UNK         0.0600 
    218 H218        0.0983  -22.5545  -50.8538 H         1 UNK         0.0600 
    219 H219       -0.4547  -22.7752  -52.5119 H         1 UNK         0.0600 
    220 H220       -3.4403  -25.6625  -50.7352 H         1 UNK         0.3000 
    221 H221       -4.4989  -27.2959  -51.7217 H         1 UNK         0.0600 
    222 H222       -1.9243  -27.9620  -53.2403 H         1 UNK         0.0600 
    223 H223       -2.3269  -28.5247  -51.6182 H         1 UNK         0.0600 
    224 H224       -3.3026  -29.0217  -52.9910 H         1 UNK         0.0600 
    225 H225       -5.1447  -24.9089  -52.6104 H         1 UNK         0.3000 
    226 H226       -6.2061  -23.7399  -54.1166 H         1 UNK         0.0600 
    227 H227       -7.6068  -25.8022  -54.2538 H         1 UNK         0.0600 
    228 H228       -7.6063  -24.9146  -55.7680 H         1 UNK         0.0600 
    229 H229       -6.6415  -26.3763  -55.6135 H         1 UNK         0.0600 
    230 H230       -3.4695  -23.5468  -54.3781 H         1 UNK         0.3000 
    231 H231       -2.7214  -23.4883  -57.2066 H         1 UNK         0.0600 
    232 H232       -1.3906  -22.2441  -54.7398 H         1 UNK         0.0600 
    233 H233       -1.0188  -23.8330  -55.4061 H         1 UNK         0.0600 
    234 H234       -0.6789  -22.3844  -56.3413 H         1 UNK         0.0600 
    235 H235       -4.3046  -21.4241  -54.9019 H         1 UNK         0.3000 
    236 H236       -5.3220  -19.4435  -54.9524 H         1 UNK         0.0600 
    237 H237       -5.5767  -19.9772  -57.9586 H         1 UNK         0.0600 
    238 H238       -6.6186  -20.6621  -56.7126 H         1 UNK         0.0600 
    239 H239       -6.6112  -18.9295  -56.9954 H         1 UNK         0.0600 
    240 H240       -2.5161  -19.2607  -55.0331 H         1 UNK         0.3000 
    241 H241       -0.8640  -17.8240  -55.1167 H         1 UNK         0.0600 
    242 H242       -0.7408  -18.5542  -58.9298 H         1 UNK         0.3800 
    243 H243       -1.8448  -19.2863  -57.7935 H         1 UNK         0.3800 
    244 H244       -1.1493  -15.3934  -55.3858 H         1 UNK         0.0800 
    245 H245       -2.7335  -15.6075  -56.0711 H         1 UNK         0.0800 
    246 H246       -0.5186  -16.4549  -52.9776 H         1 UNK         0.0800 
    247 H247       -0.8710  -14.7472  -52.8413 H         1 UNK         0.0800 
@<TRIPOS>BOND
     1    1    2 1    
     2    1  127 1    
     3    1  128 1    
     4    1  129 1    
     5    2    3 2    
     6    2    4 am   BACKBONE|DICT|INTERRES
     7    4    5 1    
     8    4  130 1    
     9    5    6 1    
    10    5   65 1    
    11    5  131 1    
    12    6    7 1    
    13    6  132 1    
    14    6  133 1    
    15    7    8 1    
    16    8    9 1    
    17    8  134 1    
    18    8  135 1    
    19    9   10 ar   
    20    9   14 ar   
    21   10   11 ar   
    22   10  136 1    
    23   11   12 ar   
    24   11  126 1    
    25   12   13 ar   
    26   12  137 1    
    27   13   14 ar   
    28   13   15 1    
    29   14  138 1    
    30   15   16 1    
    31   15  139 1    
    32   15  140 1    
    33   16   17 1    
    34   17   18 1    
    35   17  141 1    
    36   17  142 1    
    37   18   19 1    
    38   18   67 1    
    39   18  143 1    
    40   19   20 am   BACKBONE|DICT|INTERRES
    41   19  144 1    
    42   20   21 2    
    43   20   22 1    
    44   22   23 1    
    45   22   24 1    
    46   22  145 1    
    47   23  146 1    
    48   23  147 1    
    49   23  148 1    
    50   24   25 am   BACKBONE|DICT|INTERRES
    51   24  149 1    
    52   25   26 2    
    53   25   27 1    
    54   27   28 1    
    55   27   29 1    
    56   27  150 1    
    57   28  151 1    
    58   28  152 1    
    59   28  153 1    
    60   29   30 am   BACKBONE|DICT|INTERRES
    61   29  154 1    
    62   30   31 2    
    63   30   32 1    
    64   32   33 1    
    65   32   34 1    
    66   32  155 1    
    67   33  156 1    
    68   33  157 1    
    69   33  158 1    
    70   34   35 am   BACKBONE|DICT|INTERRES
    71   34  159 1    
    72   35   36 2    
    73   35   37 1    
    74   37   38 1    
    75   37   39 1    
    76   37  160 1    
    77   38  161 1    
    78   38  162 1    
    79   38  163 1    
    80   39   40 am   BACKBONE|DICT|INTERRES
    81   39  164 1    
    82   40   41 2    
    83   40   42 1    
    84   42   43 1    
    85   42   44 1    
    86   42  165 1    
    87   43  166 1    
    88   43  167 1    
    89   43  168 1    
    90   44   45 am   BACKBONE|DICT|INTERRES
    91   44  169 1    
    92   45   46 2    
    93   45   47 1    
    94   47   48 1    
    95   47   49 1    
    96   47  170 1    
    97   48  171 1    
    98   48  172 1    
    99   48  173 1    
   100   49   50 am   BACKBONE|DICT|INTERRES
   101   49  174 1    
   102   50   51 2    
   103   50   52 1    
   104   52   53 1    
   105   52   54 1    
   106   52  175 1    
   107   53  176 1    
   108   53  177 1    
   109   53  178 1    
   110   54   55 am   BACKBONE|DICT|INTERRES
   111   54  179 1    
   112   55   56 2    
   113   55   57 1    
   114   57   58 1    
   115   57   59 1    
   116   57  180 1    
   117   58  181 1    
   118   58  182 1    
   119   58  183 1    
   120   59   60 am   BACKBONE|DICT|INTERRES
   121   59  184 1    
   122   60   61 2    
   123   60   62 1    
   124   62   63 1    
   125   62   64 1    
   126   62  185 1    
   127   63  186 1    
   128   63  187 1    
   129   63  188 1    
   130   64   65 am   BACKBONE|DICT|INTERRES
   131   64  189 1    
   132   65   66 2    
   133   67   68 2    
   134   67   69 am   BACKBONE|DICT|INTERRES
   135   69   70 1    
   136   69  190 1    
   137   70   71 1    
   138   70   72 1    
   139   70  191 1    
   140   71  192 1    
   141   71  193 1    
   142   71  194 1    
   143   72   73 2    
   144   72   74 am   BACKBONE|DICT|INTERRES
   145   74   75 1    
   146   74  195 1    
   147   75   76 1    
   148   75   77 1    
   149   75  196 1    
   150   76  197 1    
   151   76  198 1    
   152   76  199 1    
   153   77   78 2    
   154   77   79 am   BACKBONE|DICT|INTERRES
   155   79   80 1    
   156   79  200 1    
   157   80   81 1    
   158   80   82 1    
   159   80  201 1    
   160   81  202 1    
   161   81  203 1    
   162   81  204 1    
   163   82   83 2    
   164   82   84 am   BACKBONE|DICT|INTERRES
   165   84   85 1    
   166   84  205 1    
   167   85   86 1    
   168   85   87 1    
   169   85  206 1    
   170   86  207 1    
   171   86  208 1    
   172   86  209 1    
   173   87   88 2    
   174   87   89 am   BACKBONE|DICT|INTERRES
   175   89   90 1    
   176   89  210 1    
   177   90   91 1    
   178   90   92 1    
   179   90  211 1    
   180   91  212 1    
   181   91  213 1    
   182   91  214 1    
   183   92   93 2    
   184   92   94 am   BACKBONE|DICT|INTERRES
   185   94   95 1    
   186   94  215 1    
   187   95   96 1    
   188   95   97 1    
   189   95  216 1    
   190   96  217 1    
   191   96  218 1    
   192   96  219 1    
   193   97   98 2    
   194   97   99 am   BACKBONE|DICT|INTERRES
   195   99  100 1    
   196   99  220 1    
   197  100  101 1    
   198  100  102 1    
   199  100  221 1    
   200  101  222 1    
   201  101  223 1    
   202  101  224 1    
   203  102  103 2    
   204  102  104 am   BACKBONE|DICT|INTERRES
   205  104  105 1    
   206  104  225 1    
   207  105  106 1    
   208  105  107 1    
   209  105  226 1    
   210  106  227 1    
   211  106  228 1    
   212  106  229 1    
   213  107  108 2    
   214  107  109 am   BACKBONE|DICT|INTERRES
   215  109  110 1    
   216  109  230 1    
   217  110  111 1    
   218  110  112 1    
   219  110  231 1    
   220  111  232 1    
   221  111  233 1    
   222  111  234 1    
   223  112  113 2    
   224  112  114 am   BACKBONE|DICT|INTERRES
   225  114  115 1    
   226  114  235 1    
   227  115  116 1    
   228  115  117 1    
   229  115  236 1    
   230  116  237 1    
   231  116  238 1    
   232  116  239 1    
   233  117  118 2    
   234  117  119 am   BACKBONE|DICT|INTERRES
   235  119  120 1    
   236  119  240 1    
   237  120  121 1    
   238  120  124 1    
   239  120  241 1    
   240  121  122 am   BACKBONE|DICT|INTERRES
   241  121  123 2    
   242  122  242 1    
   243  122  243 1    
   244  124  125 1    
   245  124  244 1    
   246  124  245 1    
   247  125  126 1    
   248  126  246 1    
   249  126  247 1    
@<TRIPOS>SUBSTRUCTURE
     1 UNK         1 GROUP             0       ****    0 ROOT    
