@<TRIPOS>MOLECULE
3R540
247   249    1
SMALL
USER_CHARGES


@<TRIPOS>ATOM
      1 CA         -2.0116  -14.4475  -43.5811 C.3       0 UNK        -0.1800 
      2 C          -2.1764  -13.1943  -44.4255 C.2       0 UNK         0.5000 
      3 O          -2.5168  -12.1362  -43.8968 O.2       0 UNK        -0.5000 
      4 N          -1.9447  -13.3138  -45.7398 N.am      1 UNK        -0.5000 
      5 CA         -1.9902  -12.2030  -46.6988 C.3       1 UNK         0.1400 
      6 C6         -2.1852  -12.6887  -48.1563 C.3       23 UNK        -0.0398 
      7 S7         -0.9331  -13.8843  -48.7495 S.3       23 UNK        -0.2404 
      8 C8         -1.8175  -15.4709  -48.6082 C.3       23 UNK        -0.0205 
      9 C9         -1.4051  -16.4262  -49.7159 C.ar      23 UNK        -0.0193 
     10 C10        -2.1695  -16.5117  -50.8831 C.ar      23 UNK        -0.1150 
     11 C11        -1.7856  -17.3636  -51.9220 C.ar      23 UNK        -0.0193 
     12 C12        -0.6320  -18.1376  -51.7834 C.ar      23 UNK        -0.1150 
     13 C13         0.1315  -18.0772  -50.6148 C.ar      23 UNK        -0.0193 
     14 C14        -0.2585  -17.2154  -49.5840 C.ar      23 UNK        -0.1150 
     15 C15         1.3909  -18.9225  -50.4928 C.3       23 UNK        -0.0205 
     16 S16         1.0233  -20.6363  -49.9984 S.3       23 UNK        -0.2404 
     17 C17         0.7766  -20.4348  -48.2038 C.3       23 UNK        -0.0398 
     18 CA         -0.2701  -21.3932  -47.5902 C.3       11 UNK         0.1400 
     19 N          -0.2006  -21.3672  -46.1263 N.am      11 UNK        -0.5000 
     20 C          -0.8736  -22.1808  -45.3016 C.2       10 UNK         0.5000 
     21 O          -1.6090  -23.0879  -45.6849 O.2       10 UNK        -0.5000 
     22 CA         -0.7427  -21.9045  -43.7933 C.3       10 UNK         0.1400 
     23 CB          0.5723  -22.4764  -43.2435 C.3       10 UNK        -0.1800 
     24 N          -0.8340  -20.4796  -43.4745 N.am      10 UNK        -0.5000 
     25 C          -1.9151  -19.7184  -43.6969 C.2       9 UNK         0.5000 
     26 O          -2.9753  -20.1507  -44.1478 O.2       9 UNK        -0.5000 
     27 CA         -1.7682  -18.2103  -43.4273 C.3       9 UNK         0.1400 
     28 CB         -1.8832  -17.8989  -41.9278 C.3       9 UNK        -0.1800 
     29 N          -0.5118  -17.6720  -43.9507 N.am      9 UNK        -0.5000 
     30 C          -0.1805  -17.6552  -45.2500 C.2       8 UNK         0.5000 
     31 O          -0.9201  -18.0429  -46.1523 O.2       8 UNK        -0.5000 
     32 CA          1.2333  -17.1653  -45.5967 C.3       8 UNK         0.1400 
     33 CB          1.2738  -15.6319  -45.6749 C.3       8 UNK        -0.1800 
     34 N           2.2220  -17.6550  -44.6356 N.am      8 UNK        -0.5000 
     35 C           2.5931  -18.9409  -44.5385 C.2       7 UNK         0.5000 
     36 O           2.1648  -19.8305  -45.2730 O.2       7 UNK        -0.5000 
     37 CA          3.5688  -19.3023  -43.4042 C.3       7 UNK         0.1400 
     38 CB          5.0175  -19.0113  -43.8226 C.3       7 UNK        -0.1800 
     39 N           3.2700  -18.5926  -42.1606 N.am      7 UNK        -0.5000 
     40 C           2.1541  -18.7628  -41.4368 C.2       6 UNK         0.5000 
     41 O           1.2801  -19.5830  -41.7134 O.2       6 UNK        -0.5000 
     42 CA          1.9588  -17.8204  -40.2336 C.3       6 UNK         0.1400 
     43 CB          2.5684  -18.4321  -38.9639 C.3       6 UNK        -0.1800 
     44 N           2.5255  -16.4862  -40.4514 N.am      6 UNK        -0.5000 
     45 C           2.1238  -15.6371  -41.4056 C.2       5 UNK         0.5000 
     46 O           1.2051  -15.8790  -42.1924 O.2       5 UNK        -0.5000 
     47 CA          2.9012  -14.3164  -41.5169 C.3       5 UNK         0.1400 
     48 CB          3.3103  -14.0295  -42.9675 C.3       5 UNK        -0.1800 
     49 N           2.0997  -13.2057  -41.0164 N.am      5 UNK        -0.5000 
     50 C           1.9648  -12.9010  -39.7189 C.2       4 UNK         0.5000 
     51 O           2.5029  -13.5489  -38.8185 O.2       4 UNK        -0.5000 
     52 CA          1.0870  -11.6804  -39.3597 C.3       4 UNK         0.1400 
     53 CB          1.5632  -10.9678  -38.0762 C.3       4 UNK        -0.1800 
     54 N           0.9143  -10.7128  -40.4504 N.am      4 UNK        -0.5000 
     55 C           1.8619   -9.9966  -41.0739 C.2       3 UNK         0.5000 
     56 O           3.0663  -10.0562  -40.8187 O.2       3 UNK        -0.5000 
     57 CA          1.3602   -9.0621  -42.1931 C.3       3 UNK         0.1400 
     58 CB          1.9734   -7.6577  -42.0613 C.3       3 UNK        -0.1800 
     59 N           1.6082   -9.5617  -43.5491 N.am      3 UNK        -0.5000 
     60 C           1.2820  -10.7681  -44.0320 C.2       2 UNK         0.5000 
     61 O           0.8374  -11.6959  -43.3504 O.2       2 UNK        -0.5000 
     62 CA          1.4623  -10.9649  -45.5469 C.3       2 UNK         0.1400 
     63 CB          2.7773  -11.6888  -45.8718 C.3       2 UNK        -0.1800 
     64 N           0.3399  -11.7548  -46.0432 N.am      2 UNK        -0.5000 
     65 C          -0.7888  -11.2417  -46.5502 C.2       1 UNK         0.5000 
     66 O          -0.9223  -10.0562  -46.8588 O.2       1 UNK        -0.5000 
     67 C          -1.7019  -21.1191  -48.1030 C.2       11 UNK         0.5000 
     68 O          -2.2063  -21.8793  -48.9301 O.2       11 UNK        -0.5000 
     69 N          -2.3538  -20.0823  -47.5575 N.am      12 UNK        -0.5000 
     70 CA         -3.7392  -19.7221  -47.8602 C.3       12 UNK         0.1400 
     71 CB         -4.0767  -18.3807  -47.1934 C.3       12 UNK        -0.1800 
     72 C          -4.7523  -20.8055  -47.4436 C.2       12 UNK         0.5000 
     73 O          -5.6986  -21.0627  -48.1877 O.2       12 UNK        -0.5000 
     74 N          -4.5316  -21.4294  -46.2773 N.am      13 UNK        -0.5000 
     75 CA         -5.3398  -22.5367  -45.7640 C.3       13 UNK         0.1400 
     76 CB         -4.9931  -22.7871  -44.2885 C.3       13 UNK        -0.1800 
     77 C          -5.1758  -23.8258  -46.5905 C.2       13 UNK         0.5000 
     78 O          -6.1669  -24.5096  -46.8497 O.2       13 UNK        -0.5000 
     79 N          -3.9345  -24.1275  -46.9954 N.am      14 UNK        -0.5000 
     80 CA         -3.5827  -25.2553  -47.8585 C.3       14 UNK         0.1400 
     81 CB         -2.0571  -25.4258  -47.8634 C.3       14 UNK        -0.1800 
     82 C          -4.1201  -25.1017  -49.2928 C.2       14 UNK         0.5000 
     83 O          -4.5178  -26.0996  -49.8968 O.2       14 UNK        -0.5000 
     84 N          -4.1334  -23.8596  -49.8003 N.am      15 UNK        -0.5000 
     85 CA         -4.6488  -23.4351  -51.1029 C.3       15 UNK         0.1400 
     86 CB         -6.1922  -23.4840  -51.1095 C.3       15 UNK        -0.1800 
     87 C          -3.9890  -24.2283  -52.2461 C.2       15 UNK         0.5000 
     88 O          -2.7872  -24.0779  -52.4568 O.2       15 UNK        -0.5000 
     89 N          -4.7539  -25.0962  -52.9223 N.am      16 UNK        -0.5000 
     90 CA         -4.3092  -25.9733  -54.0104 C.3       16 UNK         0.1400 
     91 CB         -5.5258  -26.7420  -54.5483 C.3       16 UNK        -0.1800 
     92 C          -3.1737  -26.9514  -53.6421 C.2       16 UNK         0.5000 
     93 O          -2.4826  -27.4320  -54.5409 O.2       16 UNK        -0.5000 
     94 N          -2.9935  -27.2331  -52.3444 N.am      17 UNK        -0.5000 
     95 CA         -1.9158  -28.0801  -51.8346 C.3       17 UNK         0.1400 
     96 CB         -2.3658  -28.7200  -50.5115 C.3       17 UNK        -0.1800 
     97 C          -0.5721  -27.3382  -51.6662 C.2       17 UNK         0.5000 
     98 O           0.4394  -28.0080  -51.4511 O.2       17 UNK        -0.5000 
     99 N          -0.5648  -25.9985  -51.7500 N.am      18 UNK        -0.5000 
    100 CA         0.6305  -25.1674  -51.5610 C.3       18 UNK         0.1400 
    101 CB         0.5125  -24.4103  -50.2294 C.3       18 UNK        -0.1800 
    102 C          0.8706  -24.1785  -52.7145 C.2       18 UNK         0.5000 
    103 O          2.0275  -23.9032  -53.0365 O.2       18 UNK        -0.5000 
    104 N         -0.2058  -23.6554  -53.3067 N.am      19 UNK        -0.5000 
    105 CA        -0.2051  -22.6398  -54.3538 C.3       19 UNK         0.1400 
    106 CB        -0.7154  -21.3277  -53.7350 C.3       19 UNK        -0.1800 
    107 C         -1.0961  -23.0881  -55.5236 C.2       19 UNK         0.5000 
    108 O         -1.6795  -24.1735  -55.4864 O.2       19 UNK        -0.5000 
    109 N         -1.2108  -22.2338  -56.5479 N.am      20 UNK        -0.5000 
    110 CA        -1.9873  -22.4547  -57.7733 C.3       20 UNK         0.1400 
    111 CB        -1.4434  -21.5194  -58.8690 C.3       20 UNK        -0.1800 
    112 C         -3.5170  -22.3149  -57.5778 C.2       20 UNK         0.5000 
    113 O         -4.1816  -21.6539  -58.3777 O.2       20 UNK        -0.5000 
    114 N         -4.0440  -22.9459  -56.5187 N.am      21 UNK        -0.5000 
    115 CA        -5.4590  -23.0441  -56.1391 C.3       21 UNK         0.1400 
    116 CB        -6.2146  -23.9530  -57.1303 C.3       21 UNK        -0.1800 
    117 C         -6.1468  -21.6797  -55.9225 C.2       21 UNK         0.5000 
    118 O         -7.3035  -21.5002  -56.3099 O.2       21 UNK        -0.5000 
    119 N         -5.4169  -20.7393  -55.3104 N.am      22 UNK        -0.5000 
    120 CA        -5.9155  -19.4071  -54.9433 C.3       22 UNK         0.1400 
    121 C         -6.9806  -19.4243  -53.8060 C.2       22 UNK         0.5000 
    122 N         -7.7773  -18.3706  -53.6829 N.am      22 UNK        -0.7600 
    123 O         -7.0832  -20.3678  -53.0245 O.2       22 UNK        -0.5000 
    124 C124       -4.7506  -18.4257  -54.6556 C.3       23 UNK        -0.0398 
    125 S125       -3.7073  -18.8696  -53.2237 S.3       23 UNK        -0.2404 
    126 C126       -2.5999  -17.4276  -53.2034 C.3       23 UNK        -0.0205 
    127 H127       -1.9989  -15.3401  -44.2038 H         1 UNK         0.0600 
    128 H128       -2.8348  -14.5417  -42.8731 H         1 UNK         0.0600 
    129 H129       -1.0777  -14.4033  -43.0199 H         1 UNK         0.0600 
    130 H130       -1.6846  -14.2093  -46.1240 H         1 UNK         0.3000 
    131 H131       -2.8734  -11.6081  -46.4550 H         1 UNK         0.0600 
    132 H132       -3.1802  -13.1223  -48.2582 H         1 UNK         0.0800 
    133 H133       -2.1830  -11.8363  -48.8381 H         1 UNK         0.0800 
    134 H134       -1.6085  -15.9149  -47.6350 H         1 UNK         0.0800 
    135 H135       -2.8964  -15.3170  -48.6481 H         1 UNK         0.0800 
    136 H136       -3.0564  -15.9028  -50.9891 H         1 UNK         0.1150 
    137 H137       -0.3263  -18.7855  -52.5904 H         1 UNK         0.1150 
    138 H138        0.3338  -17.1448  -48.6838 H         1 UNK         0.1150 
    139 H139        1.9060  -18.9415  -51.4544 H         1 UNK         0.0800 
    140 H140        2.0907  -18.4750  -49.7851 H         1 UNK         0.0800 
    141 H141        1.7481  -20.6100  -47.7408 H         1 UNK         0.0800 
    142 H142        0.5193  -19.4021  -47.9745 H         1 UNK         0.0800 
    143 H143       -0.0084  -22.4087  -47.8944 H         1 UNK         0.0600 
    144 H144        0.4217  -20.6756  -45.7202 H         1 UNK         0.3000 
    145 H145       -1.5689  -22.4111  -43.2902 H         1 UNK         0.0600 
    146 H146        0.6321  -22.3548  -42.1618 H         1 UNK         0.0600 
    147 H147        0.6537  -23.5430  -43.4564 H         1 UNK         0.0600 
    148 H148        1.4412  -21.9858  -43.6826 H         1 UNK         0.0600 
    149 H149       -0.0163  -20.0563  -43.0442 H         1 UNK         0.3000 
    150 H150       -2.5870  -17.7032  -43.9417 H         1 UNK         0.0600 
    151 H151       -2.8510  -18.2178  -41.5391 H         1 UNK         0.0600 
    152 H152       -1.7906  -16.8298  -41.7364 H         1 UNK         0.0600 
    153 H153       -1.1149  -18.4091  -41.3481 H         1 UNK         0.0600 
    154 H154        0.1435  -17.2905  -43.2769 H         1 UNK         0.3000 
    155 H155        1.4983  -17.5593  -46.5797 H         1 UNK         0.0600 
    156 H156        2.2862  -15.2694  -45.8525 H         1 UNK         0.0600 
    157 H157        0.9008  -15.1696  -44.7614 H         1 UNK         0.0600 
    158 H158        0.6539  -15.2727  -46.4961 H         1 UNK         0.0600 
    159 H159        2.5665  -16.9925  -43.9573 H         1 UNK         0.3000 
    160 H160        3.4760  -20.3736  -43.2136 H         1 UNK         0.0600 
    161 H161        5.1813  -17.9480  -44.0022 H         1 UNK         0.0600 
    162 H162        5.2719  -19.5425  -44.7409 H         1 UNK         0.0600 
    163 H163        5.7217  -19.3351  -43.0560 H         1 UNK         0.0600 
    164 H164        3.9395  -17.9021  -41.8553 H         1 UNK         0.3000 
    165 H165        0.8848  -17.7044  -40.0755 H         1 UNK         0.0600 
    166 H166        3.6494  -18.5483  -39.0507 H         1 UNK         0.0600 
    167 H167        2.3657  -17.8115  -38.0908 H         1 UNK         0.0600 
    168 H168        2.1467  -19.4183  -38.7650 H         1 UNK         0.0600 
    169 H169        3.2612  -16.1990  -39.8213 H         1 UNK         0.3000 
    170 H170        3.8183  -14.3917  -40.9284 H         1 UNK         0.0600 
    171 H171        3.9020  -14.8464  -43.3822 H         1 UNK         0.0600 
    172 H172        2.4353  -13.8978  -43.6006 H         1 UNK         0.0600 
    173 H173        3.9098  -13.1215  -43.0356 H         1 UNK         0.0600 
    174 H174        1.6035  -12.6539  -41.7096 H         1 UNK         0.3000 
    175 H175        0.0935  -12.0835  -39.1588 H         1 UNK         0.0600 
    176 H176        0.9193  -10.1230  -37.8318 H         1 UNK         0.0600 
    177 H177        1.5446  -11.6439  -37.2207 H         1 UNK         0.0600 
    178 H178        2.5831  -10.5951  -38.1754 H         1 UNK         0.0600 
    179 H179       -0.0340  -10.6225  -40.7887 H         1 UNK         0.3000 
    180 H180        0.2787   -8.9557  -42.0869 H         1 UNK         0.0600 
    181 H181        1.5253   -6.9619  -42.7709 H         1 UNK         0.0600 
    182 H182        1.8086   -7.2515  -41.0624 H         1 UNK         0.0600 
    183 H183        3.0498   -7.6697  -42.2370 H         1 UNK         0.0600 
    184 H184        1.9975   -8.8860  -44.1902 H         1 UNK         0.3000 
    185 H185        1.4828   -9.9872  -46.0329 H         1 UNK         0.0600 
    186 H186        2.9462  -11.7210  -46.9482 H         1 UNK         0.0600 
    187 H187        3.6301  -11.1776  -45.4234 H         1 UNK         0.0600 
    188 H188        2.7783  -12.7155  -45.5104 H         1 UNK         0.0600 
    189 H189        0.3242  -12.7207  -45.7527 H         1 UNK         0.3000 
    190 H190       -1.8614  -19.4760  -46.9058 H         1 UNK         0.3000 
    191 H191       -3.8168  -19.5925  -48.9420 H         1 UNK         0.0600 
    192 H192       -5.0998  -18.0774  -47.4186 H         1 UNK         0.0600 
    193 H193       -3.4178  -17.5912  -47.5500 H         1 UNK         0.0600 
    194 H194       -3.9781  -18.4331  -46.1088 H         1 UNK         0.0600 
    195 H195       -3.7675  -21.1116  -45.6886 H         1 UNK         0.3000 
    196 H196       -6.3893  -22.2398  -45.8174 H         1 UNK         0.0600 
    197 H197       -5.5946  -23.5990  -43.8778 H         1 UNK         0.0600 
    198 H198       -5.1855  -21.9012  -43.6832 H         1 UNK         0.0600 
    199 H199       -3.9446  -23.0573  -44.1608 H         1 UNK         0.0600 
    200 H200       -3.1623  -23.5476  -46.6766 H         1 UNK         0.3000 
    201 H201       -4.0258  -26.1594  -47.4361 H         1 UNK         0.0600 
    202 H202       -1.6893  -25.6935  -46.8728 H         1 UNK         0.0600 
    203 H203       -1.5590  -24.5043  -48.1629 H         1 UNK         0.0600 
    204 H204       -1.7403  -26.2091  -48.5510 H         1 UNK         0.0600 
    205 H205       -3.6712  -23.1291  -49.2659 H         1 UNK         0.3000 
    206 H206       -4.3467  -22.3947  -51.2337 H         1 UNK         0.0600 
    207 H207       -6.5994  -22.8333  -50.3352 H         1 UNK         0.0600 
    208 H208       -6.5934  -23.1338  -52.0617 H         1 UNK         0.0600 
    209 H209       -6.5782  -24.4876  -50.9281 H         1 UNK         0.0600 
    210 H210       -5.7164  -25.1969  -52.6346 H         1 UNK         0.3000 
    211 H211       -3.9296  -25.3393  -54.8110 H         1 UNK         0.0600 
    212 H212       -5.9547  -27.3954  -53.7874 H         1 UNK         0.0600 
    213 H213       -5.2494  -27.3658  -55.3993 H         1 UNK         0.0600 
    214 H214       -6.3080  -26.0627  -54.8869 H         1 UNK         0.0600 
    215 H215       -3.6060  -26.8082  -51.6557 H         1 UNK         0.3000 
    216 H216       -1.7408  -28.8924  -52.5434 H         1 UNK         0.0600 
    217 H217       -1.5973  -29.3841  -50.1142 H         1 UNK         0.0600 
    218 H218       -3.2676  -29.3163  -50.6510 H         1 UNK         0.0600 
    219 H219       -2.5778  -27.9721  -49.7497 H         1 UNK         0.0600 
    220 H220       -1.4299  -25.5131  -51.9601 H         1 UNK         0.3000 
    221 H221        1.5243  -25.7920  -51.5077 H         1 UNK         0.0600 
    222 H222       -0.3804  -23.7836  -50.2028 H         1 UNK         0.0600 
    223 H223        0.4704  -25.1019  -49.3887 H         1 UNK         0.0600 
    224 H224        1.3742  -23.7613  -50.0691 H         1 UNK         0.0600 
    225 H225       -1.1378  -23.9397  -53.0096 H         1 UNK         0.3000 
    226 H226        0.8025  -22.4874  -54.7450 H         1 UNK         0.0600 
    227 H227       -0.1093  -21.0511  -52.8728 H         1 UNK         0.0600 
    228 H228       -0.6696  -20.4998  -54.4427 H         1 UNK         0.0600 
    229 H229       -1.7482  -21.4181  -53.3950 H         1 UNK         0.0600 
    230 H230       -0.7256  -21.3501  -56.4931 H         1 UNK         0.3000 
    231 H231       -1.8120  -23.4804  -58.1047 H         1 UNK         0.0600 
    232 H232       -1.9376  -21.7020  -59.8241 H         1 UNK         0.0600 
    233 H233       -0.3759  -21.6749  -59.0267 H         1 UNK         0.0600 
    234 H234       -1.5963  -20.4701  -58.6136 H         1 UNK         0.0600 
    235 H235       -3.3875  -23.4633  -55.9404 H         1 UNK         0.3000 
    236 H236       -5.4831  -23.5325  -55.1660 H         1 UNK         0.0600 
    237 H237       -6.2781  -23.5036  -58.1217 H         1 UNK         0.0600 
    238 H238       -5.7221  -24.9202  -57.2318 H         1 UNK         0.0600 
    239 H239       -7.2330  -24.1440  -56.7902 H         1 UNK         0.0600 
    240 H240       -4.4826  -20.9644  -55.0041 H         1 UNK         0.3000 
    241 H241       -6.4306  -19.0248  -55.8271 H         1 UNK         0.0600 
    242 H242       -8.4660  -18.3655  -52.9467 H         1 UNK         0.3800 
    243 H243       -7.7205  -17.5830  -54.3098 H         1 UNK         0.3800 
    244 H244       -4.1088  -18.3581  -55.5353 H         1 UNK         0.0800 
    245 H245       -5.1430  -17.4193  -54.5013 H         1 UNK         0.0800 
    246 H246       -1.9323  -17.4730  -54.0652 H         1 UNK         0.0800 
    247 H247       -3.1858  -16.5140  -53.3158 H         1 UNK         0.0800 
@<TRIPOS>BOND
     1    1    2 1    
     2    1  127 1    
     3    1  128 1    
     4    1  129 1    
     5    2    3 2    
     6    2    4 am   BACKBONE|DICT|INTERRES
     7    4    5 1    
     8    4  130 1    
     9    5    6 1    
    10    5   65 1    
    11    5  131 1    
    12    6    7 1    
    13    6  132 1    
    14    6  133 1    
    15    7    8 1    
    16    8    9 1    
    17    8  134 1    
    18    8  135 1    
    19    9   10 ar   
    20    9   14 ar   
    21   10   11 ar   
    22   10  136 1    
    23   11   12 ar   
    24   11  126 1    
    25   12   13 ar   
    26   12  137 1    
    27   13   14 ar   
    28   13   15 1    
    29   14  138 1    
    30   15   16 1    
    31   15  139 1    
    32   15  140 1    
    33   16   17 1    
    34   17   18 1    
    35   17  141 1    
    36   17  142 1    
    37   18   19 1    
    38   18   67 1    
    39   18  143 1    
    40   19   20 am   BACKBONE|DICT|INTERRES
    41   19  144 1    
    42   20   21 2    
    43   20   22 1    
    44   22   23 1    
    45   22   24 1    
    46   22  145 1    
    47   23  146 1    
    48   23  147 1    
    49   23  148 1    
    50   24   25 am   BACKBONE|DICT|INTERRES
    51   24  149 1    
    52   25   26 2    
    53   25   27 1    
    54   27   28 1    
    55   27   29 1    
    56   27  150 1    
    57   28  151 1    
    58   28  152 1    
    59   28  153 1    
    60   29   30 am   BACKBONE|DICT|INTERRES
    61   29  154 1    
    62   30   31 2    
    63   30   32 1    
    64   32   33 1    
    65   32   34 1    
    66   32  155 1    
    67   33  156 1    
    68   33  157 1    
    69   33  158 1    
    70   34   35 am   BACKBONE|DICT|INTERRES
    71   34  159 1    
    72   35   36 2    
    73   35   37 1    
    74   37   38 1    
    75   37   39 1    
    76   37  160 1    
    77   38  161 1    
    78   38  162 1    
    79   38  163 1    
    80   39   40 am   BACKBONE|DICT|INTERRES
    81   39  164 1    
    82   40   41 2    
    83   40   42 1    
    84   42   43 1    
    85   42   44 1    
    86   42  165 1    
    87   43  166 1    
    88   43  167 1    
    89   43  168 1    
    90   44   45 am   BACKBONE|DICT|INTERRES
    91   44  169 1    
    92   45   46 2    
    93   45   47 1    
    94   47   48 1    
    95   47   49 1    
    96   47  170 1    
    97   48  171 1    
    98   48  172 1    
    99   48  173 1    
   100   49   50 am   BACKBONE|DICT|INTERRES
   101   49  174 1    
   102   50   51 2    
   103   50   52 1    
   104   52   53 1    
   105   52   54 1    
   106   52  175 1    
   107   53  176 1    
   108   53  177 1    
   109   53  178 1    
   110   54   55 am   BACKBONE|DICT|INTERRES
   111   54  179 1    
   112   55   56 2    
   113   55   57 1    
   114   57   58 1    
   115   57   59 1    
   116   57  180 1    
   117   58  181 1    
   118   58  182 1    
   119   58  183 1    
   120   59   60 am   BACKBONE|DICT|INTERRES
   121   59  184 1    
   122   60   61 2    
   123   60   62 1    
   124   62   63 1    
   125   62   64 1    
   126   62  185 1    
   127   63  186 1    
   128   63  187 1    
   129   63  188 1    
   130   64   65 am   BACKBONE|DICT|INTERRES
   131   64  189 1    
   132   65   66 2    
   133   67   68 2    
   134   67   69 am   BACKBONE|DICT|INTERRES
   135   69   70 1    
   136   69  190 1    
   137   70   71 1    
   138   70   72 1    
   139   70  191 1    
   140   71  192 1    
   141   71  193 1    
   142   71  194 1    
   143   72   73 2    
   144   72   74 am   BACKBONE|DICT|INTERRES
   145   74   75 1    
   146   74  195 1    
   147   75   76 1    
   148   75   77 1    
   149   75  196 1    
   150   76  197 1    
   151   76  198 1    
   152   76  199 1    
   153   77   78 2    
   154   77   79 am   BACKBONE|DICT|INTERRES
   155   79   80 1    
   156   79  200 1    
   157   80   81 1    
   158   80   82 1    
   159   80  201 1    
   160   81  202 1    
   161   81  203 1    
   162   81  204 1    
   163   82   83 2    
   164   82   84 am   BACKBONE|DICT|INTERRES
   165   84   85 1    
   166   84  205 1    
   167   85   86 1    
   168   85   87 1    
   169   85  206 1    
   170   86  207 1    
   171   86  208 1    
   172   86  209 1    
   173   87   88 2    
   174   87   89 am   BACKBONE|DICT|INTERRES
   175   89   90 1    
   176   89  210 1    
   177   90   91 1    
   178   90   92 1    
   179   90  211 1    
   180   91  212 1    
   181   91  213 1    
   182   91  214 1    
   183   92   93 2    
   184   92   94 am   BACKBONE|DICT|INTERRES
   185   94   95 1    
   186   94  215 1    
   187   95   96 1    
   188   95   97 1    
   189   95  216 1    
   190   96  217 1    
   191   96  218 1    
   192   96  219 1    
   193   97   98 2    
   194   97   99 am   BACKBONE|DICT|INTERRES
   195   99  100 1    
   196   99  220 1    
   197  100  101 1    
   198  100  102 1    
   199  100  221 1    
   200  101  222 1    
   201  101  223 1    
   202  101  224 1    
   203  102  103 2    
   204  102  104 am   BACKBONE|DICT|INTERRES
   205  104  105 1    
   206  104  225 1    
   207  105  106 1    
   208  105  107 1    
   209  105  226 1    
   210  106  227 1    
   211  106  228 1    
   212  106  229 1    
   213  107  108 2    
   214  107  109 am   BACKBONE|DICT|INTERRES
   215  109  110 1    
   216  109  230 1    
   217  110  111 1    
   218  110  112 1    
   219  110  231 1    
   220  111  232 1    
   221  111  233 1    
   222  111  234 1    
   223  112  113 2    
   224  112  114 am   BACKBONE|DICT|INTERRES
   225  114  115 1    
   226  114  235 1    
   227  115  116 1    
   228  115  117 1    
   229  115  236 1    
   230  116  237 1    
   231  116  238 1    
   232  116  239 1    
   233  117  118 2    
   234  117  119 am   BACKBONE|DICT|INTERRES
   235  119  120 1    
   236  119  240 1    
   237  120  121 1    
   238  120  124 1    
   239  120  241 1    
   240  121  122 am   BACKBONE|DICT|INTERRES
   241  121  123 2    
   242  122  242 1    
   243  122  243 1    
   244  124  125 1    
   245  124  244 1    
   246  124  245 1    
   247  125  126 1    
   248  126  246 1    
   249  126  247 1    
@<TRIPOS>SUBSTRUCTURE
     1 UNK         1 GROUP             0       ****    0 ROOT    
