@<TRIPOS>MOLECULE
3R540
247   249    1
SMALL
USER_CHARGES


@<TRIPOS>ATOM
      1 CA          2.4247  -13.5168  -47.1945 C.3       0 UNK        -0.1800 
      2 C           1.2544  -14.2489  -46.5543 C.2       0 UNK         0.5000 
      3 O           1.4027  -14.8417  -45.4884 O.2       0 UNK        -0.5000 
      4 N           0.0841  -14.1910  -47.1974 N.am      1 UNK        -0.5000 
      5 CA         -1.1640  -14.8105  -46.7313 C.3       1 UNK         0.1400 
      6 C6         -2.0242  -15.3033  -47.9242 C.3       23 UNK        -0.0398 
      7 S7         -1.3163  -16.7952  -48.6978 S.3       23 UNK        -0.2404 
      8 C8         -0.3637  -16.1089  -50.0951 C.3       23 UNK        -0.0205 
      9 C9          0.4352  -17.1929  -50.8082 C.ar      23 UNK        -0.0193 
     10 C10         0.2792  -17.4247  -52.1789 C.ar      23 UNK        -0.1150 
     11 C11         0.9964  -18.4470  -52.8126 C.ar      23 UNK        -0.0193 
     12 C12         1.8660  -19.2458  -52.0629 C.ar      23 UNK        -0.1150 
     13 C13         2.0075  -19.0409  -50.6896 C.ar      23 UNK        -0.0193 
     14 C14         1.3235  -17.9871  -50.0810 C.ar      23 UNK        -0.1150 
     15 C15         2.8412  -19.9940  -49.8439 C.3       23 UNK        -0.0205 
     16 S16         2.0176  -21.6075  -49.5746 S.3       23 UNK        -0.2404 
     17 C17         0.2602  -21.1652  -49.3255 C.3       23 UNK        -0.0398 
     18 CA         -0.4550  -22.0053  -48.2450 C.3       11 UNK         0.1400 
     19 N           0.0883  -21.7713  -46.9025 N.am      11 UNK        -0.5000 
     20 C          -0.2044  -22.5155  -45.8243 C.2       10 UNK         0.5000 
     21 O          -0.9213  -23.5137  -45.8693 O.2       10 UNK        -0.5000 
     22 CA          0.3276  -22.0348  -44.4556 C.3       10 UNK         0.1400 
     23 CB          1.7092  -22.6425  -44.1766 C.3       10 UNK        -0.1800 
     24 N           0.4107  -20.5773  -44.3434 N.am      10 UNK        -0.5000 
     25 C          -0.6111  -19.7324  -44.5493 C.2       9 UNK         0.5000 
     26 O          -1.7767  -20.1106  -44.6617 O.2       9 UNK        -0.5000 
     27 CA         -0.2886  -18.2355  -44.7524 C.3       9 UNK         0.1400 
     28 CB         -0.7803  -17.4050  -43.5606 C.3       9 UNK        -0.1800 
     29 N           1.1272  -17.9389  -44.9871 N.am      9 UNK        -0.5000 
     30 C           1.8852  -18.4396  -45.9730 C.2       8 UNK         0.5000 
     31 O           1.4390  -19.1624  -46.8624 O.2       8 UNK        -0.5000 
     32 CA          3.4051  -18.1873  -45.8980 C.3       8 UNK         0.1400 
     33 CB          3.8514  -17.1022  -46.8864 C.3       8 UNK        -0.1800 
     34 N           3.8912  -17.8416  -44.5592 N.am      8 UNK        -0.5000 
     35 C           3.8188  -18.6152  -43.4692 C.2       7 UNK         0.5000 
     36 O           3.3050  -19.7347  -43.4710 O.2       7 UNK        -0.5000 
     37 CA          4.3729  -18.0437  -42.1487 C.3       7 UNK         0.1400 
     38 CB          5.8611  -18.3991  -41.9746 C.3       7 UNK        -0.1800 
     39 N           4.1375  -16.6074  -41.9335 N.am      7 UNK        -0.5000 
     40 C           4.6448  -15.5488  -42.5873 C.2       6 UNK         0.5000 
     41 O           5.3870  -15.6468  -43.5651 O.2       6 UNK        -0.5000 
     42 CA          4.2579  -14.1414  -42.0846 C.3       6 UNK         0.1400 
     43 CB          3.4433  -13.3806  -43.1411 C.3       6 UNK        -0.1800 
     44 N           3.4987  -14.1678  -40.8334 N.am      6 UNK        -0.5000 
     45 C           4.0484  -14.2658  -39.6140 C.2       5 UNK         0.5000 
     46 O           5.2636  -14.2806  -39.4153 O.2       5 UNK        -0.5000 
     47 CA          3.0888  -14.3875  -38.4120 C.3       5 UNK         0.1400 
     48 CB          2.9228  -13.0256  -37.7202 C.3       5 UNK        -0.1800 
     49 N           1.7622  -14.9047  -38.7557 N.am      5 UNK        -0.5000 
     50 C           1.5027  -16.1217  -39.2548 C.2       4 UNK         0.5000 
     51 O           2.3675  -16.9702  -39.4725 O.2       4 UNK        -0.5000 
     52 CA          0.0360  -16.4186  -39.6226 C.3       4 UNK         0.1400 
     53 CB         -0.6803  -17.1161  -38.4570 C.3       4 UNK        -0.1800 
     54 N          -0.7259  -15.2268  -40.0136 N.am      4 UNK        -0.5000 
     55 C          -0.4475  -14.4470  -41.0669 C.2       3 UNK         0.5000 
     56 O           0.4952  -14.6426  -41.8367 O.2       3 UNK        -0.5000 
     57 CA         -1.3293  -13.2068  -41.2436 C.3       3 UNK         0.1400 
     58 CB         -0.8129  -12.0589  -40.3543 C.3       3 UNK        -0.1800 
     59 N          -1.3254  -12.7967  -42.6453 N.am      3 UNK        -0.5000 
     60 C          -2.2370  -11.9927  -43.2066 C.2       2 UNK         0.5000 
     61 O          -3.1974  -11.5224  -42.5947 O.2       2 UNK        -0.5000 
     62 CA         -2.0559  -11.6368  -44.6950 C.3       2 UNK         0.1400 
     63 CB         -1.2412  -10.3416  -44.8375 C.3       2 UNK        -0.1800 
     64 N          -1.4214  -12.6835  -45.4971 N.am      2 UNK        -0.5000 
     65 C          -1.9618  -13.8752  -45.7912 C.2       1 UNK         0.5000 
     66 O          -3.0542  -14.2434  -45.3582 O.2       1 UNK        -0.5000 
     67 C          -1.9738  -21.7325  -48.3140 C.2       11 UNK         0.5000 
     68 O          -2.6657  -22.3879  -49.0934 O.2       11 UNK        -0.5000 
     69 N          -2.4740  -20.7782  -47.5158 N.am      12 UNK        -0.5000 
     70 CA         -3.9011  -20.4746  -47.4012 C.3       12 UNK         0.1400 
     71 CB         -4.1025  -19.0355  -46.9038 C.3       12 UNK        -0.1800 
     72 C          -4.6179  -21.4881  -46.4966 C.2       12 UNK         0.5000 
     73 O          -5.7329  -21.8942  -46.8196 O.2       12 UNK        -0.5000 
     74 N          -3.9488  -21.9301  -45.4215 N.am      13 UNK        -0.5000 
     75 CA         -4.4148  -22.9982  -44.5309 C.3       13 UNK         0.1400 
     76 CB         -3.4801  -23.1002  -43.3169 C.3       13 UNK        -0.1800 
     77 C          -4.5343  -24.3586  -45.2480 C.2       13 UNK         0.5000 
     78 O          -5.4893  -25.0961  -45.0038 O.2       13 UNK        -0.5000 
     79 N          -3.5914  -24.6381  -46.1588 N.am      14 UNK        -0.5000 
     80 CA         -3.6000  -25.7881  -47.0671 C.3       14 UNK         0.1400 
     81 CB         -2.1769  -25.9886  -47.6133 C.3       14 UNK        -0.1800 
     82 C          -4.6017  -25.6491  -48.2346 C.2       14 UNK         0.5000 
     83 O          -4.7927  -26.6134  -48.9755 O.2       14 UNK        -0.5000 
     84 N          -5.1938  -24.4559  -48.3959 N.am      15 UNK        -0.5000 
     85 CA         -6.1404  -24.0340  -49.4346 C.3       15 UNK         0.1400 
     86 CB         -7.4142  -24.9026  -49.4277 C.3       15 UNK        -0.1800 
     87 C          -5.5308  -23.9036  -50.8451 C.2       15 UNK         0.5000 
     88 O          -6.2681  -23.6364  -51.7938 O.2       15 UNK        -0.5000 
     89 N          -4.2030  -24.0271  -50.9692 N.am      16 UNK        -0.5000 
     90 CA         -3.4633  -23.8657  -52.2198 C.3       16 UNK         0.1400 
     91 CB         -2.0131  -24.3348  -52.0297 C.3       16 UNK        -0.1800 
     92 C          -3.5046  -22.4164  -52.7255 C.2       16 UNK         0.5000 
     93 O          -3.7288  -22.1957  -53.9149 O.2       16 UNK        -0.5000 
     94 N          -3.3337  -21.4549  -51.8080 N.am      17 UNK        -0.5000 
     95 CA         -3.4377  -20.0249  -52.1069 C.3       17 UNK         0.1400 
     96 CB         -2.7435  -19.2078  -51.0098 C.3       17 UNK        -0.1800 
     97 C          -4.8919  -19.5627  -52.3064 C.2       17 UNK         0.5000 
     98 O          -5.1244  -18.6144  -53.0552 O.2       17 UNK        -0.5000 
     99 N          -5.8447  -20.2533  -51.6631 N.am      18 UNK        -0.5000 
    100 CA        -7.2811  -20.0084  -51.8067 C.3       18 UNK         0.1400 
    101 CB        -8.0402  -20.6968  -50.6615 C.3       18 UNK        -0.1800 
    102 C         -7.8066  -20.4725  -53.1777 C.2       18 UNK         0.5000 
    103 O         -8.5754  -19.7507  -53.8133 O.2       18 UNK        -0.5000 
    104 N         -7.3551  -21.6543  -53.6203 N.am      19 UNK        -0.5000 
    105 CA        -7.6626  -22.2299  -54.9310 C.3       19 UNK         0.1400 
    106 CB        -7.3767  -23.7395  -54.8792 C.3       19 UNK        -0.1800 
    107 C         -6.8695  -21.5857  -56.0859 C.2       19 UNK         0.5000 
    108 O         -7.2357  -21.7842  -57.2448 O.2       19 UNK        -0.5000 
    109 N         -5.7859  -20.8671  -55.7525 N.am      20 UNK        -0.5000 
    110 CA        -4.7619  -20.3212  -56.6527 C.3       20 UNK         0.1400 
    111 CB        -5.3507  -19.2549  -57.5991 C.3       20 UNK        -0.1800 
    112 C         -3.9797  -21.4316  -57.3901 C.2       20 UNK         0.5000 
    113 O         -3.5435  -21.2463  -58.5273 O.2       20 UNK        -0.5000 
    114 N         -3.8097  -22.5691  -56.7061 N.am      21 UNK        -0.5000 
    115 CA        -3.0647  -23.7450  -57.1513 C.3       21 UNK         0.1400 
    116 CB        -3.7253  -24.9904  -56.5384 C.3       21 UNK        -0.1800 
    117 C         -1.5766  -23.6726  -56.7556 C.2       21 UNK         0.5000 
    118 O         -0.7910  -24.5091  -57.2020 O.2       21 UNK        -0.5000 
    119 N         -1.2182  -22.6878  -55.9219 N.am      22 UNK        -0.5000 
    120 CA         0.1382  -22.4213  -55.4219 C.3       22 UNK         0.1400 
    121 C          1.1875  -21.9792  -56.4879 C.2       22 UNK         0.5000 
    122 N          0.7955  -21.6188  -57.7040 N.am      22 UNK        -0.7600 
    123 O          2.3822  -21.9706  -56.2042 O.2       22 UNK        -0.5000 
    124 C124        0.0982  -21.4456  -54.2186 C.3       23 UNK        -0.0398 
    125 S125       -0.5932  -19.8015  -54.6334 S.3       23 UNK        -0.2404 
    126 C126        0.8171  -18.6986  -54.3025 C.3       23 UNK        -0.0205 
    127 H127        2.9821  -14.1903  -47.8450 H         1 UNK         0.0600 
    128 H128        3.1024  -13.1390  -46.4290 H         1 UNK         0.0600 
    129 H129        2.0846  -12.6697  -47.7906 H         1 UNK         0.0600 
    130 H130        0.0209  -13.6763  -48.0639 H         1 UNK         0.3000 
    131 H131       -0.9173  -15.6805  -46.1230 H         1 UNK         0.0600 
    132 H132       -3.0272  -15.5810  -47.5956 H         1 UNK         0.0800 
    133 H133       -2.1583  -14.5177  -48.6693 H         1 UNK         0.0800 
    134 H134        0.3285  -15.3489  -49.7331 H         1 UNK         0.0800 
    135 H135       -1.0484  -15.6139  -50.7853 H         1 UNK         0.0800 
    136 H136       -0.4086  -16.8197  -52.7527 H         1 UNK         0.1150 
    137 H137        2.4115  -20.0493  -52.5356 H         1 UNK         0.1150 
    138 H138        1.4274  -17.8210  -49.0196 H         1 UNK         0.1150 
    139 H139        3.8030  -20.1642  -50.3292 H         1 UNK         0.0800 
    140 H140        3.0685  -19.5478  -48.8762 H         1 UNK         0.0800 
    141 H141       -0.2279  -21.2823  -50.2951 H         1 UNK         0.0800 
    142 H142        0.1696  -20.1126  -49.0616 H         1 UNK         0.0800 
    143 H143       -0.3098  -23.0607  -48.4850 H         1 UNK         0.0600 
    144 H144        0.6727  -20.9457  -46.7980 H         1 UNK         0.3000 
    145 H145       -0.3624  -22.3849  -43.6866 H         1 UNK         0.0600 
    146 H146        1.6780  -23.7312  -44.2366 H         1 UNK         0.0600 
    147 H147        2.0601  -22.3816  -43.1779 H         1 UNK         0.0600 
    148 H148        2.4532  -22.2930  -44.8939 H         1 UNK         0.0600 
    149 H149        1.3406  -20.1912  -44.2268 H         1 UNK         0.3000 
    150 H150       -0.8378  -17.9236  -45.6420 H         1 UNK         0.0600 
    151 H151       -0.2451  -17.6716  -42.6505 H         1 UNK         0.0600 
    152 H152       -1.8441  -17.5643  -43.3793 H         1 UNK         0.0600 
    153 H153       -0.6365  -16.3386  -43.7350 H         1 UNK         0.0600 
    154 H154        1.5725  -17.3199  -44.3251 H         1 UNK         0.3000 
    155 H155        3.8868  -19.1229  -46.1891 H         1 UNK         0.0600 
    156 H156        4.9361  -17.0961  -46.9945 H         1 UNK         0.0600 
    157 H157        3.5503  -16.1132  -46.5477 H         1 UNK         0.0600 
    158 H158        3.4280  -17.2602  -47.8782 H         1 UNK         0.0600 
    159 H159        4.3578  -16.9446  -44.4559 H         1 UNK         0.3000 
    160 H160        3.8264  -18.5455  -41.3486 H         1 UNK         0.0600 
    161 H161        6.4819  -17.9533  -42.7522 H         1 UNK         0.0600 
    162 H162        6.0100  -19.4786  -42.0203 H         1 UNK         0.0600 
    163 H163        6.2365  -18.0600  -41.0091 H         1 UNK         0.0600 
    164 H164        3.5212  -16.4109  -41.1531 H         1 UNK         0.3000 
    165 H165        5.1883  -13.5924  -41.9257 H         1 UNK         0.0600 
    166 H166        3.2270  -12.3627  -42.8166 H         1 UNK         0.0600 
    167 H167        3.9867  -13.3131  -44.0841 H         1 UNK         0.0600 
    168 H168        2.4947  -13.8746  -43.3443 H         1 UNK         0.0600 
    169 H169        2.4902  -14.1883  -40.9245 H         1 UNK         0.3000 
    170 H170        3.5431  -15.0814  -37.7018 H         1 UNK         0.0600 
    171 H171        2.3171  -13.1118  -36.8179 H         1 UNK         0.0600 
    172 H172        2.4465  -12.2966  -38.3773 H         1 UNK         0.0600 
    173 H173        3.8895  -12.6172  -37.4225 H         1 UNK         0.0600 
    174 H174        0.9856  -14.2758  -38.6165 H         1 UNK         0.3000 
    175 H175        0.0483  -17.1037  -40.4704 H         1 UNK         0.0600 
    176 H176       -0.1491  -18.0205  -38.1569 H         1 UNK         0.0600 
    177 H177       -0.7488  -16.4697  -37.5811 H         1 UNK         0.0600 
    178 H178       -1.6914  -17.4132  -38.7361 H         1 UNK         0.0600 
    179 H179       -1.5104  -14.9877  -39.4238 H         1 UNK         0.3000 
    180 H180       -2.3490  -13.4675  -40.9520 H         1 UNK         0.0600 
    181 H181        0.1993  -11.7619  -40.6326 H         1 UNK         0.0600 
    182 H182       -0.7926  -12.3513  -39.3038 H         1 UNK         0.0600 
    183 H183       -1.4505  -11.1780  -40.4277 H         1 UNK         0.0600 
    184 H184       -0.5753  -13.1873  -43.2022 H         1 UNK         0.3000 
    185 H185       -3.0503  -11.4584  -45.1097 H         1 UNK         0.0600 
    186 H186       -1.1849  -10.0221  -45.8783 H         1 UNK         0.0600 
    187 H187       -1.6993   -9.5275  -44.2740 H         1 UNK         0.0600 
    188 H188       -0.2226  -10.4644  -44.4669 H         1 UNK         0.0600 
    189 H189       -0.5139  -12.4703  -45.8834 H         1 UNK         0.3000 
    190 H190       -1.8603  -20.3112  -46.8628 H         1 UNK         0.3000 
    191 H191       -4.3584  -20.5466  -48.3901 H         1 UNK         0.0600 
    192 H192       -3.6430  -18.3182  -47.5826 H         1 UNK         0.0600 
    193 H193       -5.1638  -18.7908  -46.8469 H         1 UNK         0.0600 
    194 H194       -3.6795  -18.8779  -45.9123 H         1 UNK         0.0600 
    195 H195       -3.0619  -21.4920  -45.1922 H         1 UNK         0.3000 
    196 H196       -5.4084  -22.7205  -44.1730 H         1 UNK         0.0600 
    197 H197       -3.8670  -23.8141  -42.5889 H         1 UNK         0.0600 
    198 H198       -3.3795  -22.1396  -42.8111 H         1 UNK         0.0600 
    199 H199       -2.4840  -23.4360  -43.6034 H         1 UNK         0.0600 
    200 H200       -2.7864  -24.0221  -46.2245 H         1 UNK         0.3000 
    201 H201       -3.8794  -26.6778  -46.4994 H         1 UNK         0.0600 
    202 H202       -2.1232  -26.8618  -48.2648 H         1 UNK         0.0600 
    203 H203       -1.4626  -26.1447  -46.8047 H         1 UNK         0.0600 
    204 H204       -1.8442  -25.1259  -48.1917 H         1 UNK         0.0600 
    205 H205       -4.9734  -23.7371  -47.7186 H         1 UNK         0.3000 
    206 H206       -6.4416  -23.0239  -49.1568 H         1 UNK         0.0600 
    207 H207       -7.8415  -24.9672  -48.4270 H         1 UNK         0.0600 
    208 H208       -8.1795  -24.4785  -50.0789 H         1 UNK         0.0600 
    209 H209       -7.2185  -25.9164  -49.7773 H         1 UNK         0.0600 
    210 H210       -3.6553  -24.1395  -50.1270 H         1 UNK         0.3000 
    211 H211       -3.9331  -24.4985  -52.9755 H         1 UNK         0.0600 
    212 H212       -1.4877  -23.7391  -51.2821 H         1 UNK         0.0600 
    213 H213       -1.4544  -24.2596  -52.9637 H         1 UNK         0.0600 
    214 H214       -1.9759  -25.3771  -51.7127 H         1 UNK         0.0600 
    215 H215       -3.1520  -21.7271  -50.8463 H         1 UNK         0.3000 
    216 H216       -2.9166  -19.8306  -53.0438 H         1 UNK         0.0600 
    217 H217       -2.7807  -18.1419  -51.2380 H         1 UNK         0.0600 
    218 H218       -1.6916  -19.4768  -50.9228 H         1 UNK         0.0600 
    219 H219       -3.2118  -19.3476  -50.0375 H         1 UNK         0.0600 
    220 H220       -5.5670  -21.0364  -51.0931 H         1 UNK         0.3000 
    221 H221       -7.4539  -18.9329  -51.7263 H         1 UNK         0.0600 
    222 H222       -7.9584  -21.7823  -50.7127 H         1 UNK         0.0600 
    223 H223       -7.6674  -20.3759  -49.6885 H         1 UNK         0.0600 
    224 H224       -9.1020  -20.4506  -50.6998 H         1 UNK         0.0600 
    225 H225       -6.7856  -22.2277  -53.0039 H         1 UNK         0.3000 
    226 H226       -8.7253  -22.0873  -55.1374 H         1 UNK         0.0600 
    227 H227       -7.6218  -24.2199  -55.8273 H         1 UNK         0.0600 
    228 H228       -6.3249  -23.9412  -54.6705 H         1 UNK         0.0600 
    229 H229       -7.9698  -24.2268  -54.1051 H         1 UNK         0.0600 
    230 H230       -5.5710  -20.7998  -54.7674 H         1 UNK         0.3000 
    231 H231       -4.0360  -19.8214  -56.0093 H         1 UNK         0.0600 
    232 H232       -6.0263  -19.6906  -58.3354 H         1 UNK         0.0600 
    233 H233       -4.5596  -18.7425  -58.1475 H         1 UNK         0.0600 
    234 H234       -5.9023  -18.4970  -57.0428 H         1 UNK         0.0600 
    235 H235       -4.1227  -22.5818  -55.7394 H         1 UNK         0.3000 
    236 H236       -3.1186  -23.8228  -58.2391 H         1 UNK         0.0600 
    237 H237       -3.6838  -24.9720  -55.4487 H         1 UNK         0.0600 
    238 H238       -4.7727  -25.0651  -56.8320 H         1 UNK         0.0600 
    239 H239       -3.2288  -25.9025  -56.8716 H         1 UNK         0.0600 
    240 H240       -1.9367  -22.0561  -55.5973 H         1 UNK         0.3000 
    241 H241        0.5092  -23.3742  -55.0399 H         1 UNK         0.0600 
    242 H242        1.4833  -21.3394  -58.3856 H         1 UNK         0.3800 
    243 H243       -0.1821  -21.6168  -57.9470 H         1 UNK         0.3800 
    244 H244        1.0957  -21.3442  -53.7941 H         1 UNK         0.0800 
    245 H245       -0.5111  -21.8689  -53.4197 H         1 UNK         0.0800 
    246 H246        1.7262  -19.1178  -54.7369 H         1 UNK         0.0800 
    247 H247        0.6469  -17.7502  -54.8139 H         1 UNK         0.0800 
@<TRIPOS>BOND
     1    1    2 1    
     2    1  127 1    
     3    1  128 1    
     4    1  129 1    
     5    2    3 2    
     6    2    4 am   BACKBONE|DICT|INTERRES
     7    4    5 1    
     8    4  130 1    
     9    5    6 1    
    10    5   65 1    
    11    5  131 1    
    12    6    7 1    
    13    6  132 1    
    14    6  133 1    
    15    7    8 1    
    16    8    9 1    
    17    8  134 1    
    18    8  135 1    
    19    9   10 ar   
    20    9   14 ar   
    21   10   11 ar   
    22   10  136 1    
    23   11   12 ar   
    24   11  126 1    
    25   12   13 ar   
    26   12  137 1    
    27   13   14 ar   
    28   13   15 1    
    29   14  138 1    
    30   15   16 1    
    31   15  139 1    
    32   15  140 1    
    33   16   17 1    
    34   17   18 1    
    35   17  141 1    
    36   17  142 1    
    37   18   19 1    
    38   18   67 1    
    39   18  143 1    
    40   19   20 am   BACKBONE|DICT|INTERRES
    41   19  144 1    
    42   20   21 2    
    43   20   22 1    
    44   22   23 1    
    45   22   24 1    
    46   22  145 1    
    47   23  146 1    
    48   23  147 1    
    49   23  148 1    
    50   24   25 am   BACKBONE|DICT|INTERRES
    51   24  149 1    
    52   25   26 2    
    53   25   27 1    
    54   27   28 1    
    55   27   29 1    
    56   27  150 1    
    57   28  151 1    
    58   28  152 1    
    59   28  153 1    
    60   29   30 am   BACKBONE|DICT|INTERRES
    61   29  154 1    
    62   30   31 2    
    63   30   32 1    
    64   32   33 1    
    65   32   34 1    
    66   32  155 1    
    67   33  156 1    
    68   33  157 1    
    69   33  158 1    
    70   34   35 am   BACKBONE|DICT|INTERRES
    71   34  159 1    
    72   35   36 2    
    73   35   37 1    
    74   37   38 1    
    75   37   39 1    
    76   37  160 1    
    77   38  161 1    
    78   38  162 1    
    79   38  163 1    
    80   39   40 am   BACKBONE|DICT|INTERRES
    81   39  164 1    
    82   40   41 2    
    83   40   42 1    
    84   42   43 1    
    85   42   44 1    
    86   42  165 1    
    87   43  166 1    
    88   43  167 1    
    89   43  168 1    
    90   44   45 am   BACKBONE|DICT|INTERRES
    91   44  169 1    
    92   45   46 2    
    93   45   47 1    
    94   47   48 1    
    95   47   49 1    
    96   47  170 1    
    97   48  171 1    
    98   48  172 1    
    99   48  173 1    
   100   49   50 am   BACKBONE|DICT|INTERRES
   101   49  174 1    
   102   50   51 2    
   103   50   52 1    
   104   52   53 1    
   105   52   54 1    
   106   52  175 1    
   107   53  176 1    
   108   53  177 1    
   109   53  178 1    
   110   54   55 am   BACKBONE|DICT|INTERRES
   111   54  179 1    
   112   55   56 2    
   113   55   57 1    
   114   57   58 1    
   115   57   59 1    
   116   57  180 1    
   117   58  181 1    
   118   58  182 1    
   119   58  183 1    
   120   59   60 am   BACKBONE|DICT|INTERRES
   121   59  184 1    
   122   60   61 2    
   123   60   62 1    
   124   62   63 1    
   125   62   64 1    
   126   62  185 1    
   127   63  186 1    
   128   63  187 1    
   129   63  188 1    
   130   64   65 am   BACKBONE|DICT|INTERRES
   131   64  189 1    
   132   65   66 2    
   133   67   68 2    
   134   67   69 am   BACKBONE|DICT|INTERRES
   135   69   70 1    
   136   69  190 1    
   137   70   71 1    
   138   70   72 1    
   139   70  191 1    
   140   71  192 1    
   141   71  193 1    
   142   71  194 1    
   143   72   73 2    
   144   72   74 am   BACKBONE|DICT|INTERRES
   145   74   75 1    
   146   74  195 1    
   147   75   76 1    
   148   75   77 1    
   149   75  196 1    
   150   76  197 1    
   151   76  198 1    
   152   76  199 1    
   153   77   78 2    
   154   77   79 am   BACKBONE|DICT|INTERRES
   155   79   80 1    
   156   79  200 1    
   157   80   81 1    
   158   80   82 1    
   159   80  201 1    
   160   81  202 1    
   161   81  203 1    
   162   81  204 1    
   163   82   83 2    
   164   82   84 am   BACKBONE|DICT|INTERRES
   165   84   85 1    
   166   84  205 1    
   167   85   86 1    
   168   85   87 1    
   169   85  206 1    
   170   86  207 1    
   171   86  208 1    
   172   86  209 1    
   173   87   88 2    
   174   87   89 am   BACKBONE|DICT|INTERRES
   175   89   90 1    
   176   89  210 1    
   177   90   91 1    
   178   90   92 1    
   179   90  211 1    
   180   91  212 1    
   181   91  213 1    
   182   91  214 1    
   183   92   93 2    
   184   92   94 am   BACKBONE|DICT|INTERRES
   185   94   95 1    
   186   94  215 1    
   187   95   96 1    
   188   95   97 1    
   189   95  216 1    
   190   96  217 1    
   191   96  218 1    
   192   96  219 1    
   193   97   98 2    
   194   97   99 am   BACKBONE|DICT|INTERRES
   195   99  100 1    
   196   99  220 1    
   197  100  101 1    
   198  100  102 1    
   199  100  221 1    
   200  101  222 1    
   201  101  223 1    
   202  101  224 1    
   203  102  103 2    
   204  102  104 am   BACKBONE|DICT|INTERRES
   205  104  105 1    
   206  104  225 1    
   207  105  106 1    
   208  105  107 1    
   209  105  226 1    
   210  106  227 1    
   211  106  228 1    
   212  106  229 1    
   213  107  108 2    
   214  107  109 am   BACKBONE|DICT|INTERRES
   215  109  110 1    
   216  109  230 1    
   217  110  111 1    
   218  110  112 1    
   219  110  231 1    
   220  111  232 1    
   221  111  233 1    
   222  111  234 1    
   223  112  113 2    
   224  112  114 am   BACKBONE|DICT|INTERRES
   225  114  115 1    
   226  114  235 1    
   227  115  116 1    
   228  115  117 1    
   229  115  236 1    
   230  116  237 1    
   231  116  238 1    
   232  116  239 1    
   233  117  118 2    
   234  117  119 am   BACKBONE|DICT|INTERRES
   235  119  120 1    
   236  119  240 1    
   237  120  121 1    
   238  120  124 1    
   239  120  241 1    
   240  121  122 am   BACKBONE|DICT|INTERRES
   241  121  123 2    
   242  122  242 1    
   243  122  243 1    
   244  124  125 1    
   245  124  244 1    
   246  124  245 1    
   247  125  126 1    
   248  126  246 1    
   249  126  247 1    
@<TRIPOS>SUBSTRUCTURE
     1 UNK         1 GROUP             0       ****    0 ROOT    
