@<TRIPOS>MOLECULE
3R540
247   249    1
SMALL
USER_CHARGES


@<TRIPOS>ATOM
      1 CA          5.1006  -17.6642  -46.9911 C.3       0 UNK        -0.1800 
      2 C           4.6825  -16.2267  -46.7150 C.2       0 UNK         0.5000 
      3 O           4.8789  -15.7337  -45.6057 O.2       0 UNK        -0.5000 
      4 N           4.0927  -15.5618  -47.7144 N.am      1 UNK        -0.5000 
      5 CA          3.5959  -14.1835  -47.6305 C.3       1 UNK         0.1400 
      6 C6          2.5771  -13.8674  -48.7562 C.3       23 UNK        -0.0398 
      7 S7          1.2174  -15.0816  -48.8379 S.3       23 UNK        -0.2404 
      8 C8          1.5086  -15.7972  -50.4854 C.3       23 UNK        -0.0205 
      9 C9          0.8963  -17.1810  -50.6010 C.ar      23 UNK        -0.0193 
     10 C10        -0.4777  -17.3297  -50.8008 C.ar      23 UNK        -0.1150 
     11 C11        -1.0426  -18.6017  -50.9209 C.ar      23 UNK        -0.0193 
     12 C12        -0.2235  -19.7310  -50.8209 C.ar      23 UNK        -0.1150 
     13 C13         1.1545  -19.5952  -50.6232 C.ar      23 UNK        -0.0193 
     14 C14         1.7080  -18.3152  -50.5220 C.ar      23 UNK        -0.1150 
     15 C15         2.0396  -20.8344  -50.5489 C.3       23 UNK        -0.0205 
     16 S16         3.2197  -20.8328  -49.1531 S.3       23 UNK        -0.2404 
     17 C17         2.1613  -20.4998  -47.7037 C.3       23 UNK        -0.0398 
     18 CA          1.5474  -21.7802  -47.0863 C.3       11 UNK         0.1400 
     19 N           1.3331  -21.6528  -45.6434 N.am      11 UNK        -0.5000 
     20 C           0.9422  -22.6476  -44.8335 C.2       10 UNK         0.5000 
     21 O           0.7946  -23.8118  -45.2034 O.2       10 UNK        -0.5000 
     22 CA          0.5951  -22.2645  -43.3820 C.3       10 UNK         0.1400 
     23 CB          1.8577  -22.2150  -42.5103 C.3       10 UNK        -0.1800 
     24 N          -0.1203  -20.9886  -43.3008 N.am      10 UNK        -0.5000 
     25 C          -1.3267  -20.7686  -43.8447 C.2       9 UNK         0.5000 
     26 O          -1.9908  -21.6397  -44.4028 O.2       9 UNK        -0.5000 
     27 CA         -1.8614  -19.3288  -43.8093 C.3       9 UNK         0.1400 
     28 CB         -2.6103  -19.0588  -42.4983 C.3       9 UNK        -0.1800 
     29 N          -0.7943  -18.3452  -43.9931 N.am      9 UNK        -0.5000 
     30 C          -0.1739  -18.1235  -45.1616 C.2       8 UNK         0.5000 
     31 O          -0.4590  -18.7097  -46.2067 O.2       8 UNK        -0.5000 
     32 CA          0.9962  -17.1204  -45.1377 C.3       8 UNK         0.1400 
     33 CB          0.4808  -15.6742  -45.1648 C.3       8 UNK        -0.1800 
     34 N           1.8535  -17.2973  -43.9651 N.am      8 UNK        -0.5000 
     35 C           2.5980  -18.3859  -43.7281 C.2       7 UNK         0.5000 
     36 O           2.6772  -19.3364  -44.5042 O.2       7 UNK        -0.5000 
     37 CA          3.3310  -18.4561  -42.3747 C.3       7 UNK         0.1400 
     38 CB          4.7782  -17.9614  -42.5105 C.3       7 UNK        -0.1800 
     39 N           2.6528  -17.7329  -41.2932 N.am      7 UNK        -0.5000 
     40 C           1.4297  -18.0304  -40.8295 C.2       6 UNK         0.5000 
     41 O           0.7241  -18.9168  -41.3143 O.2       6 UNK        -0.5000 
     42 CA          0.8834  -17.1913  -39.6610 C.3       6 UNK         0.1400 
     43 CB          1.9650  -16.3999  -38.8981 C.3       6 UNK        -0.1800 
     44 N          -0.1099  -16.2606  -40.1886 N.am      6 UNK        -0.5000 
     45 C          -1.4377  -16.4429  -40.1554 C.2       5 UNK         0.5000 
     46 O          -1.9790  -17.3863  -39.5776 O.2       5 UNK        -0.5000 
     47 CA         -2.3041  -15.3906  -40.8779 C.3       5 UNK         0.1400 
     48 CB         -3.7166  -15.2665  -40.2785 C.3       5 UNK        -0.1800 
     49 N          -1.6509  -14.0847  -40.8458 N.am      5 UNK        -0.5000 
     50 C          -1.4053  -13.3032  -41.9031 C.2       4 UNK         0.5000 
     51 O          -1.7941  -13.5451  -43.0464 O.2       4 UNK        -0.5000 
     52 CA         -0.5361  -12.0513  -41.6506 C.3       4 UNK         0.1400 
     53 CB         -0.4172  -11.6653  -40.1586 C.3       4 UNK        -0.1800 
     54 N           0.8068  -12.1690  -42.2336 N.am      4 UNK        -0.5000 
     55 C           1.6708  -13.1865  -42.0889 C.2       3 UNK         0.5000 
     56 O           1.4108  -14.2371  -41.4996 O.2       3 UNK        -0.5000 
     57 CA          3.0510  -12.9974  -42.7347 C.3       3 UNK         0.1400 
     58 CB          3.8960  -14.2860  -42.7202 C.3       3 UNK        -0.1800 
     59 N           2.9029  -12.4984  -44.1009 N.am      3 UNK        -0.5000 
     60 C           3.8701  -11.8811  -44.7860 C.2       2 UNK         0.5000 
     61 O           4.9819  -11.6149  -44.3233 O.2       2 UNK        -0.5000 
     62 CA          3.5461  -11.4915  -46.2363 C.3       2 UNK         0.1400 
     63 CB          3.4154   -9.9667  -46.3718 C.3       2 UNK        -0.1800 
     64 N           4.6245  -11.9560  -47.1091 N.am      2 UNK        -0.5000 
     65 C           4.7624  -13.1638  -47.6758 C.2       1 UNK         0.5000 
     66 O           5.7884  -13.4569  -48.2924 O.2       1 UNK        -0.5000 
     67 C           0.2506  -22.1895  -47.8127 C.2       11 UNK         0.5000 
     68 O           0.2677  -23.1485  -48.5821 O.2       11 UNK        -0.5000 
     69 N          -0.8591  -21.4950  -47.5223 N.am      12 UNK        -0.5000 
     70 CA         -2.1808  -21.7947  -48.0793 C.3       12 UNK         0.1400 
     71 CB         -3.1602  -20.6728  -47.7067 C.3       12 UNK        -0.1800 
     72 C          -2.7272  -23.1748  -47.6574 C.2       12 UNK         0.5000 
     73 O          -3.4000  -23.8292  -48.4512 O.2       12 UNK        -0.5000 
     74 N          -2.4129  -23.6135  -46.4316 N.am      13 UNK        -0.5000 
     75 CA         -2.7338  -24.9504  -45.9315 C.3       13 UNK         0.1400 
     76 CB         -2.5208  -24.9977  -44.4109 C.3       13 UNK        -0.1800 
     77 C          -1.9232  -26.0562  -46.6355 C.2       13 UNK         0.5000 
     78 O          -2.4726  -27.1230  -46.9130 O.2       13 UNK        -0.5000 
     79 N          -0.6399  -25.7855  -46.9126 N.am      14 UNK        -0.5000 
     80 CA          0.2647  -26.6890  -47.6242 C.3       14 UNK         0.1400 
     81 CB          1.7166  -26.2345  -47.4063 C.3       14 UNK        -0.1800 
     82 C          -0.0581  -26.7916  -49.1269 C.2       14 UNK         0.5000 
     83 O          -0.0495  -27.8957  -49.6734 O.2       14 UNK        -0.5000 
     84 N          -0.3272  -25.6434  -49.7603 N.am      15 UNK        -0.5000 
     85 CA         -0.7210  -25.5152  -51.1603 C.3       15 UNK         0.1400 
     86 CB         -0.1549  -24.1903  -51.7131 C.3       15 UNK        -0.1800 
     87 C          -2.2530  -25.6434  -51.2846 C.2       15 UNK         0.5000 
     88 O          -2.7899  -26.7352  -51.0886 O.2       15 UNK        -0.5000 
     89 N          -2.9308  -24.5393  -51.6088 N.am      16 UNK        -0.5000 
     90 CA         -4.3811  -24.4050  -51.6482 C.3       16 UNK         0.1400 
     91 CB         -4.9005  -24.7673  -53.0506 C.3       16 UNK        -0.1800 
     92 C          -4.7429  -22.9631  -51.2630 C.2       16 UNK         0.5000 
     93 O          -3.8556  -22.1110  -51.1684 O.2       16 UNK        -0.5000 
     94 N          -6.0380  -22.7158  -51.0423 N.am      17 UNK        -0.5000 
     95 CA         -6.5859  -21.4039  -50.7013 C.3       17 UNK         0.1400 
     96 CB         -8.0209  -21.5981  -50.1853 C.3       17 UNK        -0.1800 
     97 C          -6.5818  -20.4336  -51.8969 C.2       17 UNK         0.5000 
     98 O          -6.5324  -20.8643  -53.0525 O.2       17 UNK        -0.5000 
     99 N          -6.7192  -19.1342  -51.6012 N.am      18 UNK        -0.5000 
    100 CA        -6.8286  -18.0524  -52.5878 C.3       18 UNK         0.1400 
    101 CB        -6.8273  -16.7019  -51.8581 C.3       18 UNK        -0.1800 
    102 C         -8.0563  -18.1721  -53.5144 C.2       18 UNK         0.5000 
    103 O         -8.0073  -17.6961  -54.6483 O.2       18 UNK        -0.5000 
    104 N         -9.1068  -18.8635  -53.0482 N.am      19 UNK        -0.5000 
    105 CA       -10.2845  -19.2479  -53.8325 C.3       19 UNK         0.1400 
    106 CB       -11.3316  -19.8555  -52.8868 C.3       19 UNK        -0.1800 
    107 C         -9.9662  -20.2278  -54.9835 C.2       19 UNK         0.5000 
    108 O        -10.7042  -20.2627  -55.9682 O.2       19 UNK        -0.5000 
    109 N         -8.8645  -20.9790  -54.8520 N.am      20 UNK        -0.5000 
    110 CA        -8.3022  -21.8697  -55.8675 C.3       20 UNK         0.1400 
    111 CB        -7.9900  -23.2235  -55.2052 C.3       20 UNK        -0.1800 
    112 C         -7.0430  -21.2481  -56.5099 C.2       20 UNK         0.5000 
    113 O         -6.2025  -21.9792  -57.0378 O.2       20 UNK        -0.5000 
    114 N         -6.9051  -19.9145  -56.4157 N.am      21 UNK        -0.5000 
    115 CA        -5.7835  -19.0914  -56.8874 C.3       21 UNK         0.1400 
    116 CB        -5.7315  -19.0839  -58.4293 C.3       21 UNK        -0.1800 
    117 C         -4.4284  -19.4668  -56.2478 C.2       21 UNK         0.5000 
    118 O         -3.3797  -19.2279  -56.8488 O.2       21 UNK        -0.5000 
    119 N         -4.4804  -20.0640  -55.0497 N.am      22 UNK        -0.5000 
    120 CA        -3.3512  -20.6485  -54.3117 C.3       22 UNK         0.1400 
    121 C         -2.7298  -21.9128  -54.9816 C.2       22 UNK         0.5000 
    122 N         -3.3930  -22.5545  -55.9385 N.am      22 UNK        -0.7600 
    123 O         -1.6434  -22.3456  -54.6088 O.2       22 UNK        -0.5000 
    124 C124       -2.2879  -19.6079  -53.8626 C.3       23 UNK        -0.0398 
    125 S125       -3.0018  -18.2577  -52.8577 S.3       23 UNK        -0.2404 
    126 C126       -2.5369  -18.7471  -51.1651 C.3       23 UNK        -0.0205 
    127 H127        4.6877  -18.3271  -46.2309 H         1 UNK         0.0600 
    128 H128        6.1867  -17.7507  -46.9660 H         1 UNK         0.0600 
    129 H129        4.7511  -18.0091  -47.9648 H         1 UNK         0.0600 
    130 H130        3.9807  -16.0101  -48.6109 H         1 UNK         0.3000 
    131 H131        3.0836  -14.1035  -46.6718 H         1 UNK         0.0600 
    132 H132        3.0794  -13.8109  -49.7236 H         1 UNK         0.0800 
    133 H133        2.1278  -12.8853  -48.6044 H         1 UNK         0.0800 
    134 H134        1.0869  -15.1383  -51.2459 H         1 UNK         0.0800 
    135 H135        2.5794  -15.8536  -50.6864 H         1 UNK         0.0800 
    136 H136       -1.1074  -16.4538  -50.8721 H         1 UNK         0.1150 
    137 H137       -0.6588  -20.7163  -50.9118 H         1 UNK         0.1150 
    138 H138        2.7732  -18.2042  -50.3770 H         1 UNK         0.1150 
    139 H139        1.4341  -21.7391  -50.4976 H         1 UNK         0.0800 
    140 H140        2.6059  -20.9075  -51.4780 H         1 UNK         0.0800 
    141 H141        1.4053  -19.7471  -47.9322 H         1 UNK         0.0800 
    142 H142        2.8204  -20.0251  -46.9778 H         1 UNK         0.0800 
    143 H143        2.2620  -22.5968  -47.2115 H         1 UNK         0.0600 
    144 H144        1.5011  -20.7366  -45.2396 H         1 UNK         0.3000 
    145 H145       -0.0634  -23.0368  -42.9794 H         1 UNK         0.0600 
    146 H146        1.6280  -21.8951  -41.4937 H         1 UNK         0.0600 
    147 H147        2.3205  -23.2004  -42.4466 H         1 UNK         0.0600 
    148 H148        2.6031  -21.5345  -42.9193 H         1 UNK         0.0600 
    149 H149        0.3328  -20.2310  -42.8005 H         1 UNK         0.3000 
    150 H150       -2.5733  -19.2175  -44.6299 H         1 UNK         0.0600 
    151 H151       -3.4367  -19.7594  -42.3724 H         1 UNK         0.0600 
    152 H152       -3.0334  -18.0550  -42.4827 H         1 UNK         0.0600 
    153 H153       -1.9578  -19.1682  -41.6321 H         1 UNK         0.0600 
    154 H154       -0.4451  -17.8935  -43.1607 H         1 UNK         0.3000 
    155 H155        1.5998  -17.2869  -46.0329 H         1 UNK         0.0600 
    156 H156       -0.0959  -15.4330  -44.2710 H         1 UNK         0.0600 
    157 H157       -0.1645  -15.5056  -46.0278 H         1 UNK         0.0600 
    158 H158        1.3055  -14.9657  -45.2323 H         1 UNK         0.0600 
    159 H159        1.8360  -16.5687  -43.2670 H         1 UNK         0.3000 
    160 H160        3.3696  -19.5060  -42.0810 H         1 UNK         0.0600 
    161 H161        4.8266  -16.9166  -42.8132 H         1 UNK         0.0600 
    162 H162        5.3154  -18.5393  -43.2638 H         1 UNK         0.0600 
    163 H163        5.3232  -18.0667  -41.5724 H         1 UNK         0.0600 
    164 H164        3.1648  -16.9807  -40.8561 H         1 UNK         0.3000 
    165 H165        0.4228  -17.8860  -38.9559 H         1 UNK         0.0600 
    166 H166        1.5302  -15.8792  -38.0448 H         1 UNK         0.0600 
    167 H167        2.7363  -17.0651  -38.5076 H         1 UNK         0.0600 
    168 H168        2.4531  -15.6504  -39.5211 H         1 UNK         0.0600 
    169 H169        0.2688  -15.4646  -40.6985 H         1 UNK         0.3000 
    170 H170       -2.4005  -15.7351  -41.9093 H         1 UNK         0.0600 
    171 H171       -4.2559  -16.2125  -40.3410 H         1 UNK         0.0600 
    172 H172       -3.6820  -14.9733  -39.2286 H         1 UNK         0.0600 
    173 H173       -4.3068  -14.5233  -40.8149 H         1 UNK         0.0600 
    174 H174       -1.2609  -13.8131  -39.9538 H         1 UNK         0.3000 
    175 H175       -1.0327  -11.2279  -42.1661 H         1 UNK         0.0600 
    176 H176        0.1365  -12.4078  -39.5824 H         1 UNK         0.0600 
    177 H177        0.1021  -10.7135  -40.0464 H         1 UNK         0.0600 
    178 H178       -1.4000  -11.5464  -39.7002 H         1 UNK         0.0600 
    179 H179        1.1156  -11.3652  -42.7617 H         1 UNK         0.3000 
    180 H180        3.5662  -12.2437  -42.1354 H         1 UNK         0.0600 
    181 H181        3.4371  -15.0599  -43.3337 H         1 UNK         0.0600 
    182 H182        4.0056  -14.6788  -41.7089 H         1 UNK         0.0600 
    183 H183        4.9007  -14.1123  -43.1054 H         1 UNK         0.0600 
    184 H184        2.0024  -12.6604  -44.5305 H         1 UNK         0.3000 
    185 H185        2.5899  -11.9246  -46.5303 H         1 UNK         0.0600 
    186 H186        2.6166   -9.5853  -45.7345 H         1 UNK         0.0600 
    187 H187        4.3351   -9.4533  -46.0878 H         1 UNK         0.0600 
    188 H188        3.1767   -9.6817  -47.3967 H         1 UNK         0.0600 
    189 H189        5.4151  -11.3305  -47.1582 H         1 UNK         0.3000 
    190 H190       -0.7947  -20.7005  -46.8956 H         1 UNK         0.3000 
    191 H191       -2.0807  -21.8052  -49.1660 H         1 UNK         0.0600 
    192 H192       -2.8009  -19.7045  -48.0560 H         1 UNK         0.0600 
    193 H193       -4.1357  -20.8432  -48.1632 H         1 UNK         0.0600 
    194 H194       -3.3069  -20.6084  -46.6285 H         1 UNK         0.0600 
    195 H195       -1.9414  -22.9815  -45.7913 H         1 UNK         0.3000 
    196 H196       -3.7916  -25.1384  -46.1273 H         1 UNK         0.0600 
    197 H197       -2.7953  -25.9737  -44.0093 H         1 UNK         0.0600 
    198 H198       -3.1336  -24.2524  -43.9035 H         1 UNK         0.0600 
    199 H199       -1.4807  -24.8139  -44.1425 H         1 UNK         0.0600 
    200 H200       -0.2487  -24.9031  -46.6002 H         1 UNK         0.3000 
    201 H201        0.1582  -27.6862  -47.1920 H         1 UNK         0.0600 
    202 H202        1.9738  -26.2344  -46.3469 H         1 UNK         0.0600 
    203 H203        1.8876  -25.2283  -47.7902 H         1 UNK         0.0600 
    204 H204        2.4152  -26.9025  -47.9114 H         1 UNK         0.0600 
    205 H205       -0.2695  -24.7749  -49.2322 H         1 UNK         0.3000 
    206 H206       -0.2808  -26.3291  -51.7399 H         1 UNK         0.0600 
    207 H207        0.9324  -24.1708  -51.6370 H         1 UNK         0.0600 
    208 H208       -0.4044  -24.0656  -52.7675 H         1 UNK         0.0600 
    209 H209       -0.5352  -23.3218  -51.1740 H         1 UNK         0.0600 
    210 H210       -2.4399  -23.6582  -51.6916 H         1 UNK         0.3000 
    211 H211       -4.8276  -25.0703  -50.9061 H         1 UNK         0.0600 
    212 H212       -4.5376  -24.0703  -53.8056 H         1 UNK         0.0600 
    213 H213       -5.9898  -24.7491  -53.0825 H         1 UNK         0.0600 
    214 H214       -4.5874  -25.7697  -53.3427 H         1 UNK         0.0600 
    215 H215       -6.7072  -23.4601  -51.1695 H         1 UNK         0.3000 
    216 H216       -5.9781  -20.9717  -49.9038 H         1 UNK         0.0600 
    217 H217       -8.4590  -20.6523  -49.8643 H         1 UNK         0.0600 
    218 H218       -8.0428  -22.2684  -49.3257 H         1 UNK         0.0600 
    219 H219       -8.6720  -22.0175  -50.9538 H         1 UNK         0.0600 
    220 H220       -6.7683  -18.8563  -50.6316 H         1 UNK         0.3000 
    221 H221       -5.9449  -18.0951  -53.2265 H         1 UNK         0.0600 
    222 H222       -7.6737  -16.6113  -51.1762 H         1 UNK         0.0600 
    223 H223       -5.9121  -16.5682  -51.2808 H         1 UNK         0.0600 
    224 H224       -6.8854  -15.8746  -52.5668 H         1 UNK         0.0600 
    225 H225       -9.0648  -19.2089  -52.1012 H         1 UNK         0.3000 
    226 H226      -10.7040  -18.3430  -54.2769 H         1 UNK         0.0600 
    227 H227      -11.6232  -19.1461  -52.1121 H         1 UNK         0.0600 
    228 H228      -12.2365  -20.1306  -53.4304 H         1 UNK         0.0600 
    229 H229      -10.9570  -20.7549  -52.3963 H         1 UNK         0.0600 
    230 H230       -8.2875  -20.8621  -54.0257 H         1 UNK         0.3000 
    231 H231       -9.0228  -22.0395  -56.6695 H         1 UNK         0.0600 
    232 H232       -8.8784  -23.6476  -54.7371 H         1 UNK         0.0600 
    233 H233       -7.2219  -23.1242  -54.4378 H         1 UNK         0.0600 
    234 H234       -7.6327  -23.9490  -55.9369 H         1 UNK         0.0600 
    235 H235       -7.6300  -19.3984  -55.9319 H         1 UNK         0.3000 
    236 H236       -5.9956  -18.0726  -56.5606 H         1 UNK         0.0600 
    237 H237       -5.0005  -18.3614  -58.7940 H         1 UNK         0.0600 
    238 H238       -5.4542  -20.0595  -58.8296 H         1 UNK         0.0600 
    239 H239       -6.6964  -18.8083  -58.8548 H         1 UNK         0.0600 
    240 H240       -5.3865  -20.2378  -54.6301 H         1 UNK         0.3000 
    241 H241       -3.8042  -21.0355  -53.4043 H         1 UNK         0.0600 
    242 H242       -2.9811  -23.3734  -56.3556 H         1 UNK         0.3800 
    243 H243       -4.2992  -22.2329  -56.2599 H         1 UNK         0.3800 
    244 H244       -1.7924  -19.1680  -54.7284 H         1 UNK         0.0800 
    245 H245       -1.4994  -20.0948  -53.2891 H         1 UNK         0.0800 
    246 H246       -3.0782  -18.1195  -50.4559 H         1 UNK         0.0800 
    247 H247       -2.8645  -19.7687  -50.9769 H         1 UNK         0.0800 
@<TRIPOS>BOND
     1    1    2 1    
     2    1  127 1    
     3    1  128 1    
     4    1  129 1    
     5    2    3 2    
     6    2    4 am   BACKBONE|DICT|INTERRES
     7    4    5 1    
     8    4  130 1    
     9    5    6 1    
    10    5   65 1    
    11    5  131 1    
    12    6    7 1    
    13    6  132 1    
    14    6  133 1    
    15    7    8 1    
    16    8    9 1    
    17    8  134 1    
    18    8  135 1    
    19    9   10 ar   
    20    9   14 ar   
    21   10   11 ar   
    22   10  136 1    
    23   11   12 ar   
    24   11  126 1    
    25   12   13 ar   
    26   12  137 1    
    27   13   14 ar   
    28   13   15 1    
    29   14  138 1    
    30   15   16 1    
    31   15  139 1    
    32   15  140 1    
    33   16   17 1    
    34   17   18 1    
    35   17  141 1    
    36   17  142 1    
    37   18   19 1    
    38   18   67 1    
    39   18  143 1    
    40   19   20 am   BACKBONE|DICT|INTERRES
    41   19  144 1    
    42   20   21 2    
    43   20   22 1    
    44   22   23 1    
    45   22   24 1    
    46   22  145 1    
    47   23  146 1    
    48   23  147 1    
    49   23  148 1    
    50   24   25 am   BACKBONE|DICT|INTERRES
    51   24  149 1    
    52   25   26 2    
    53   25   27 1    
    54   27   28 1    
    55   27   29 1    
    56   27  150 1    
    57   28  151 1    
    58   28  152 1    
    59   28  153 1    
    60   29   30 am   BACKBONE|DICT|INTERRES
    61   29  154 1    
    62   30   31 2    
    63   30   32 1    
    64   32   33 1    
    65   32   34 1    
    66   32  155 1    
    67   33  156 1    
    68   33  157 1    
    69   33  158 1    
    70   34   35 am   BACKBONE|DICT|INTERRES
    71   34  159 1    
    72   35   36 2    
    73   35   37 1    
    74   37   38 1    
    75   37   39 1    
    76   37  160 1    
    77   38  161 1    
    78   38  162 1    
    79   38  163 1    
    80   39   40 am   BACKBONE|DICT|INTERRES
    81   39  164 1    
    82   40   41 2    
    83   40   42 1    
    84   42   43 1    
    85   42   44 1    
    86   42  165 1    
    87   43  166 1    
    88   43  167 1    
    89   43  168 1    
    90   44   45 am   BACKBONE|DICT|INTERRES
    91   44  169 1    
    92   45   46 2    
    93   45   47 1    
    94   47   48 1    
    95   47   49 1    
    96   47  170 1    
    97   48  171 1    
    98   48  172 1    
    99   48  173 1    
   100   49   50 am   BACKBONE|DICT|INTERRES
   101   49  174 1    
   102   50   51 2    
   103   50   52 1    
   104   52   53 1    
   105   52   54 1    
   106   52  175 1    
   107   53  176 1    
   108   53  177 1    
   109   53  178 1    
   110   54   55 am   BACKBONE|DICT|INTERRES
   111   54  179 1    
   112   55   56 2    
   113   55   57 1    
   114   57   58 1    
   115   57   59 1    
   116   57  180 1    
   117   58  181 1    
   118   58  182 1    
   119   58  183 1    
   120   59   60 am   BACKBONE|DICT|INTERRES
   121   59  184 1    
   122   60   61 2    
   123   60   62 1    
   124   62   63 1    
   125   62   64 1    
   126   62  185 1    
   127   63  186 1    
   128   63  187 1    
   129   63  188 1    
   130   64   65 am   BACKBONE|DICT|INTERRES
   131   64  189 1    
   132   65   66 2    
   133   67   68 2    
   134   67   69 am   BACKBONE|DICT|INTERRES
   135   69   70 1    
   136   69  190 1    
   137   70   71 1    
   138   70   72 1    
   139   70  191 1    
   140   71  192 1    
   141   71  193 1    
   142   71  194 1    
   143   72   73 2    
   144   72   74 am   BACKBONE|DICT|INTERRES
   145   74   75 1    
   146   74  195 1    
   147   75   76 1    
   148   75   77 1    
   149   75  196 1    
   150   76  197 1    
   151   76  198 1    
   152   76  199 1    
   153   77   78 2    
   154   77   79 am   BACKBONE|DICT|INTERRES
   155   79   80 1    
   156   79  200 1    
   157   80   81 1    
   158   80   82 1    
   159   80  201 1    
   160   81  202 1    
   161   81  203 1    
   162   81  204 1    
   163   82   83 2    
   164   82   84 am   BACKBONE|DICT|INTERRES
   165   84   85 1    
   166   84  205 1    
   167   85   86 1    
   168   85   87 1    
   169   85  206 1    
   170   86  207 1    
   171   86  208 1    
   172   86  209 1    
   173   87   88 2    
   174   87   89 am   BACKBONE|DICT|INTERRES
   175   89   90 1    
   176   89  210 1    
   177   90   91 1    
   178   90   92 1    
   179   90  211 1    
   180   91  212 1    
   181   91  213 1    
   182   91  214 1    
   183   92   93 2    
   184   92   94 am   BACKBONE|DICT|INTERRES
   185   94   95 1    
   186   94  215 1    
   187   95   96 1    
   188   95   97 1    
   189   95  216 1    
   190   96  217 1    
   191   96  218 1    
   192   96  219 1    
   193   97   98 2    
   194   97   99 am   BACKBONE|DICT|INTERRES
   195   99  100 1    
   196   99  220 1    
   197  100  101 1    
   198  100  102 1    
   199  100  221 1    
   200  101  222 1    
   201  101  223 1    
   202  101  224 1    
   203  102  103 2    
   204  102  104 am   BACKBONE|DICT|INTERRES
   205  104  105 1    
   206  104  225 1    
   207  105  106 1    
   208  105  107 1    
   209  105  226 1    
   210  106  227 1    
   211  106  228 1    
   212  106  229 1    
   213  107  108 2    
   214  107  109 am   BACKBONE|DICT|INTERRES
   215  109  110 1    
   216  109  230 1    
   217  110  111 1    
   218  110  112 1    
   219  110  231 1    
   220  111  232 1    
   221  111  233 1    
   222  111  234 1    
   223  112  113 2    
   224  112  114 am   BACKBONE|DICT|INTERRES
   225  114  115 1    
   226  114  235 1    
   227  115  116 1    
   228  115  117 1    
   229  115  236 1    
   230  116  237 1    
   231  116  238 1    
   232  116  239 1    
   233  117  118 2    
   234  117  119 am   BACKBONE|DICT|INTERRES
   235  119  120 1    
   236  119  240 1    
   237  120  121 1    
   238  120  124 1    
   239  120  241 1    
   240  121  122 am   BACKBONE|DICT|INTERRES
   241  121  123 2    
   242  122  242 1    
   243  122  243 1    
   244  124  125 1    
   245  124  244 1    
   246  124  245 1    
   247  125  126 1    
   248  126  246 1    
   249  126  247 1    
@<TRIPOS>SUBSTRUCTURE
     1 UNK         1 GROUP             0       ****    0 ROOT    
