@<TRIPOS>MOLECULE
3R540
247   249    1
SMALL
USER_CHARGES


@<TRIPOS>ATOM
      1 CA          4.8438  -10.6654  -47.9763 C.3       0 UNK        -0.1800 
      2 C           3.7731  -11.3383  -47.1312 C.2       0 UNK         0.5000 
      3 O           3.8266  -11.2612  -45.9042 O.2       0 UNK        -0.5000 
      4 N           2.7914  -11.9786  -47.7806 N.am      1 UNK        -0.5000 
      5 CA          1.6945  -12.7459  -47.1680 C.3       1 UNK         0.1400 
      6 C6          0.7965  -13.4075  -48.2435 C.3       23 UNK        -0.0398 
      7 S7          1.6995  -14.6089  -49.2804 S.3       23 UNK        -0.2404 
      8 C8          0.4973  -15.9727  -49.3468 C.3       23 UNK        -0.0205 
      9 C9          1.0022  -17.1274  -50.1949 C.ar      23 UNK        -0.0193 
     10 C10         0.6356  -17.2243  -51.5401 C.ar      23 UNK        -0.1150 
     11 C11         1.0835  -18.2923  -52.3224 C.ar      23 UNK        -0.0193 
     12 C12         1.9028  -19.2689  -51.7486 C.ar      23 UNK        -0.1150 
     13 C13         2.2754  -19.1831  -50.4033 C.ar      23 UNK        -0.0193 
     14 C14         1.8233  -18.1087  -49.6314 C.ar      23 UNK        -0.1150 
     15 C15         3.1801  -20.2436  -49.7944 C.3       23 UNK        -0.0205 
     16 S16         2.2474  -21.7194  -49.2822 S.3       23 UNK        -0.2404 
     17 C17         1.5152  -21.1553  -47.7095 C.3       23 UNK        -0.0398 
     18 CA          0.7463  -22.2859  -46.9832 C.3       11 UNK         0.1400 
     19 N           0.6234  -22.0421  -45.5447 N.am      11 UNK        -0.5000 
     20 C           0.1627  -22.9335  -44.6552 C.2       10 UNK         0.5000 
     21 O          -0.1744  -24.0811  -44.9474 O.2       10 UNK        -0.5000 
     22 CA          0.0065  -22.4469  -43.2031 C.3       10 UNK         0.1400 
     23 CB          1.3589  -22.4446  -42.4753 C.3       10 UNK        -0.1800 
     24 N          -0.6061  -21.1202  -43.1169 N.am      10 UNK        -0.5000 
     25 C          -1.8502  -20.8360  -43.5296 C.2       9 UNK         0.5000 
     26 O          -2.6260  -21.6727  -43.9906 O.2       9 UNK        -0.5000 
     27 CA         -2.2888  -19.3632  -43.4599 C.3       9 UNK         0.1400 
     28 CB         -2.6956  -18.9814  -42.0290 C.3       9 UNK        -0.1800 
     29 N          -1.2598  -18.4431  -43.9438 N.am      9 UNK        -0.5000 
     30 C          -0.7759  -18.4302  -45.1944 C.2       8 UNK         0.5000 
     31 O          -1.1654  -19.1761  -46.0920 O.2       8 UNK        -0.5000 
     32 CA          0.3800  -17.4572  -45.4762 C.3       8 UNK         0.1400 
     33 CB         -0.1352  -16.0160  -45.5901 C.3       8 UNK        -0.1800 
     34 N           1.4266  -17.5244  -44.4588 N.am      8 UNK        -0.5000 
     35 C           2.1374  -18.6208  -44.1602 C.2       7 UNK         0.5000 
     36 O           2.0299  -19.6916  -44.7552 O.2       7 UNK        -0.5000 
     37 CA          3.0905  -18.5184  -42.9595 C.3       7 UNK         0.1400 
     38 CB          4.4207  -17.8722  -43.3717 C.3       7 UNK        -0.1800 
     39 N           2.4904  -17.7671  -41.8573 N.am      7 UNK        -0.5000 
     40 C           1.4648  -18.2096  -41.1155 C.2       6 UNK         0.5000 
     41 O           0.9406  -19.3144  -41.2608 O.2       6 UNK        -0.5000 
     42 CA          0.9073  -17.2339  -40.0635 C.3       6 UNK         0.1400 
     43 CB          1.7700  -17.2513  -38.7928 C.3       6 UNK        -0.1800 
     44 N           0.8108  -15.8634  -40.5694 N.am      6 UNK        -0.5000 
     45 C          -0.0373  -15.4762  -41.5322 C.2       5 UNK         0.5000 
     46 O          -0.8474  -16.2306  -42.0698 O.2       5 UNK        -0.5000 
     47 CA          0.0606  -14.0125  -42.0002 C.3       5 UNK         0.1400 
     48 CB         -0.8140  -13.1017  -41.1268 C.3       5 UNK        -0.1800 
     49 N           1.4265  -13.4853  -42.0273 N.am      5 UNK        -0.5000 
     50 C           2.4315  -13.9688  -42.7687 C.2       4 UNK         0.5000 
     51 O           2.3436  -14.9934  -43.4470 O.2       4 UNK        -0.5000 
     52 CA          3.7415  -13.1567  -42.7509 C.3       4 UNK         0.1400 
     53 CB          4.8194  -13.7442  -43.6788 C.3       4 UNK        -0.1800 
     54 N           3.5014  -11.7695  -43.1422 N.am      4 UNK        -0.5000 
     55 C           3.0887  -10.7874  -42.3315 C.2       3 UNK         0.5000 
     56 O           2.8432  -10.9494  -41.1355 O.2       3 UNK        -0.5000 
     57 CA          2.8740   -9.4124  -42.9798 C.3       3 UNK         0.1400 
     58 CB          4.2165   -8.7592  -43.3464 C.3       3 UNK        -0.1800 
     59 N           2.0509   -9.5408  -44.1804 N.am      3 UNK        -0.5000 
     60 C           0.7158   -9.4284  -44.2011 C.2       2 UNK         0.5000 
     61 O           0.0368   -9.1477  -43.2127 O.2       2 UNK        -0.5000 
     62 CA          0.0145   -9.6647  -45.5535 C.3       2 UNK         0.1400 
     63 CB         -0.1692   -8.3361  -46.3027 C.3       2 UNK        -0.1800 
     64 N           0.7328  -10.6029  -46.4172 N.am      2 UNK        -0.5000 
     65 C           0.8204  -11.9221  -46.1955 C.2       1 UNK         0.5000 
     66 O           0.2501  -12.4924  -45.2664 O.2       1 UNK        -0.5000 
     67 C          -0.6259  -22.5546  -47.6319 C.2       11 UNK         0.5000 
     68 O          -0.7628  -23.5321  -48.3654 O.2       11 UNK        -0.5000 
     69 N          -1.6284  -21.7244  -47.3088 N.am      12 UNK        -0.5000 
     70 CA         -3.0060  -21.8717  -47.7773 C.3       12 UNK         0.1400 
     71 CB         -3.8392  -20.6600  -47.3354 C.3       12 UNK        -0.1800 
     72 C          -3.6620  -23.1854  -47.3168 C.2       12 UNK         0.5000 
     73 O          -4.3186  -23.8454  -48.1216 O.2       12 UNK        -0.5000 
     74 N          -3.4420  -23.5626  -46.0497 N.am      13 UNK        -0.5000 
     75 CA         -3.9075  -24.8229  -45.4699 C.3       13 UNK         0.1400 
     76 CB         -3.6579  -24.8169  -43.9543 C.3       13 UNK        -0.1800 
     77 C          -3.2628  -26.0587  -46.1248 C.2       13 UNK         0.5000 
     78 O          -3.9568  -27.0490  -46.3576 O.2       13 UNK        -0.5000 
     79 N          -1.9591  -25.9741  -46.4248 N.am      14 UNK        -0.5000 
     80 CA         -1.2027  -27.0154  -47.1199 C.3       14 UNK         0.1400 
     81 CB          0.3016  -26.7316  -46.9863 C.3       14 UNK        -0.1800 
     82 C          -1.6052  -27.1527  -48.6002 C.2       14 UNK         0.5000 
     83 O          -1.7484  -28.2746  -49.0881 O.2       14 UNK        -0.5000 
     84 N          -1.7775  -26.0139  -49.2845 N.am      15 UNK        -0.5000 
     85 CA         -2.1610  -25.9330  -50.6936 C.3       15 UNK         0.1400 
     86 CB         -1.9326  -24.4961  -51.1926 C.3       15 UNK        -0.1800 
     87 C          -3.6151  -26.3668  -50.9526 C.2       15 UNK         0.5000 
     88 O          -3.8740  -27.0177  -51.9654 O.2       15 UNK        -0.5000 
     89 N          -4.5187  -25.9893  -50.0355 N.am      16 UNK        -0.5000 
     90 CA         -5.9820  -26.0631  -50.1099 C.3       16 UNK         0.1400 
     91 CB         -6.4805  -27.4911  -50.4103 C.3       16 UNK        -0.1800 
     92 C          -6.5629  -25.0301  -51.0958 C.2       16 UNK         0.5000 
     93 O          -5.8439  -24.4924  -51.9407 O.2       16 UNK        -0.5000 
     94 N          -7.8686  -24.7574  -50.9650 N.am      17 UNK        -0.5000 
     95 CA         -8.6023  -23.6774  -51.6422 C.3       17 UNK         0.1400 
     96 CB        -10.0803  -23.7488  -51.2294 C.3       17 UNK        -0.1800 
     97 C          -8.4806  -23.6361  -53.1798 C.2       17 UNK         0.5000 
     98 O          -8.5784  -22.5568  -53.7645 O.2       17 UNK        -0.5000 
     99 N          -8.2509  -24.7997  -53.8014 N.am      18 UNK        -0.5000 
    100 CA        -8.0342  -24.9515  -55.2398 C.3       18 UNK         0.1400 
    101 CB        -8.1156  -26.4438  -55.5964 C.3       18 UNK        -0.1800 
    102 C         -6.7020  -24.3539  -55.7389 C.2       18 UNK         0.5000 
    103 O         -6.6216  -23.9830  -56.9108 O.2       18 UNK        -0.5000 
    104 N         -5.6887  -24.2810  -54.8643 N.am      19 UNK        -0.5000 
    105 CA        -4.3452  -23.7918  -55.1846 C.3       19 UNK         0.1400 
    106 CB        -3.3325  -24.9224  -54.9559 C.3       19 UNK        -0.1800 
    107 C         -3.9661  -22.5393  -54.3762 C.2       19 UNK         0.5000 
    108 O         -3.1855  -21.7271  -54.8700 O.2       19 UNK        -0.5000 
    109 N         -4.5477  -22.3645  -53.1798 N.am      20 UNK        -0.5000 
    110 CA        -4.3401  -21.2241  -52.2770 C.3       20 UNK         0.1400 
    111 CB        -5.0375  -21.5183  -50.9406 C.3       20 UNK        -0.1800 
    112 C         -4.8136  -19.8643  -52.8348 C.2       20 UNK         0.5000 
    113 O         -4.4837  -18.8261  -52.2623 O.2       20 UNK        -0.5000 
    114 N         -5.5596  -19.8891  -53.9469 N.am      21 UNK        -0.5000 
    115 CA        -5.9800  -18.7290  -54.7340 C.3       21 UNK         0.1400 
    116 CB        -7.0959  -19.1811  -55.6906 C.3       21 UNK        -0.1800 
    117 C         -4.8319  -18.0424  -55.5127 C.2       21 UNK         0.5000 
    118 O         -5.0786  -17.0200  -56.1547 O.2       21 UNK        -0.5000 
    119 N         -3.6193  -18.6132  -55.4681 N.am      22 UNK        -0.5000 
    120 CA        -2.3736  -18.0853  -56.0459 C.3       22 UNK         0.1400 
    121 C         -2.0201  -16.6222  -55.6381 C.2       22 UNK         0.5000 
    122 N         -1.3025  -15.8983  -56.4874 N.am      22 UNK        -0.7600 
    123 O         -2.3497  -16.1480  -54.5532 O.2       22 UNK        -0.5000 
    124 C124       -1.1859  -19.0503  -55.7781 C.3       23 UNK        -0.0398 
    125 S125       -0.8354  -19.3485  -54.0053 S.3       23 UNK        -0.2404 
    126 C126        0.6893  -18.3814  -53.7879 C.3       23 UNK        -0.0205 
    127 H127        4.8698   -9.5963  -47.7656 H         1 UNK         0.0600 
    128 H128        4.6625  -10.7989  -49.0430 H         1 UNK         0.0600 
    129 H129        5.8222  -11.0841  -47.7416 H         1 UNK         0.0600 
    130 H130        2.8159  -12.0069  -48.7902 H         1 UNK         0.3000 
    131 H131        2.1573  -13.5361  -46.5727 H         1 UNK         0.0600 
    132 H132       -0.0476  -13.9152  -47.7735 H         1 UNK         0.0800 
    133 H133        0.3617  -12.6502  -48.8983 H         1 UNK         0.0800 
    134 H134       -0.4504  -15.6024  -49.7415 H         1 UNK         0.0800 
    135 H135        0.2931  -16.3301  -48.3397 H         1 UNK         0.0800 
    136 H136       -0.0015  -16.4693  -51.9800 H         1 UNK         0.1150 
    137 H137        2.2492  -20.0986  -52.3489 H         1 UNK         0.1150 
    138 H138        2.1119  -18.0344  -48.5923 H         1 UNK         0.1150 
    139 H139        3.9304  -20.5420  -50.5282 H         1 UNK         0.0800 
    140 H140        3.7333  -19.8399  -48.9449 H         1 UNK         0.0800 
    141 H141        0.8796  -20.2847  -47.8808 H         1 UNK         0.0800 
    142 H142        2.3408  -20.8116  -47.0860 H         1 UNK         0.0800 
    143 H143        1.3318  -23.2031  -47.0795 H         1 UNK         0.0600 
    144 H144        0.9224  -21.1281  -45.2131 H         1 UNK         0.3000 
    145 H145       -0.6521  -23.1497  -42.6886 H         1 UNK         0.0600 
    146 H146        1.2406  -22.1744  -41.4259 H         1 UNK         0.0600 
    147 H147        1.8209  -23.4320  -42.5074 H         1 UNK         0.0600 
    148 H148        2.0586  -21.7397  -42.9244 H         1 UNK         0.0600 
    149 H149       -0.0404  -20.3812  -42.7124 H         1 UNK         0.3000 
    150 H150       -3.1637  -19.2481  -44.1028 H         1 UNK         0.0600 
    151 H151       -3.4662  -19.6531  -41.6487 H         1 UNK         0.0600 
    152 H152       -3.0992  -17.9694  -41.9920 H         1 UNK         0.0600 
    153 H153       -1.8494  -19.0280  -41.3429 H         1 UNK         0.0600 
    154 H154       -0.9105  -17.7630  -43.2746 H         1 UNK         0.3000 
    155 H155        0.8294  -17.7408  -46.4295 H         1 UNK         0.0600 
    156 H156        0.6722  -15.3337  -45.8515 H         1 UNK         0.0600 
    157 H157       -0.9062  -15.9311  -46.3562 H         1 UNK         0.0600 
    158 H158       -0.5728  -15.6671  -44.6565 H         1 UNK         0.0600 
    159 H159        1.6262  -16.6651  -43.9527 H         1 UNK         0.3000 
    160 H160        3.3002  -19.5304  -42.6069 H         1 UNK         0.0600 
    161 H161        4.2714  -16.8791  -43.7943 H         1 UNK         0.0600 
    162 H162        4.9243  -18.4744  -44.1288 H         1 UNK         0.0600 
    163 H163        5.0989  -17.7814  -42.5232 H         1 UNK         0.0600 
    164 H164        2.8219  -16.8247  -41.7159 H         1 UNK         0.3000 
    165 H165       -0.0971  -17.5704  -39.7975 H         1 UNK         0.0600 
    166 H166        1.3377  -16.6219  -38.0147 H         1 UNK         0.0600 
    167 H167        1.8460  -18.2611  -38.3874 H         1 UNK         0.0600 
    168 H168        2.7835  -16.8978  -38.9863 H         1 UNK         0.0600 
    169 H169        1.4451  -15.1810  -40.1810 H         1 UNK         0.3000 
    170 H170       -0.3243  -13.9692  -43.0202 H         1 UNK         0.0600 
    171 H171       -1.8458  -13.4550  -41.1045 H         1 UNK         0.0600 
    172 H172       -0.4556  -13.0651  -40.0974 H         1 UNK         0.0600 
    173 H173       -0.8287  -12.0825  -41.5143 H         1 UNK         0.0600 
    174 H174        1.5982  -12.6326  -41.5077 H         1 UNK         0.3000 
    175 H175        4.1301  -13.1816  -41.7309 H         1 UNK         0.0600 
    176 H176        4.4698  -13.8151  -44.7099 H         1 UNK         0.0600 
    177 H177        5.7204  -13.1307  -43.6742 H         1 UNK         0.0600 
    178 H178        5.1100  -14.7434  -43.3556 H         1 UNK         0.0600 
    179 H179        3.6383  -11.5606  -44.1295 H         1 UNK         0.3000 
    180 H180        2.3768   -8.7675  -42.2520 H         1 UNK         0.0600 
    181 H181        4.0667   -7.7608  -43.7575 H         1 UNK         0.0600 
    182 H182        4.8527   -8.6563  -42.4665 H         1 UNK         0.0600 
    183 H183        4.7677   -9.3437  -44.0840 H         1 UNK         0.0600 
    184 H184        2.5270   -9.8460  -45.0204 H         1 UNK         0.3000 
    185 H185       -0.9747  -10.0781  -45.3452 H         1 UNK         0.0600 
    186 H186       -0.7246   -7.6195  -45.6961 H         1 UNK         0.0600 
    187 H187        0.7889   -7.8797  -46.5548 H         1 UNK         0.0600 
    188 H188       -0.7280   -8.4786  -47.2279 H         1 UNK         0.0600 
    189 H189        1.2296  -10.2125  -47.2047 H         1 UNK         0.3000 
    190 H190       -1.4353  -20.9193  -46.7171 H         1 UNK         0.3000 
    191 H191       -2.9748  -21.8835  -48.8679 H         1 UNK         0.0600 
    192 H192       -3.8542  -20.5564  -46.2502 H         1 UNK         0.0600 
    193 H193       -4.8728  -20.7510  -47.6713 H         1 UNK         0.0600 
    194 H194       -3.4407  -19.7355  -47.7539 H         1 UNK         0.0600 
    195 H195       -2.9327  -22.9374  -45.4309 H         1 UNK         0.3000 
    196 H196       -4.9851  -24.8863  -45.6349 H         1 UNK         0.0600 
    197 H197       -4.0068  -25.7432  -43.4962 H         1 UNK         0.0600 
    198 H198       -4.1877  -23.9956  -43.4715 H         1 UNK         0.0600 
    199 H199       -2.5978  -24.7129  -43.7211 H         1 UNK         0.0600 
    200 H200       -1.4462  -25.1415  -46.1533 H         1 UNK         0.3000 
    201 H201       -1.4093  -27.9688  -46.6291 H         1 UNK         0.0600 
    202 H202        0.6065  -26.7115  -45.9399 H         1 UNK         0.0600 
    203 H203        0.5730  -25.7734  -47.4304 H         1 UNK         0.0600 
    204 H204        0.8908  -27.5034  -47.4829 H         1 UNK         0.0600 
    205 H205       -1.5730  -25.1302  -48.8225 H         1 UNK         0.3000 
    206 H206       -1.5073  -26.5980  -51.2617 H         1 UNK         0.0600 
    207 H207       -0.8896  -24.2002  -51.0787 H         1 UNK         0.0600 
    208 H208       -2.1811  -24.3965  -52.2480 H         1 UNK         0.0600 
    209 H209       -2.5445  -23.7791  -50.6444 H         1 UNK         0.0600 
    210 H210       -4.1834  -25.4026  -49.2766 H         1 UNK         0.3000 
    211 H211       -6.3331  -25.7871  -49.1146 H         1 UNK         0.0600 
    212 H212       -6.2898  -27.7845  -51.4428 H         1 UNK         0.0600 
    213 H213       -7.5557  -27.5707  -50.2483 H         1 UNK         0.0600 
    214 H214       -6.0007  -28.2213  -49.7584 H         1 UNK         0.0600 
    215 H215       -8.3909  -25.2614  -50.2630 H         1 UNK         0.3000 
    216 H216       -8.1969  -22.7355  -51.2696 H         1 UNK         0.0600 
    217 H217      -10.6562  -22.9451  -51.6907 H         1 UNK         0.0600 
    218 H218      -10.1952  -23.6483  -50.1500 H         1 UNK         0.0600 
    219 H219      -10.5355  -24.6932  -51.5304 H         1 UNK         0.0600 
    220 H220       -8.1755  -25.6338  -53.2383 H         1 UNK         0.3000 
    221 H221       -8.8417  -24.4320  -55.7602 H         1 UNK         0.0600 
    222 H222       -7.3425  -27.0212  -55.0876 H         1 UNK         0.0600 
    223 H223       -9.0841  -26.8632  -55.3232 H         1 UNK         0.0600 
    224 H224       -7.9876  -26.5973  -56.6688 H         1 UNK         0.0600 
    225 H225       -5.8455  -24.5771  -53.9057 H         1 UNK         0.3000 
    226 H226       -4.2824  -23.5050  -56.2362 H         1 UNK         0.0600 
    227 H227       -3.4973  -25.7409  -55.6566 H         1 UNK         0.0600 
    228 H228       -2.3084  -24.5737  -55.0963 H         1 UNK         0.0600 
    229 H229       -3.4116  -25.3299  -53.9498 H         1 UNK         0.0600 
    230 H230       -5.1351  -23.1100  -52.8122 H         1 UNK         0.3000 
    231 H231       -3.2669  -21.1406  -52.0933 H         1 UNK         0.0600 
    232 H232       -4.6769  -22.4479  -50.5017 H         1 UNK         0.0600 
    233 H233       -6.1166  -21.6042  -51.0647 H         1 UNK         0.0600 
    234 H234       -4.8533  -20.7223  -50.2188 H         1 UNK         0.0600 
    235 H235       -5.7899  -20.7943  -54.3296 H         1 UNK         0.3000 
    236 H236       -6.3943  -17.9860  -54.0497 H         1 UNK         0.0600 
    237 H237       -7.4896  -18.3399  -56.2625 H         1 UNK         0.0600 
    238 H238       -6.7360  -19.9240  -56.4037 H         1 UNK         0.0600 
    239 H239       -7.9317  -19.6189  -55.1440 H         1 UNK         0.0600 
    240 H240       -3.5139  -19.4665  -54.9348 H         1 UNK         0.3000 
    241 H241       -2.5415  -18.0713  -57.1243 H         1 UNK         0.0600 
    242 H242       -1.0144  -16.2593  -57.3839 H         1 UNK         0.3800 
    243 H243       -1.0552  -14.9540  -56.2348 H         1 UNK         0.3800 
    244 H244       -0.2833  -18.6963  -56.2789 H         1 UNK         0.0800 
    245 H245       -1.4023  -20.0179  -56.2330 H         1 UNK         0.0800 
    246 H246        0.5480  -17.3781  -54.1927 H         1 UNK         0.0800 
    247 H247        1.4941  -18.8377  -54.3663 H         1 UNK         0.0800 
@<TRIPOS>BOND
     1    1    2 1    
     2    1  127 1    
     3    1  128 1    
     4    1  129 1    
     5    2    3 2    
     6    2    4 am   BACKBONE|DICT|INTERRES
     7    4    5 1    
     8    4  130 1    
     9    5    6 1    
    10    5   65 1    
    11    5  131 1    
    12    6    7 1    
    13    6  132 1    
    14    6  133 1    
    15    7    8 1    
    16    8    9 1    
    17    8  134 1    
    18    8  135 1    
    19    9   10 ar   
    20    9   14 ar   
    21   10   11 ar   
    22   10  136 1    
    23   11   12 ar   
    24   11  126 1    
    25   12   13 ar   
    26   12  137 1    
    27   13   14 ar   
    28   13   15 1    
    29   14  138 1    
    30   15   16 1    
    31   15  139 1    
    32   15  140 1    
    33   16   17 1    
    34   17   18 1    
    35   17  141 1    
    36   17  142 1    
    37   18   19 1    
    38   18   67 1    
    39   18  143 1    
    40   19   20 am   BACKBONE|DICT|INTERRES
    41   19  144 1    
    42   20   21 2    
    43   20   22 1    
    44   22   23 1    
    45   22   24 1    
    46   22  145 1    
    47   23  146 1    
    48   23  147 1    
    49   23  148 1    
    50   24   25 am   BACKBONE|DICT|INTERRES
    51   24  149 1    
    52   25   26 2    
    53   25   27 1    
    54   27   28 1    
    55   27   29 1    
    56   27  150 1    
    57   28  151 1    
    58   28  152 1    
    59   28  153 1    
    60   29   30 am   BACKBONE|DICT|INTERRES
    61   29  154 1    
    62   30   31 2    
    63   30   32 1    
    64   32   33 1    
    65   32   34 1    
    66   32  155 1    
    67   33  156 1    
    68   33  157 1    
    69   33  158 1    
    70   34   35 am   BACKBONE|DICT|INTERRES
    71   34  159 1    
    72   35   36 2    
    73   35   37 1    
    74   37   38 1    
    75   37   39 1    
    76   37  160 1    
    77   38  161 1    
    78   38  162 1    
    79   38  163 1    
    80   39   40 am   BACKBONE|DICT|INTERRES
    81   39  164 1    
    82   40   41 2    
    83   40   42 1    
    84   42   43 1    
    85   42   44 1    
    86   42  165 1    
    87   43  166 1    
    88   43  167 1    
    89   43  168 1    
    90   44   45 am   BACKBONE|DICT|INTERRES
    91   44  169 1    
    92   45   46 2    
    93   45   47 1    
    94   47   48 1    
    95   47   49 1    
    96   47  170 1    
    97   48  171 1    
    98   48  172 1    
    99   48  173 1    
   100   49   50 am   BACKBONE|DICT|INTERRES
   101   49  174 1    
   102   50   51 2    
   103   50   52 1    
   104   52   53 1    
   105   52   54 1    
   106   52  175 1    
   107   53  176 1    
   108   53  177 1    
   109   53  178 1    
   110   54   55 am   BACKBONE|DICT|INTERRES
   111   54  179 1    
   112   55   56 2    
   113   55   57 1    
   114   57   58 1    
   115   57   59 1    
   116   57  180 1    
   117   58  181 1    
   118   58  182 1    
   119   58  183 1    
   120   59   60 am   BACKBONE|DICT|INTERRES
   121   59  184 1    
   122   60   61 2    
   123   60   62 1    
   124   62   63 1    
   125   62   64 1    
   126   62  185 1    
   127   63  186 1    
   128   63  187 1    
   129   63  188 1    
   130   64   65 am   BACKBONE|DICT|INTERRES
   131   64  189 1    
   132   65   66 2    
   133   67   68 2    
   134   67   69 am   BACKBONE|DICT|INTERRES
   135   69   70 1    
   136   69  190 1    
   137   70   71 1    
   138   70   72 1    
   139   70  191 1    
   140   71  192 1    
   141   71  193 1    
   142   71  194 1    
   143   72   73 2    
   144   72   74 am   BACKBONE|DICT|INTERRES
   145   74   75 1    
   146   74  195 1    
   147   75   76 1    
   148   75   77 1    
   149   75  196 1    
   150   76  197 1    
   151   76  198 1    
   152   76  199 1    
   153   77   78 2    
   154   77   79 am   BACKBONE|DICT|INTERRES
   155   79   80 1    
   156   79  200 1    
   157   80   81 1    
   158   80   82 1    
   159   80  201 1    
   160   81  202 1    
   161   81  203 1    
   162   81  204 1    
   163   82   83 2    
   164   82   84 am   BACKBONE|DICT|INTERRES
   165   84   85 1    
   166   84  205 1    
   167   85   86 1    
   168   85   87 1    
   169   85  206 1    
   170   86  207 1    
   171   86  208 1    
   172   86  209 1    
   173   87   88 2    
   174   87   89 am   BACKBONE|DICT|INTERRES
   175   89   90 1    
   176   89  210 1    
   177   90   91 1    
   178   90   92 1    
   179   90  211 1    
   180   91  212 1    
   181   91  213 1    
   182   91  214 1    
   183   92   93 2    
   184   92   94 am   BACKBONE|DICT|INTERRES
   185   94   95 1    
   186   94  215 1    
   187   95   96 1    
   188   95   97 1    
   189   95  216 1    
   190   96  217 1    
   191   96  218 1    
   192   96  219 1    
   193   97   98 2    
   194   97   99 am   BACKBONE|DICT|INTERRES
   195   99  100 1    
   196   99  220 1    
   197  100  101 1    
   198  100  102 1    
   199  100  221 1    
   200  101  222 1    
   201  101  223 1    
   202  101  224 1    
   203  102  103 2    
   204  102  104 am   BACKBONE|DICT|INTERRES
   205  104  105 1    
   206  104  225 1    
   207  105  106 1    
   208  105  107 1    
   209  105  226 1    
   210  106  227 1    
   211  106  228 1    
   212  106  229 1    
   213  107  108 2    
   214  107  109 am   BACKBONE|DICT|INTERRES
   215  109  110 1    
   216  109  230 1    
   217  110  111 1    
   218  110  112 1    
   219  110  231 1    
   220  111  232 1    
   221  111  233 1    
   222  111  234 1    
   223  112  113 2    
   224  112  114 am   BACKBONE|DICT|INTERRES
   225  114  115 1    
   226  114  235 1    
   227  115  116 1    
   228  115  117 1    
   229  115  236 1    
   230  116  237 1    
   231  116  238 1    
   232  116  239 1    
   233  117  118 2    
   234  117  119 am   BACKBONE|DICT|INTERRES
   235  119  120 1    
   236  119  240 1    
   237  120  121 1    
   238  120  124 1    
   239  120  241 1    
   240  121  122 am   BACKBONE|DICT|INTERRES
   241  121  123 2    
   242  122  242 1    
   243  122  243 1    
   244  124  125 1    
   245  124  244 1    
   246  124  245 1    
   247  125  126 1    
   248  126  246 1    
   249  126  247 1    
@<TRIPOS>SUBSTRUCTURE
     1 UNK         1 GROUP             0       ****    0 ROOT    
