@<TRIPOS>MOLECULE
3R540
247   249    1
SMALL
USER_CHARGES


@<TRIPOS>ATOM
      1 CA          3.9328  -18.3411  -43.2015 C.3       0 UNK        -0.1800 
      2 C           4.9013  -18.6679  -44.3368 C.2       0 UNK         0.5000 
      3 O           5.5976  -19.6783  -44.2640 O.2       0 UNK        -0.5000 
      4 N           4.9721  -17.8642  -45.4056 N.am      1 UNK        -0.5000 
      5 CA          4.2712  -16.5900  -45.5893 C.3       1 UNK         0.1400 
      6 C6          4.0758  -16.2492  -47.0850 C.3       23 UNK        -0.0398 
      7 S7          2.8768  -17.3637  -47.8781 S.3       23 UNK        -0.2404 
      8 C8          3.0186  -16.8019  -49.5961 C.3       23 UNK        -0.0205 
      9 C9          2.0565  -17.5472  -50.5049 C.ar      23 UNK        -0.0193 
     10 C10         0.7807  -17.0317  -50.7481 C.ar      23 UNK        -0.1150 
     11 C11        -0.0896  -17.6789  -51.6295 C.ar      23 UNK        -0.0193 
     12 C12         0.3230  -18.8536  -52.2620 C.ar      23 UNK        -0.1150 
     13 C13         1.5922  -19.3856  -52.0192 C.ar      23 UNK        -0.0193 
     14 C14         2.4541  -18.7298  -51.1354 C.ar      23 UNK        -0.1150 
     15 C15         2.0497  -20.6407  -52.7480 C.3       23 UNK        -0.0205 
     16 S16         1.9766  -22.1241  -51.6970 S.3       23 UNK        -0.2404 
     17 C17         0.1777  -22.3638  -51.5084 C.3       23 UNK        -0.0398 
     18 CA         -0.2223  -22.6807  -50.0511 C.3       11 UNK         0.1400 
     19 N           0.2301  -21.6670  -49.0916 N.am      11 UNK        -0.5000 
     20 C           0.3147  -21.8880  -47.7733 C.2       10 UNK         0.5000 
     21 O          -0.0007  -22.9515  -47.2422 O.2       10 UNK        -0.5000 
     22 CA          0.7785  -20.7175  -46.8910 C.3       10 UNK         0.1400 
     23 CB          2.3116  -20.6632  -46.8360 C.3       10 UNK        -0.1800 
     24 N           0.2462  -19.4119  -47.2939 N.am      10 UNK        -0.5000 
     25 C          -1.0572  -19.1071  -47.3804 C.2       9 UNK         0.5000 
     26 O          -1.9567  -19.9340  -47.2205 O.2       9 UNK        -0.5000 
     27 CA         -1.3949  -17.6281  -47.6297 C.3       9 UNK         0.1400 
     28 CB         -2.9017  -17.3203  -47.5265 C.3       9 UNK        -0.1800 
     29 N          -0.6621  -16.8119  -46.6667 N.am      9 UNK        -0.5000 
     30 C          -0.2379  -15.5573  -46.8600 C.2       8 UNK         0.5000 
     31 O          -0.4026  -14.9337  -47.9087 O.2       8 UNK        -0.5000 
     32 CA          0.4852  -14.8978  -45.6697 C.3       8 UNK         0.1400 
     33 CB          0.3765  -13.3626  -45.6604 C.3       8 UNK        -0.1800 
     34 N          -0.0207  -15.4296  -44.4054 N.am      8 UNK        -0.5000 
     35 C           0.7051  -15.7152  -43.3216 C.2       7 UNK         0.5000 
     36 O           1.9239  -15.5476  -43.2470 O.2       7 UNK        -0.5000 
     37 CA         -0.0847  -16.2673  -42.1205 C.3       7 UNK         0.1400 
     38 CB          0.8240  -16.6929  -40.9555 C.3       7 UNK        -0.1800 
     39 N          -1.0576  -15.2869  -41.6386 N.am      7 UNK        -0.5000 
     40 C          -2.2755  -15.0809  -42.1580 C.2       6 UNK         0.5000 
     41 O          -2.7150  -15.7031  -43.1261 O.2       6 UNK        -0.5000 
     42 CA         -3.1315  -13.9847  -41.4984 C.3       6 UNK         0.1400 
     43 CB         -3.8924  -14.5512  -40.2899 C.3       6 UNK        -0.1800 
     44 N          -2.3250  -12.8416  -41.0674 N.am      6 UNK        -0.5000 
     45 C          -1.8801  -11.8796  -41.8886 C.2       5 UNK         0.5000 
     46 O          -2.1543  -11.8196  -43.0875 O.2       5 UNK        -0.5000 
     47 CA         -0.9560  -10.8151  -41.2635 C.3       5 UNK         0.1400 
     48 CB         -1.7815   -9.6887  -40.6230 C.3       5 UNK        -0.1800 
     49 N          -0.0338  -11.3703  -40.2668 N.am      5 UNK        -0.5000 
     50 C           0.9410  -12.2411  -40.5559 C.2       4 UNK         0.5000 
     51 O           1.1775  -12.6416  -41.7000 O.2       4 UNK        -0.5000 
     52 CA          1.7730  -12.7743  -39.3777 C.3       4 UNK         0.1400 
     53 CB          0.9081  -13.5896  -38.3955 C.3       4 UNK        -0.1800 
     54 N           2.8185  -13.6103  -39.9488 N.am      4 UNK        -0.5000 
     55 C           3.9360  -14.0585  -39.3696 C.2       3 UNK         0.5000 
     56 O           4.2319  -13.8532  -38.1922 O.2       3 UNK        -0.5000 
     57 CA          4.8922  -14.8620  -40.2752 C.3       3 UNK         0.1400 
     58 CB          4.7187  -16.3717  -40.0499 C.3       3 UNK        -0.1800 
     59 N           4.6831  -14.5606  -41.6953 N.am      3 UNK        -0.5000 
     60 C           5.1634  -13.4707  -42.3114 C.2       2 UNK         0.5000 
     61 O           5.9264  -12.6677  -41.7716 O.2       2 UNK        -0.5000 
     62 CA          4.6741  -13.2173  -43.7517 C.3       2 UNK         0.1400 
     63 CB          5.6644  -12.3900  -44.5984 C.3       2 UNK        -0.1800 
     64 N           4.2557  -14.4393  -44.4454 N.am      2 UNK        -0.5000 
     65 C           5.0244  -15.4452  -44.8830 C.2       1 UNK         0.5000 
     66 O           6.2520  -15.4844  -44.7761 O.2       1 UNK        -0.5000 
     67 C          -1.7380  -22.9465  -49.9518 C.2       11 UNK         0.5000 
     68 O          -2.1744  -24.0452  -50.2963 O.2       11 UNK        -0.5000 
     69 N          -2.5158  -21.9669  -49.4708 N.am      12 UNK        -0.5000 
     70 CA         -3.9368  -22.1406  -49.1784 C.3       12 UNK         0.1400 
     71 CB         -4.6466  -20.7820  -49.1719 C.3       12 UNK        -0.1800 
     72 C          -4.1343  -22.8783  -47.8462 C.2       12 UNK         0.5000 
     73 O          -4.9527  -23.7940  -47.7801 O.2       12 UNK        -0.5000 
     74 N          -3.3419  -22.5100  -46.8287 N.am      13 UNK        -0.5000 
     75 CA         -3.3173  -23.1510  -45.5109 C.3       13 UNK         0.1400 
     76 CB         -2.4004  -22.3513  -44.5732 C.3       13 UNK        -0.1800 
     77 C          -2.8895  -24.6314  -45.5686 C.2       13 UNK         0.5000 
     78 O          -3.4687  -25.4619  -44.8679 O.2       13 UNK        -0.5000 
     79 N          -1.9144  -24.9385  -46.4347 N.am      14 UNK        -0.5000 
     80 CA         -1.4457  -26.2931  -46.7353 C.3       14 UNK         0.1400 
     81 CB         -0.0580  -26.1965  -47.3901 C.3       14 UNK        -0.1800 
     82 C          -2.4015  -27.0947  -47.6439 C.2       14 UNK         0.5000 
     83 O          -2.1943  -28.2974  -47.8092 O.2       14 UNK        -0.5000 
     84 N          -3.4016  -26.4219  -48.2354 N.am      15 UNK        -0.5000 
     85 CA         -4.3701  -26.9351  -49.2117 C.3       15 UNK         0.1400 
     86 CB         -5.2897  -27.9984  -48.5769 C.3       15 UNK        -0.1800 
     87 C          -3.7178  -27.4033  -50.5314 C.2       15 UNK         0.5000 
     88 O          -4.2358  -28.3024  -51.1956 O.2       15 UNK        -0.5000 
     89 N          -2.5945  -26.7717  -50.8917 N.am      16 UNK        -0.5000 
     90 CA         -1.8339  -27.0267  -52.1119 C.3       16 UNK         0.1400 
     91 CB         -0.3496  -26.7344  -51.8400 C.3       16 UNK        -0.1800 
     92 C          -2.3426  -26.1758  -53.2880 C.2       16 UNK         0.5000 
     93 O          -2.3084  -26.6417  -54.4273 O.2       16 UNK        -0.5000 
     94 N          -2.8061  -24.9529  -52.9952 N.am      17 UNK        -0.5000 
     95 CA         -3.3072  -23.9908  -53.9787 C.3       17 UNK         0.1400 
     96 CB         -2.1578  -23.0899  -54.4641 C.3       17 UNK        -0.1800 
     97 C          -4.4970  -23.1863  -53.4259 C.2       17 UNK         0.5000 
     98 O          -4.6982  -22.0347  -53.8244 O.2       17 UNK        -0.5000 
     99 N          -5.2739  -23.8090  -52.5280 N.am      18 UNK        -0.5000 
    100 CA        -6.4969  -23.2559  -51.9464 C.3       18 UNK         0.1400 
    101 CB        -7.0429  -24.2188  -50.8817 C.3       18 UNK        -0.1800 
    102 C         -7.5552  -22.9701  -53.0258 C.2       18 UNK         0.5000 
    103 O         -7.9610  -23.8890  -53.7396 O.2       18 UNK        -0.5000 
    104 N         -7.9340  -21.6919  -53.1387 N.am      19 UNK        -0.5000 
    105 CA        -8.8315  -21.0890  -54.1296 C.3       19 UNK         0.1400 
    106 CB       -10.2324  -21.7343  -54.0917 C.3       19 UNK        -0.1800 
    107 C         -8.2490  -21.0298  -55.5590 C.2       19 UNK         0.5000 
    108 O         -8.9573  -20.6054  -56.4736 O.2       19 UNK        -0.5000 
    109 N         -6.9784  -21.4186  -55.7324 N.am      20 UNK        -0.5000 
    110 CA        -6.2434  -21.3334  -56.9920 C.3       20 UNK         0.1400 
    111 CB        -5.4819  -22.6460  -57.2408 C.3       20 UNK        -0.1800 
    112 C         -5.2881  -20.1327  -56.9561 C.2       20 UNK         0.5000 
    113 O         -5.3354  -19.2956  -57.8582 O.2       20 UNK        -0.5000 
    114 N         -4.4591  -20.0575  -55.9061 N.am      21 UNK        -0.5000 
    115 CA        -3.5276  -18.9545  -55.6716 C.3       21 UNK         0.1400 
    116 CB        -2.1934  -19.5151  -55.1575 C.3       21 UNK        -0.1800 
    117 C         -4.1011  -17.9444  -54.6669 C.2       21 UNK         0.5000 
    118 O         -3.9434  -16.7388  -54.8622 O.2       21 UNK        -0.5000 
    119 N         -4.7505  -18.4491  -53.6131 N.am      22 UNK        -0.5000 
    120 CA        -5.3095  -17.6716  -52.5007 C.3       22 UNK         0.1400 
    121 C         -6.3001  -18.5203  -51.6602 C.2       22 UNK         0.5000 
    122 N         -7.0097  -17.9167  -50.7171 N.am      22 UNK        -0.7600 
    123 O         -6.4516  -19.7226  -51.8614 O.2       22 UNK        -0.5000 
    124 C124       -4.2276  -16.9550  -51.6367 C.3       23 UNK        -0.0398 
    125 S125       -2.8043  -17.9950  -51.1396 S.3       23 UNK        -0.2404 
    126 C126       -1.4517  -17.0819  -51.9421 C.3       23 UNK        -0.0205 
    127 H127        2.9005  -18.4217  -43.5422 H         1 UNK         0.0600 
    128 H128        4.0981  -17.3352  -42.8198 H         1 UNK         0.0600 
    129 H129        4.0658  -19.0347  -42.3710 H         1 UNK         0.0600 
    130 H130        5.6325  -18.0939  -46.1335 H         1 UNK         0.3000 
    131 H131        3.2810  -16.6731  -45.1421 H         1 UNK         0.0600 
    132 H132        3.7029  -15.2305  -47.2107 H         1 UNK         0.0800 
    133 H133        5.0257  -16.2973  -47.6206 H         1 UNK         0.0800 
    134 H134        4.0438  -16.9437  -49.9418 H         1 UNK         0.0800 
    135 H135        2.8213  -15.7297  -49.6447 H         1 UNK         0.0800 
    136 H136        0.4741  -16.1139  -50.2654 H         1 UNK         0.1150 
    137 H137       -0.3430  -19.3462  -52.9543 H         1 UNK         0.1150 
    138 H138        3.4415  -19.1307  -50.9532 H         1 UNK         0.1150 
    139 H139        1.4544  -20.8048  -53.6478 H         1 UNK         0.0800 
    140 H140        3.0773  -20.5033  -53.0875 H         1 UNK         0.0800 
    141 H141       -0.1079  -23.1870  -52.1654 H         1 UNK         0.0800 
    142 H142       -0.3612  -21.4875  -51.8668 H         1 UNK         0.0800 
    143 H143        0.2693  -23.6194  -49.7859 H         1 UNK         0.0600 
    144 H144        0.5170  -20.7735  -49.4647 H         1 UNK         0.3000 
    145 H145        0.4158  -20.9123  -45.8800 H         1 UNK         0.0600 
    146 H146        2.7417  -20.4358  -47.8123 H         1 UNK         0.0600 
    147 H147        2.6543  -19.9063  -46.1308 H         1 UNK         0.0600 
    148 H148        2.7258  -21.6181  -46.5100 H         1 UNK         0.0600 
    149 H149        0.9277  -18.6825  -47.4612 H         1 UNK         0.3000 
    150 H150       -1.0598  -17.3936  -48.6405 H         1 UNK         0.0600 
    151 H151       -3.4770  -17.9217  -48.2297 H         1 UNK         0.0600 
    152 H152       -3.1070  -16.2749  -47.7565 H         1 UNK         0.0600 
    153 H153       -3.2851  -17.5262  -46.5265 H         1 UNK         0.0600 
    154 H154       -0.4586  -17.2590  -45.7839 H         1 UNK         0.3000 
    155 H155        1.5366  -15.1611  -45.7817 H         1 UNK         0.0600 
    156 H156        0.7947  -12.9306  -46.5703 H         1 UNK         0.0600 
    157 H157        0.9209  -12.9345  -44.8180 H         1 UNK         0.0600 
    158 H158       -0.6617  -13.0373  -45.5842 H         1 UNK         0.0600 
    159 H159       -1.0260  -15.5602  -44.3467 H         1 UNK         0.3000 
    160 H160       -0.6145  -17.1591  -42.4622 H         1 UNK         0.0600 
    161 H161        1.4048  -15.8567  -40.5711 H         1 UNK         0.0600 
    162 H162        1.5270  -17.4639  -41.2727 H         1 UNK         0.0600 
    163 H163        0.2426  -17.1045  -40.1305 H         1 UNK         0.0600 
    164 H164       -0.7522  -14.6854  -40.8904 H         1 UNK         0.3000 
    165 H165       -3.8660  -13.6454  -42.2322 H         1 UNK         0.0600 
    166 H166       -4.5496  -13.8001  -39.8512 H         1 UNK         0.0600 
    167 H167       -4.5168  -15.3961  -40.5835 H         1 UNK         0.0600 
    168 H168       -3.2135  -14.8999  -39.5105 H         1 UNK         0.0600 
    169 H169       -2.0704  -12.7996  -40.0918 H         1 UNK         0.3000 
    170 H170       -0.3599  -10.3825  -42.0701 H         1 UNK         0.0600 
    171 H171       -2.4640   -9.2442  -41.3487 H         1 UNK         0.0600 
    172 H172       -2.3815  -10.0519  -39.7878 H         1 UNK         0.0600 
    173 H173       -1.1383   -8.8901  -40.2528 H         1 UNK         0.0600 
    174 H174       -0.1672  -11.0744  -39.3104 H         1 UNK         0.3000 
    175 H175        2.2318  -11.9283  -38.8626 H         1 UNK         0.0600 
    176 H176        0.4062  -14.4211  -38.8899 H         1 UNK         0.0600 
    177 H177        1.5084  -14.0008  -37.5840 H         1 UNK         0.0600 
    178 H178        0.1389  -12.9682  -37.9362 H         1 UNK         0.0600 
    179 H179        2.6780  -13.7803  -40.9383 H         1 UNK         0.3000 
    180 H180        5.9143  -14.5944  -39.9986 H         1 UNK         0.0600 
    181 H181        3.7195  -16.7100  -40.3221 H         1 UNK         0.0600 
    182 H182        4.8783  -16.6307  -39.0024 H         1 UNK         0.0600 
    183 H183        5.4383  -16.9421  -40.6374 H         1 UNK         0.0600 
    184 H184        4.0335  -15.1484  -42.2009 H         1 UNK         0.3000 
    185 H185        3.7670  -12.6199  -43.6463 H         1 UNK         0.0600 
    186 H186        6.6400  -12.8709  -44.6712 H         1 UNK         0.0600 
    187 H187        5.2874  -12.2371  -45.6096 H         1 UNK         0.0600 
    188 H188        5.8220  -11.4038  -44.1604 H         1 UNK         0.0600 
    189 H189        3.2514  -14.5782  -44.4620 H         1 UNK         0.3000 
    190 H190       -2.0901  -21.1067  -49.1529 H         1 UNK         0.3000 
    191 H191       -4.3820  -22.7453  -49.9692 H         1 UNK         0.0600 
    192 H192       -4.4531  -20.2419  -50.0967 H         1 UNK         0.0600 
    193 H193       -5.7265  -20.9080  -49.0883 H         1 UNK         0.0600 
    194 H194       -4.3255  -20.1540  -48.3420 H         1 UNK         0.0600 
    195 H195       -2.7220  -21.7161  -46.9619 H         1 UNK         0.3000 
    196 H196       -4.3314  -23.1147  -45.1078 H         1 UNK         0.0600 
    197 H197       -2.4103  -22.7715  -43.5668 H         1 UNK         0.0600 
    198 H198       -2.7228  -21.3127  -44.4967 H         1 UNK         0.0600 
    199 H199       -1.3672  -22.3558  -44.9200 H         1 UNK         0.0600 
    200 H200       -1.4242  -24.1792  -46.9005 H         1 UNK         0.3000 
    201 H201       -1.3452  -26.8429  -45.7974 H         1 UNK         0.0600 
    202 H202        0.6487  -25.6766  -46.7430 H         1 UNK         0.0600 
    203 H203       -0.0999  -25.6613  -48.3395 H         1 UNK         0.0600 
    204 H204        0.3538  -27.1866  -47.5895 H         1 UNK         0.0600 
    205 H205       -3.5059  -25.4413  -48.0080 H         1 UNK         0.3000 
    206 H206       -4.9964  -26.0854  -49.4791 H         1 UNK         0.0600 
    207 H207       -4.7503  -28.9173  -48.3460 H         1 UNK         0.0600 
    208 H208       -5.7373  -27.6301  -47.6538 H         1 UNK         0.0600 
    209 H209       -6.1069  -28.2604  -49.2499 H         1 UNK         0.0600 
    210 H210       -2.2881  -25.9840  -50.3303 H         1 UNK         0.3000 
    211 H211       -1.9290  -28.0791  -52.3878 H         1 UNK         0.0600 
    212 H212        0.2559  -26.9308  -52.7256 H         1 UNK         0.0600 
    213 H213        0.0339  -27.3645  -51.0371 H         1 UNK         0.0600 
    214 H214       -0.1868  -25.6947  -51.5544 H         1 UNK         0.0600 
    215 H215       -2.7687  -24.6372  -52.0298 H         1 UNK         0.3000 
    216 H216       -3.6980  -24.5329  -54.8420 H         1 UNK         0.0600 
    217 H217       -2.4738  -22.4833  -55.3126 H         1 UNK         0.0600 
    218 H218       -1.2999  -23.6771  -54.7919 H         1 UNK         0.0600 
    219 H219       -1.8240  -22.4116  -53.6799 H         1 UNK         0.0600 
    220 H220       -5.0666  -24.7716  -52.3096 H         1 UNK         0.3000 
    221 H221       -6.2365  -22.3199  -51.4498 H         1 UNK         0.0600 
    222 H222       -7.2233  -25.2144  -51.2889 H         1 UNK         0.0600 
    223 H223       -6.3516  -24.3133  -50.0467 H         1 UNK         0.0600 
    224 H224       -7.9867  -23.8544  -50.4740 H         1 UNK         0.0600 
    225 H225       -7.4591  -21.0116  -52.5434 H         1 UNK         0.3000 
    226 H226       -8.9456  -20.0499  -53.8176 H         1 UNK         0.0600 
    227 H227      -10.6259  -21.7649  -53.0757 H         1 UNK         0.0600 
    228 H228      -10.9403  -21.1649  -54.6950 H         1 UNK         0.0600 
    229 H229      -10.2232  -22.7526  -54.4807 H         1 UNK         0.0600 
    230 H230       -6.4525  -21.7191  -54.9207 H         1 UNK         0.3000 
    231 H231       -6.9320  -21.1901  -57.8274 H         1 UNK         0.0600 
    232 H232       -4.7419  -22.8458  -56.4675 H         1 UNK         0.0600 
    233 H233       -4.9550  -22.6131  -58.1951 H         1 UNK         0.0600 
    234 H234       -6.1652  -23.4947  -57.2755 H         1 UNK         0.0600 
    235 H235       -4.4960  -20.7817  -55.1939 H         1 UNK         0.3000 
    236 H236       -3.3261  -18.4233  -56.6043 H         1 UNK         0.0600 
    237 H237       -1.7545  -20.2087  -55.8744 H         1 UNK         0.0600 
    238 H238       -1.4713  -18.7130  -55.0018 H         1 UNK         0.0600 
    239 H239       -2.3165  -20.0393  -54.2091 H         1 UNK         0.0600 
    240 H240       -4.8634  -19.4500  -53.5151 H         1 UNK         0.3000 
    241 H241       -5.9321  -16.8993  -52.9559 H         1 UNK         0.0600 
    242 H242       -7.6570  -18.4650  -50.1738 H         1 UNK         0.3800 
    243 H243       -6.9317  -16.9281  -50.5383 H         1 UNK         0.3800 
    244 H244       -3.8567  -16.0947  -52.1944 H         1 UNK         0.0800 
    245 H245       -4.6625  -16.5267  -50.7328 H         1 UNK         0.0800 
    246 H246       -1.6069  -17.0777  -53.0216 H         1 UNK         0.0800 
    247 H247       -1.4859  -16.0392  -51.6222 H         1 UNK         0.0800 
@<TRIPOS>BOND
     1    1    2 1    
     2    1  127 1    
     3    1  128 1    
     4    1  129 1    
     5    2    3 2    
     6    2    4 am   BACKBONE|DICT|INTERRES
     7    4    5 1    
     8    4  130 1    
     9    5    6 1    
    10    5   65 1    
    11    5  131 1    
    12    6    7 1    
    13    6  132 1    
    14    6  133 1    
    15    7    8 1    
    16    8    9 1    
    17    8  134 1    
    18    8  135 1    
    19    9   10 ar   
    20    9   14 ar   
    21   10   11 ar   
    22   10  136 1    
    23   11   12 ar   
    24   11  126 1    
    25   12   13 ar   
    26   12  137 1    
    27   13   14 ar   
    28   13   15 1    
    29   14  138 1    
    30   15   16 1    
    31   15  139 1    
    32   15  140 1    
    33   16   17 1    
    34   17   18 1    
    35   17  141 1    
    36   17  142 1    
    37   18   19 1    
    38   18   67 1    
    39   18  143 1    
    40   19   20 am   BACKBONE|DICT|INTERRES
    41   19  144 1    
    42   20   21 2    
    43   20   22 1    
    44   22   23 1    
    45   22   24 1    
    46   22  145 1    
    47   23  146 1    
    48   23  147 1    
    49   23  148 1    
    50   24   25 am   BACKBONE|DICT|INTERRES
    51   24  149 1    
    52   25   26 2    
    53   25   27 1    
    54   27   28 1    
    55   27   29 1    
    56   27  150 1    
    57   28  151 1    
    58   28  152 1    
    59   28  153 1    
    60   29   30 am   BACKBONE|DICT|INTERRES
    61   29  154 1    
    62   30   31 2    
    63   30   32 1    
    64   32   33 1    
    65   32   34 1    
    66   32  155 1    
    67   33  156 1    
    68   33  157 1    
    69   33  158 1    
    70   34   35 am   BACKBONE|DICT|INTERRES
    71   34  159 1    
    72   35   36 2    
    73   35   37 1    
    74   37   38 1    
    75   37   39 1    
    76   37  160 1    
    77   38  161 1    
    78   38  162 1    
    79   38  163 1    
    80   39   40 am   BACKBONE|DICT|INTERRES
    81   39  164 1    
    82   40   41 2    
    83   40   42 1    
    84   42   43 1    
    85   42   44 1    
    86   42  165 1    
    87   43  166 1    
    88   43  167 1    
    89   43  168 1    
    90   44   45 am   BACKBONE|DICT|INTERRES
    91   44  169 1    
    92   45   46 2    
    93   45   47 1    
    94   47   48 1    
    95   47   49 1    
    96   47  170 1    
    97   48  171 1    
    98   48  172 1    
    99   48  173 1    
   100   49   50 am   BACKBONE|DICT|INTERRES
   101   49  174 1    
   102   50   51 2    
   103   50   52 1    
   104   52   53 1    
   105   52   54 1    
   106   52  175 1    
   107   53  176 1    
   108   53  177 1    
   109   53  178 1    
   110   54   55 am   BACKBONE|DICT|INTERRES
   111   54  179 1    
   112   55   56 2    
   113   55   57 1    
   114   57   58 1    
   115   57   59 1    
   116   57  180 1    
   117   58  181 1    
   118   58  182 1    
   119   58  183 1    
   120   59   60 am   BACKBONE|DICT|INTERRES
   121   59  184 1    
   122   60   61 2    
   123   60   62 1    
   124   62   63 1    
   125   62   64 1    
   126   62  185 1    
   127   63  186 1    
   128   63  187 1    
   129   63  188 1    
   130   64   65 am   BACKBONE|DICT|INTERRES
   131   64  189 1    
   132   65   66 2    
   133   67   68 2    
   134   67   69 am   BACKBONE|DICT|INTERRES
   135   69   70 1    
   136   69  190 1    
   137   70   71 1    
   138   70   72 1    
   139   70  191 1    
   140   71  192 1    
   141   71  193 1    
   142   71  194 1    
   143   72   73 2    
   144   72   74 am   BACKBONE|DICT|INTERRES
   145   74   75 1    
   146   74  195 1    
   147   75   76 1    
   148   75   77 1    
   149   75  196 1    
   150   76  197 1    
   151   76  198 1    
   152   76  199 1    
   153   77   78 2    
   154   77   79 am   BACKBONE|DICT|INTERRES
   155   79   80 1    
   156   79  200 1    
   157   80   81 1    
   158   80   82 1    
   159   80  201 1    
   160   81  202 1    
   161   81  203 1    
   162   81  204 1    
   163   82   83 2    
   164   82   84 am   BACKBONE|DICT|INTERRES
   165   84   85 1    
   166   84  205 1    
   167   85   86 1    
   168   85   87 1    
   169   85  206 1    
   170   86  207 1    
   171   86  208 1    
   172   86  209 1    
   173   87   88 2    
   174   87   89 am   BACKBONE|DICT|INTERRES
   175   89   90 1    
   176   89  210 1    
   177   90   91 1    
   178   90   92 1    
   179   90  211 1    
   180   91  212 1    
   181   91  213 1    
   182   91  214 1    
   183   92   93 2    
   184   92   94 am   BACKBONE|DICT|INTERRES
   185   94   95 1    
   186   94  215 1    
   187   95   96 1    
   188   95   97 1    
   189   95  216 1    
   190   96  217 1    
   191   96  218 1    
   192   96  219 1    
   193   97   98 2    
   194   97   99 am   BACKBONE|DICT|INTERRES
   195   99  100 1    
   196   99  220 1    
   197  100  101 1    
   198  100  102 1    
   199  100  221 1    
   200  101  222 1    
   201  101  223 1    
   202  101  224 1    
   203  102  103 2    
   204  102  104 am   BACKBONE|DICT|INTERRES
   205  104  105 1    
   206  104  225 1    
   207  105  106 1    
   208  105  107 1    
   209  105  226 1    
   210  106  227 1    
   211  106  228 1    
   212  106  229 1    
   213  107  108 2    
   214  107  109 am   BACKBONE|DICT|INTERRES
   215  109  110 1    
   216  109  230 1    
   217  110  111 1    
   218  110  112 1    
   219  110  231 1    
   220  111  232 1    
   221  111  233 1    
   222  111  234 1    
   223  112  113 2    
   224  112  114 am   BACKBONE|DICT|INTERRES
   225  114  115 1    
   226  114  235 1    
   227  115  116 1    
   228  115  117 1    
   229  115  236 1    
   230  116  237 1    
   231  116  238 1    
   232  116  239 1    
   233  117  118 2    
   234  117  119 am   BACKBONE|DICT|INTERRES
   235  119  120 1    
   236  119  240 1    
   237  120  121 1    
   238  120  124 1    
   239  120  241 1    
   240  121  122 am   BACKBONE|DICT|INTERRES
   241  121  123 2    
   242  122  242 1    
   243  122  243 1    
   244  124  125 1    
   245  124  244 1    
   246  124  245 1    
   247  125  126 1    
   248  126  246 1    
   249  126  247 1    
@<TRIPOS>SUBSTRUCTURE
     1 UNK         1 GROUP             0       ****    0 ROOT    
