@<TRIPOS>MOLECULE
3R540
247   249    1
SMALL
USER_CHARGES


@<TRIPOS>ATOM
      1 CA          6.3295  -20.7074  -51.4329 C.3       0 UNK        -0.1800 
      2 C           5.5565  -20.0981  -50.2723 C.2       0 UNK         0.5000 
      3 O           6.0956  -19.9766  -49.1727 O.2       0 UNK        -0.5000 
      4 N           4.2957  -19.7172  -50.5125 N.am      1 UNK        -0.5000 
      5 CA          3.3993  -19.1068  -49.5234 C.3       1 UNK         0.1400 
      6 C6          1.9137  -19.2719  -49.9203 C.3       23 UNK        -0.0398 
      7 S7          1.4642  -18.6769  -51.5916 S.3       23 UNK        -0.2404 
      8 C8          0.8215  -17.0001  -51.2790 C.3       23 UNK        -0.0205 
      9 C9         -0.3647  -16.9791  -50.3266 C.ar      23 UNK        -0.0193 
     10 C10        -1.6473  -17.2944  -50.7837 C.ar      23 UNK        -0.1150 
     11 C11        -2.7380  -17.2621  -49.9086 C.ar      23 UNK        -0.0193 
     12 C12        -2.5332  -16.9373  -48.5649 C.ar      23 UNK        -0.1150 
     13 C13        -1.2554  -16.6199  -48.0979 C.ar      23 UNK        -0.0193 
     14 C14        -0.1788  -16.6246  -48.9872 C.ar      23 UNK        -0.1150 
     15 C15        -1.0452  -16.2551  -46.6377 C.3       23 UNK        -0.0205 
     16 S16        -1.0830  -17.7160  -45.5519 S.3       23 UNK        -0.2404 
     17 C17         0.5150  -18.5154  -45.9188 C.3       23 UNK        -0.0398 
     18 CA          0.5057  -20.0621  -46.0050 C.3       11 UNK         0.1400 
     19 N           0.4791  -20.7219  -44.6968 N.am      11 UNK        -0.5000 
     20 C           0.8417  -22.0009  -44.5153 C.2       10 UNK         0.5000 
     21 O           1.2443  -22.7289  -45.4221 O.2       10 UNK        -0.5000 
     22 CA          0.6982  -22.5829  -43.1024 C.3       10 UNK         0.1400 
     23 CB          1.8885  -22.1798  -42.2198 C.3       10 UNK        -0.1800 
     24 N          -0.5554  -22.1763  -42.4728 N.am      10 UNK        -0.5000 
     25 C          -1.7594  -22.6549  -42.8141 C.2       9 UNK         0.5000 
     26 O          -1.9366  -23.4854  -43.7052 O.2       9 UNK        -0.5000 
     27 CA         -2.9706  -22.0962  -42.0450 C.3       9 UNK         0.1400 
     28 CB         -3.1857  -22.8727  -40.7374 C.3       9 UNK        -0.1800 
     29 N          -2.8411  -20.6699  -41.7458 N.am      9 UNK        -0.5000 
     30 C          -2.8794  -19.7070  -42.6762 C.2       8 UNK         0.5000 
     31 O          -3.0531  -19.9265  -43.8744 O.2       8 UNK        -0.5000 
     32 CA         -2.6536  -18.2634  -42.1875 C.3       8 UNK         0.1400 
     33 CB         -3.9618  -17.6714  -41.6423 C.3       8 UNK        -0.1800 
     34 N          -1.5971  -18.1072  -41.1819 N.am      8 UNK        -0.5000 
     35 C          -0.3371  -18.5561  -41.2785 C.2       7 UNK         0.5000 
     36 O           0.0709  -19.2703  -42.1951 O.2       7 UNK        -0.5000 
     37 CA          0.6234  -18.0776  -40.1785 C.3       7 UNK         0.1400 
     38 CB          2.0174  -18.7227  -40.2713 C.3       7 UNK        -0.1800 
     39 N           0.7601  -16.6344  -40.3238 N.am      7 UNK        -0.5000 
     40 C           0.4413  -15.7159  -39.4031 C.2       6 UNK         0.5000 
     41 O           0.0784  -15.9918  -38.2592 O.2       6 UNK        -0.5000 
     42 CA          0.5138  -14.2355  -39.8368 C.3       6 UNK         0.1400 
     43 CB          1.8399  -13.6068  -39.3827 C.3       6 UNK        -0.1800 
     44 N           0.3724  -14.0511  -41.2831 N.am      6 UNK        -0.5000 
     45 C          -0.7325  -14.3299  -41.9892 C.2       5 UNK         0.5000 
     46 O          -1.8062  -14.6420  -41.4741 O.2       5 UNK        -0.5000 
     47 CA         -0.6167  -14.2923  -43.5262 C.3       5 UNK         0.1400 
     48 CB         -1.3120  -13.0470  -44.0955 C.3       5 UNK        -0.1800 
     49 N           0.7537  -14.3466  -44.0487 N.am      5 UNK        -0.5000 
     50 C           1.6276  -15.3497  -43.8941 C.2       4 UNK         0.5000 
     51 O           1.3987  -16.3357  -43.1944 O.2       4 UNK        -0.5000 
     52 CA          2.9837  -15.2118  -44.6235 C.3       4 UNK         0.1400 
     53 CB          3.8237  -16.5014  -44.5755 C.3       4 UNK        -0.1800 
     54 N           2.8665  -14.7856  -46.0228 N.am      4 UNK        -0.5000 
     55 C           2.6120  -13.5364  -46.4439 C.2       3 UNK         0.5000 
     56 O           2.3329  -12.6123  -45.6783 O.2       3 UNK        -0.5000 
     57 CA          2.7202  -13.2790  -47.9574 C.3       3 UNK         0.1400 
     58 CB          2.9346  -11.7938  -48.3079 C.3       3 UNK        -0.1800 
     59 N           3.8084  -14.0861  -48.4989 N.am      3 UNK        -0.5000 
     60 C           3.8721  -14.5833  -49.7361 C.2       2 UNK         0.5000 
     61 O           3.0774  -14.2987  -50.6323 O.2       2 UNK        -0.5000 
     62 CA          4.9968  -15.6015  -50.0150 C.3       2 UNK         0.1400 
     63 CB          6.1639  -15.5411  -49.0033 C.3       2 UNK        -0.1800 
     64 N           4.4824  -16.9719  -50.1017 N.am      2 UNK        -0.5000 
     65 C           3.7552  -17.6403  -49.1897 C.2       1 UNK         0.5000 
     66 O           3.3767  -17.1601  -48.1177 O.2       1 UNK        -0.5000 
     67 C          -0.5508  -20.6522  -46.9643 C.2       11 UNK         0.5000 
     68 O          -0.2404  -20.8622  -48.1349 O.2       11 UNK        -0.5000 
     69 N          -1.7385  -21.0008  -46.4442 N.am      12 UNK        -0.5000 
     70 CA         -2.7780  -21.7155  -47.1865 C.3       12 UNK         0.1400 
     71 CB         -4.0695  -21.7651  -46.3584 C.3       12 UNK        -0.1800 
     72 C          -2.3454  -23.1332  -47.6080 C.2       12 UNK         0.5000 
     73 O          -2.6155  -23.5352  -48.7403 O.2       12 UNK        -0.5000 
     74 N          -1.6545  -23.8524  -46.7108 N.am      13 UNK        -0.5000 
     75 CA         -1.0766  -25.1693  -46.9845 C.3       13 UNK         0.1400 
     76 CB         -0.5795  -25.8073  -45.6789 C.3       13 UNK        -0.1800 
     77 C           0.0482  -25.1120  -48.0341 C.2       13 UNK         0.5000 
     78 O           0.0772  -25.9530  -48.9322 O.2       13 UNK        -0.5000 
     79 N           0.9233  -24.1011  -47.9324 N.am      14 UNK        -0.5000 
     80 CA          1.9950  -23.8238  -48.8921 C.3       14 UNK         0.1400 
     81 CB          2.9279  -22.7457  -48.3209 C.3       14 UNK        -0.1800 
     82 C           1.4701  -23.4139  -50.2816 C.2       14 UNK         0.5000 
     83 O           2.0739  -23.7821  -51.2894 O.2       14 UNK        -0.5000 
     84 N           0.3430  -22.6885  -50.3127 N.am      15 UNK        -0.5000 
     85 CA         -0.3763  -22.3084  -51.5300 C.3       15 UNK         0.1400 
     86 CB         -1.3986  -21.2130  -51.1906 C.3       15 UNK        -0.1800 
     87 C          -1.0809  -23.4965  -52.2158 C.2       15 UNK         0.5000 
     88 O          -1.4042  -23.4007  -53.4002 O.2       15 UNK        -0.5000 
     89 N          -1.3237  -24.5784  -51.4599 N.am      16 UNK        -0.5000 
     90 CA         -1.9406  -25.8626  -51.8185 C.3       16 UNK         0.1400 
     91 CB         -1.1543  -26.5741  -52.9352 C.3       16 UNK        -0.1800 
     92 C          -3.4412  -25.7764  -52.1547 C.2       16 UNK         0.5000 
     93 O          -4.2210  -26.5902  -51.6592 O.2       16 UNK        -0.5000 
     94 N          -3.8260  -24.7820  -52.9615 N.am      17 UNK        -0.5000 
     95 CA         -5.2083  -24.4628  -53.3213 C.3       17 UNK         0.1400 
     96 CB         -5.2029  -23.7314  -54.6729 C.3       17 UNK        -0.1800 
     97 C          -5.9299  -23.6232  -52.2459 C.2       17 UNK         0.5000 
     98 O          -7.1240  -23.3581  -52.3936 O.2       17 UNK        -0.5000 
     99 N          -5.2006  -23.2103  -51.1974 N.am      18 UNK        -0.5000 
    100 CA        -5.6403  -22.3526  -50.0968 C.3       18 UNK         0.1400 
    101 CB        -6.6560  -23.0922  -49.1973 C.3       18 UNK        -0.1800 
    102 C         -6.1140  -20.9794  -50.6113 C.2       18 UNK         0.5000 
    103 O         -5.4110  -20.3720  -51.4201 O.2       18 UNK        -0.5000 
    104 N         -7.2850  -20.5148  -50.1543 N.am      19 UNK        -0.5000 
    105 CA        -7.8733  -19.2106  -50.4743 C.3       19 UNK         0.1400 
    106 CB        -9.2016  -19.0617  -49.7185 C.3       19 UNK        -0.1800 
    107 C         -8.0794  -18.9437  -51.9781 C.2       19 UNK         0.5000 
    108 O         -8.0507  -17.7854  -52.3921 O.2       19 UNK        -0.5000 
    109 N         -8.2321  -20.0033  -52.7846 N.am      20 UNK        -0.5000 
    110 CA        -8.3511  -19.9214  -54.2427 C.3       20 UNK         0.1400 
    111 CB        -8.7255  -21.3036  -54.7963 C.3       20 UNK        -0.1800 
    112 C         -7.0897  -19.3738  -54.9452 C.2       20 UNK         0.5000 
    113 O         -7.1955  -18.8957  -56.0751 O.2       20 UNK        -0.5000 
    114 N         -5.9309  -19.4292  -54.2722 N.am      21 UNK        -0.5000 
    115 CA        -4.6663  -18.8806  -54.7610 C.3       21 UNK         0.1400 
    116 CB        -3.5074  -19.6706  -54.1342 C.3       21 UNK        -0.1800 
    117 C         -4.4977  -17.3725  -54.4812 C.2       21 UNK         0.5000 
    118 O         -3.5337  -16.7916  -54.9825 O.2       21 UNK        -0.5000 
    119 N         -5.3904  -16.7611  -53.6882 N.am      22 UNK        -0.5000 
    120 CA        -5.2745  -15.3566  -53.2547 C.3       22 UNK         0.1400 
    121 C         -6.6040  -14.5513  -53.2300 C.2       22 UNK         0.5000 
    122 N         -7.7763  -15.1704  -53.2407 N.am      22 UNK        -0.7600 
    123 O         -6.5717  -13.3234  -53.2352 O.2       22 UNK        -0.5000 
    124 C124       -4.4668  -15.2165  -51.9371 C.3       23 UNK        -0.0398 
    125 S125       -5.1959  -16.1070  -50.5142 S.3       23 UNK        -0.2404 
    126 C126       -4.1378  -17.5859  -50.4057 C.3       23 UNK        -0.0205 
    127 H127        6.6472  -21.7193  -51.1814 H         1 UNK         0.0600 
    128 H128        5.7271  -20.7563  -52.3404 H         1 UNK         0.0600 
    129 H129        7.2177  -20.1126  -51.6457 H         1 UNK         0.0600 
    130 H130        3.9014  -19.8408  -51.4350 H         1 UNK         0.3000 
    131 H131        3.5327  -19.6553  -48.5885 H         1 UNK         0.0600 
    132 H132        1.2600  -18.8417  -49.1650 H         1 UNK         0.0800 
    133 H133        1.6781  -20.3340  -49.9099 H         1 UNK         0.0800 
    134 H134        0.5296  -16.5527  -52.2300 H         1 UNK         0.0800 
    135 H135        1.6266  -16.3800  -50.8912 H         1 UNK         0.0800 
    136 H136       -1.7945  -17.5606  -51.8212 H         1 UNK         0.1150 
    137 H137       -3.3716  -16.9243  -47.8826 H         1 UNK         0.1150 
    138 H138        0.8099  -16.3675  -48.6340 H         1 UNK         0.1150 
    139 H139       -0.1029  -15.7230  -46.5017 H         1 UNK         0.0800 
    140 H140       -1.8316  -15.5664  -46.3262 H         1 UNK         0.0800 
    141 H141        1.2198  -18.2051  -45.1486 H         1 UNK         0.0800 
    142 H142        0.9093  -18.1101  -46.8499 H         1 UNK         0.0800 
    143 H143        1.4723  -20.3221  -46.4422 H         1 UNK         0.0600 
    144 H144        0.1799  -20.1687  -43.8969 H         1 UNK         0.3000 
    145 H145        0.6985  -23.6719  -43.1855 H         1 UNK         0.0600 
    146 H146        1.7820  -22.5674  -41.2066 H         1 UNK         0.0600 
    147 H147        2.8202  -22.5770  -42.6244 H         1 UNK         0.0600 
    148 H148        1.9991  -21.0976  -42.1584 H         1 UNK         0.0600 
    149 H149       -0.5019  -21.4145  -41.8111 H         1 UNK         0.3000 
    150 H150       -3.8541  -22.2352  -42.6720 H         1 UNK         0.0600 
    151 H151       -3.3040  -23.9394  -40.9326 H         1 UNK         0.0600 
    152 H152       -4.0857  -22.5360  -40.2225 H         1 UNK         0.0600 
    153 H153       -2.3434  -22.7552  -40.0545 H         1 UNK         0.0600 
    154 H154       -2.6886  -20.4096  -40.7827 H         1 UNK         0.3000 
    155 H155       -2.3577  -17.6655  -43.0484 H         1 UNK         0.0600 
    156 H156       -4.2904  -18.1841  -40.7376 H         1 UNK         0.0600 
    157 H157       -4.7638  -17.7533  -42.3772 H         1 UNK         0.0600 
    158 H158       -3.8478  -16.6132  -41.4065 H         1 UNK         0.0600 
    159 H159       -1.8204  -17.5021  -40.4050 H         1 UNK         0.3000 
    160 H160        0.1835  -18.3400  -39.2144 H         1 UNK         0.0600 
    161 H161        2.6807  -18.3360  -39.4976 H         1 UNK         0.0600 
    162 H162        2.4869  -18.5338  -41.2381 H         1 UNK         0.0600 
    163 H163        1.9554  -19.8024  -40.1347 H         1 UNK         0.0600 
    164 H164        1.0025  -16.3284  -41.2626 H         1 UNK         0.3000 
    165 H165       -0.3053  -13.7065  -39.3454 H         1 UNK         0.0600 
    166 H166        1.8756  -12.5438  -39.6218 H         1 UNK         0.0600 
    167 H167        1.9669  -13.7002  -38.3033 H         1 UNK         0.0600 
    168 H168        2.6963  -14.0880  -39.8568 H         1 UNK         0.0600 
    169 H169        1.2049  -13.7929  -41.7914 H         1 UNK         0.3000 
    170 H170       -1.1425  -15.1742  -43.8944 H         1 UNK         0.0600 
    171 H171       -2.3476  -12.9865  -43.7582 H         1 UNK         0.0600 
    172 H172       -0.8096  -12.1304  -43.7839 H         1 UNK         0.0600 
    173 H173       -1.3276  -13.0679  -45.1854 H         1 UNK         0.0600 
    174 H174        1.0613  -13.5546  -44.6060 H         1 UNK         0.3000 
    175 H175        3.5415  -14.4452  -44.0817 H         1 UNK         0.0600 
    176 H176        3.3584  -17.3086  -45.1406 H         1 UNK         0.0600 
    177 H177        4.8168  -16.3370  -44.9939 H         1 UNK         0.0600 
    178 H178        3.9611  -16.8498  -43.5510 H         1 UNK         0.0600 
    179 H179        3.0280  -15.5073  -46.7173 H         1 UNK         0.3000 
    180 H180        1.7759  -13.6091  -48.3956 H         1 UNK         0.0600 
    181 H181        3.8572  -11.4095  -47.8716 H         1 UNK         0.0600 
    182 H182        2.1125  -11.1798  -47.9383 H         1 UNK         0.0600 
    183 H183        2.9869  -11.6451  -49.3865 H         1 UNK         0.0600 
    184 H184        4.5081  -14.3776  -47.8302 H         1 UNK         0.3000 
    185 H185        5.3987  -15.3529  -50.9983 H         1 UNK         0.0600 
    186 H186        6.5747  -14.5329  -48.9345 H         1 UNK         0.0600 
    187 H187        5.8634  -15.8507  -48.0017 H         1 UNK         0.0600 
    188 H188        6.9774  -16.1966  -49.3146 H         1 UNK         0.0600 
    189 H189        4.7069  -17.4633  -50.9547 H         1 UNK         0.3000 
    190 H190       -1.9483  -20.7565  -45.4822 H         1 UNK         0.3000 
    191 H191       -2.9809  -21.1475  -48.0967 H         1 UNK         0.0600 
    192 H192       -4.8516  -22.3165  -46.8802 H         1 UNK         0.0600 
    193 H193       -3.9111  -22.2534  -45.3962 H         1 UNK         0.0600 
    194 H194       -4.4507  -20.7622  -46.1657 H         1 UNK         0.0600 
    195 H195       -1.5149  -23.4788  -45.7790 H         1 UNK         0.3000 
    196 H196       -1.8699  -25.8035  -47.3859 H         1 UNK         0.0600 
    197 H197       -0.1596  -26.7969  -45.8634 H         1 UNK         0.0600 
    198 H198       -1.3946  -25.9287  -44.9653 H         1 UNK         0.0600 
    199 H199        0.1947  -25.2062  -45.2026 H         1 UNK         0.0600 
    200 H200        0.8671  -23.4870  -47.1237 H         1 UNK         0.3000 
    201 H201        2.5750  -24.7403  -49.0186 H         1 UNK         0.0600 
    202 H202        3.3957  -23.0813  -47.3953 H         1 UNK         0.0600 
    203 H203        2.3882  -21.8250  -48.1043 H         1 UNK         0.0600 
    204 H204        3.7277  -22.5042  -49.0220 H         1 UNK         0.0600 
    205 H205       -0.0427  -22.3474  -49.4373 H         1 UNK         0.3000 
    206 H206        0.3450  -21.8949  -52.2378 H         1 UNK         0.0600 
    207 H207       -0.9225  -20.3480  -50.7299 H         1 UNK         0.0600 
    208 H208       -1.8961  -20.8633  -52.0928 H         1 UNK         0.0600 
    209 H209       -2.1700  -21.5708  -50.5093 H         1 UNK         0.0600 
    210 H210       -1.0509  -24.5114  -50.4876 H         1 UNK         0.3000 
    211 H211       -1.8599  -26.4799  -50.9225 H         1 UNK         0.0600 
    212 H212       -1.1992  -26.0304  -53.8791 H         1 UNK         0.0600 
    213 H213       -1.5552  -27.5722  -53.1161 H         1 UNK         0.0600 
    214 H214       -0.1049  -26.6892  -52.6635 H         1 UNK         0.0600 
    215 H215       -3.0993  -24.1669  -53.3204 H         1 UNK         0.3000 
    216 H216       -5.7673  -25.3931  -53.4401 H         1 UNK         0.0600 
    217 H217       -6.2181  -23.5734  -55.0365 H         1 UNK         0.0600 
    218 H218       -4.6765  -24.3089  -55.4330 H         1 UNK         0.0600 
    219 H219       -4.7228  -22.7559  -54.6001 H         1 UNK         0.0600 
    220 H220       -4.2252  -23.4695  -51.1800 H         1 UNK         0.3000 
    221 H221       -4.7549  -22.1488  -49.4968 H         1 UNK         0.0600 
    222 H222       -7.5866  -23.3134  -49.7212 H         1 UNK         0.0600 
    223 H223       -6.2428  -24.0387  -48.8480 H         1 UNK         0.0600 
    224 H224       -6.9024  -22.5083  -48.3100 H         1 UNK         0.0600 
    225 H225       -7.8090  -21.0938  -49.5146 H         1 UNK         0.3000 
    226 H226       -7.1865  -18.4467  -50.1061 H         1 UNK         0.0600 
    227 H227       -9.9215  -19.8247  -50.0173 H         1 UNK         0.0600 
    228 H228       -9.6547  -18.0884  -49.9124 H         1 UNK         0.0600 
    229 H229       -9.0545  -19.1400  -48.6412 H         1 UNK         0.0600 
    230 H230       -8.2022  -20.9299  -52.3813 H         1 UNK         0.3000 
    231 H231       -9.1689  -19.2343  -54.4697 H         1 UNK         0.0600 
    232 H232       -9.6543  -21.6678  -54.3573 H         1 UNK         0.0600 
    233 H233       -7.9477  -22.0384  -54.5934 H         1 UNK         0.0600 
    234 H234       -8.8688  -21.2675  -55.8770 H         1 UNK         0.0600 
    235 H235       -5.9172  -19.8236  -53.3366 H         1 UNK         0.3000 
    236 H236       -4.6131  -19.0169  -55.8431 H         1 UNK         0.0600 
    237 H237       -3.5830  -20.7347  -54.3531 H         1 UNK         0.0600 
    238 H238       -2.5444  -19.3304  -54.5171 H         1 UNK         0.0600 
    239 H239       -3.4880  -19.5511  -53.0526 H         1 UNK         0.0600 
    240 H240       -6.1703  -17.2843  -53.3121 H         1 UNK         0.3000 
    241 H241       -4.6974  -14.8292  -54.0167 H         1 UNK         0.0600 
    242 H242       -8.6165  -14.6149  -53.2440 H         1 UNK         0.3800 
    243 H243       -7.8517  -16.1746  -53.0922 H         1 UNK         0.3800 
    244 H244       -4.3664  -14.1650  -51.6632 H         1 UNK         0.0800 
    245 H245       -3.4477  -15.5652  -52.1017 H         1 UNK         0.0800 
    246 H246       -4.0998  -18.0703  -51.3802 H         1 UNK         0.0800 
    247 H247       -4.5994  -18.3020  -49.7249 H         1 UNK         0.0800 
@<TRIPOS>BOND
     1    1    2 1    
     2    1  127 1    
     3    1  128 1    
     4    1  129 1    
     5    2    3 2    
     6    2    4 am   BACKBONE|DICT|INTERRES
     7    4    5 1    
     8    4  130 1    
     9    5    6 1    
    10    5   65 1    
    11    5  131 1    
    12    6    7 1    
    13    6  132 1    
    14    6  133 1    
    15    7    8 1    
    16    8    9 1    
    17    8  134 1    
    18    8  135 1    
    19    9   10 ar   
    20    9   14 ar   
    21   10   11 ar   
    22   10  136 1    
    23   11   12 ar   
    24   11  126 1    
    25   12   13 ar   
    26   12  137 1    
    27   13   14 ar   
    28   13   15 1    
    29   14  138 1    
    30   15   16 1    
    31   15  139 1    
    32   15  140 1    
    33   16   17 1    
    34   17   18 1    
    35   17  141 1    
    36   17  142 1    
    37   18   19 1    
    38   18   67 1    
    39   18  143 1    
    40   19   20 am   BACKBONE|DICT|INTERRES
    41   19  144 1    
    42   20   21 2    
    43   20   22 1    
    44   22   23 1    
    45   22   24 1    
    46   22  145 1    
    47   23  146 1    
    48   23  147 1    
    49   23  148 1    
    50   24   25 am   BACKBONE|DICT|INTERRES
    51   24  149 1    
    52   25   26 2    
    53   25   27 1    
    54   27   28 1    
    55   27   29 1    
    56   27  150 1    
    57   28  151 1    
    58   28  152 1    
    59   28  153 1    
    60   29   30 am   BACKBONE|DICT|INTERRES
    61   29  154 1    
    62   30   31 2    
    63   30   32 1    
    64   32   33 1    
    65   32   34 1    
    66   32  155 1    
    67   33  156 1    
    68   33  157 1    
    69   33  158 1    
    70   34   35 am   BACKBONE|DICT|INTERRES
    71   34  159 1    
    72   35   36 2    
    73   35   37 1    
    74   37   38 1    
    75   37   39 1    
    76   37  160 1    
    77   38  161 1    
    78   38  162 1    
    79   38  163 1    
    80   39   40 am   BACKBONE|DICT|INTERRES
    81   39  164 1    
    82   40   41 2    
    83   40   42 1    
    84   42   43 1    
    85   42   44 1    
    86   42  165 1    
    87   43  166 1    
    88   43  167 1    
    89   43  168 1    
    90   44   45 am   BACKBONE|DICT|INTERRES
    91   44  169 1    
    92   45   46 2    
    93   45   47 1    
    94   47   48 1    
    95   47   49 1    
    96   47  170 1    
    97   48  171 1    
    98   48  172 1    
    99   48  173 1    
   100   49   50 am   BACKBONE|DICT|INTERRES
   101   49  174 1    
   102   50   51 2    
   103   50   52 1    
   104   52   53 1    
   105   52   54 1    
   106   52  175 1    
   107   53  176 1    
   108   53  177 1    
   109   53  178 1    
   110   54   55 am   BACKBONE|DICT|INTERRES
   111   54  179 1    
   112   55   56 2    
   113   55   57 1    
   114   57   58 1    
   115   57   59 1    
   116   57  180 1    
   117   58  181 1    
   118   58  182 1    
   119   58  183 1    
   120   59   60 am   BACKBONE|DICT|INTERRES
   121   59  184 1    
   122   60   61 2    
   123   60   62 1    
   124   62   63 1    
   125   62   64 1    
   126   62  185 1    
   127   63  186 1    
   128   63  187 1    
   129   63  188 1    
   130   64   65 am   BACKBONE|DICT|INTERRES
   131   64  189 1    
   132   65   66 2    
   133   67   68 2    
   134   67   69 am   BACKBONE|DICT|INTERRES
   135   69   70 1    
   136   69  190 1    
   137   70   71 1    
   138   70   72 1    
   139   70  191 1    
   140   71  192 1    
   141   71  193 1    
   142   71  194 1    
   143   72   73 2    
   144   72   74 am   BACKBONE|DICT|INTERRES
   145   74   75 1    
   146   74  195 1    
   147   75   76 1    
   148   75   77 1    
   149   75  196 1    
   150   76  197 1    
   151   76  198 1    
   152   76  199 1    
   153   77   78 2    
   154   77   79 am   BACKBONE|DICT|INTERRES
   155   79   80 1    
   156   79  200 1    
   157   80   81 1    
   158   80   82 1    
   159   80  201 1    
   160   81  202 1    
   161   81  203 1    
   162   81  204 1    
   163   82   83 2    
   164   82   84 am   BACKBONE|DICT|INTERRES
   165   84   85 1    
   166   84  205 1    
   167   85   86 1    
   168   85   87 1    
   169   85  206 1    
   170   86  207 1    
   171   86  208 1    
   172   86  209 1    
   173   87   88 2    
   174   87   89 am   BACKBONE|DICT|INTERRES
   175   89   90 1    
   176   89  210 1    
   177   90   91 1    
   178   90   92 1    
   179   90  211 1    
   180   91  212 1    
   181   91  213 1    
   182   91  214 1    
   183   92   93 2    
   184   92   94 am   BACKBONE|DICT|INTERRES
   185   94   95 1    
   186   94  215 1    
   187   95   96 1    
   188   95   97 1    
   189   95  216 1    
   190   96  217 1    
   191   96  218 1    
   192   96  219 1    
   193   97   98 2    
   194   97   99 am   BACKBONE|DICT|INTERRES
   195   99  100 1    
   196   99  220 1    
   197  100  101 1    
   198  100  102 1    
   199  100  221 1    
   200  101  222 1    
   201  101  223 1    
   202  101  224 1    
   203  102  103 2    
   204  102  104 am   BACKBONE|DICT|INTERRES
   205  104  105 1    
   206  104  225 1    
   207  105  106 1    
   208  105  107 1    
   209  105  226 1    
   210  106  227 1    
   211  106  228 1    
   212  106  229 1    
   213  107  108 2    
   214  107  109 am   BACKBONE|DICT|INTERRES
   215  109  110 1    
   216  109  230 1    
   217  110  111 1    
   218  110  112 1    
   219  110  231 1    
   220  111  232 1    
   221  111  233 1    
   222  111  234 1    
   223  112  113 2    
   224  112  114 am   BACKBONE|DICT|INTERRES
   225  114  115 1    
   226  114  235 1    
   227  115  116 1    
   228  115  117 1    
   229  115  236 1    
   230  116  237 1    
   231  116  238 1    
   232  116  239 1    
   233  117  118 2    
   234  117  119 am   BACKBONE|DICT|INTERRES
   235  119  120 1    
   236  119  240 1    
   237  120  121 1    
   238  120  124 1    
   239  120  241 1    
   240  121  122 am   BACKBONE|DICT|INTERRES
   241  121  123 2    
   242  122  242 1    
   243  122  243 1    
   244  124  125 1    
   245  124  244 1    
   246  124  245 1    
   247  125  126 1    
   248  126  246 1    
   249  126  247 1    
@<TRIPOS>SUBSTRUCTURE
     1 UNK         1 GROUP             0       ****    0 ROOT    
