@<TRIPOS>MOLECULE
3R540
247   249    1
SMALL
USER_CHARGES


@<TRIPOS>ATOM
      1 CA          0.8793  -10.1711  -51.7998 C.3       0 UNK        -0.1800 
      2 C           0.8115  -11.0452  -50.5564 C.2       0 UNK         0.5000 
      3 O           0.8189  -10.5255  -49.4408 O.2       0 UNK        -0.5000 
      4 N           0.7270  -12.3699  -50.7422 N.am      1 UNK        -0.5000 
      5 CA          0.7060  -13.3912  -49.6807 C.3       1 UNK         0.1400 
      6 C6          0.7584  -14.8299  -50.2556 C.3       23 UNK        -0.0398 
      7 S7          2.2127  -15.0739  -51.3315 S.3       23 UNK        -0.2404 
      8 C8          3.2550  -16.2152  -50.3645 C.3       23 UNK        -0.0205 
      9 C9          3.1518  -17.6509  -50.8626 C.ar      23 UNK        -0.0193 
     10 C10         3.4879  -17.9539  -52.1854 C.ar      23 UNK        -0.1150 
     11 C11         3.4306  -19.2675  -52.6567 C.ar      23 UNK        -0.0193 
     12 C12         3.0505  -20.2922  -51.7874 C.ar      23 UNK        -0.1150 
     13 C13         2.7303  -20.0071  -50.4564 C.ar      23 UNK        -0.0193 
     14 C14         2.7712  -18.6842  -50.0010 C.ar      23 UNK        -0.1150 
     15 C15         2.3346  -21.1284  -49.5121 C.3       23 UNK        -0.0205 
     16 S16         3.7313  -21.6205  -48.4476 S.3       23 UNK        -0.2404 
     17 C17         2.9849  -21.4708  -46.7845 C.3       23 UNK        -0.0398 
     18 CA          2.4371  -22.7739  -46.1371 C.3       11 UNK         0.1400 
     19 N           1.5988  -22.4500  -44.9814 N.am      11 UNK        -0.5000 
     20 C           1.1495  -23.3179  -44.0667 C.2       10 UNK         0.5000 
     21 O           1.4494  -24.5111  -44.0500 O.2       10 UNK        -0.5000 
     22 CA          0.1766  -22.7585  -43.0109 C.3       10 UNK         0.1400 
     23 CB          0.9406  -22.0960  -41.8546 C.3       10 UNK        -0.1800 
     24 N          -0.7743  -21.8021  -43.5822 N.am      10 UNK        -0.5000 
     25 C          -1.7530  -22.1345  -44.4359 C.2       9 UNK         0.5000 
     26 O          -1.9996  -23.2892  -44.7786 O.2       9 UNK        -0.5000 
     27 CA         -2.5893  -20.9873  -45.0258 C.3       9 UNK         0.1400 
     28 CB         -3.7149  -20.5968  -44.0564 C.3       9 UNK        -0.1800 
     29 N          -1.7931  -19.8051  -45.3647 N.am      9 UNK        -0.5000 
     30 C          -0.8260  -19.7682  -46.2937 C.2       8 UNK         0.5000 
     31 O          -0.5355  -20.7224  -47.0113 O.2       8 UNK        -0.5000 
     32 CA         -0.0001  -18.4721  -46.3992 C.3       8 UNK         0.1400 
     33 CB         -0.7317  -17.4139  -47.2327 C.3       8 UNK        -0.1800 
     34 N           0.3358  -17.9229  -45.0867 N.am      8 UNK        -0.5000 
     35 C           1.0834  -18.5519  -44.1685 C.2       7 UNK         0.5000 
     36 O           1.6333  -19.6357  -44.3602 O.2       7 UNK        -0.5000 
     37 CA          1.1743  -17.8907  -42.7844 C.3       7 UNK         0.1400 
     38 CB          2.2880  -16.8336  -42.7494 C.3       7 UNK        -0.1800 
     39 N          -0.1041  -17.2876  -42.4052 N.am      7 UNK        -0.5000 
     40 C          -1.1803  -17.9927  -42.0285 C.2       6 UNK         0.5000 
     41 O          -1.1767  -19.2168  -41.8970 O.2       6 UNK        -0.5000 
     42 CA         -2.4850  -17.2060  -41.7973 C.3       6 UNK         0.1400 
     43 CB         -2.5335  -16.6496  -40.3668 C.3       6 UNK        -0.1800 
     44 N          -2.6629  -16.1081  -42.7502 N.am      6 UNK        -0.5000 
     45 C          -2.9238  -16.2730  -44.0544 C.2       5 UNK         0.5000 
     46 O          -3.0958  -17.3707  -44.5819 O.2       5 UNK        -0.5000 
     47 CA         -2.9665  -15.0075  -44.9329 C.3       5 UNK         0.1400 
     48 CB         -4.4046  -14.4773  -45.0291 C.3       5 UNK        -0.1800 
     49 N          -2.0720  -13.9253  -44.5079 N.am      5 UNK        -0.5000 
     50 C          -0.7459  -14.0359  -44.3338 C.2       4 UNK         0.5000 
     51 O          -0.1369  -15.1034  -44.4142 O.2       4 UNK        -0.5000 
     52 CA          0.0114  -12.7285  -44.0529 C.3       4 UNK         0.1400 
     53 CB          1.5376  -12.9152  -43.9788 C.3       4 UNK        -0.1800 
     54 N          -0.3097  -11.7827  -45.1146 N.am      4 UNK        -0.5000 
     55 C          -0.6363  -10.4947  -44.9486 C.2       3 UNK         0.5000 
     56 O          -0.6322   -9.9254  -43.8565 O.2       3 UNK        -0.5000 
     57 CA         -1.0582   -9.7072  -46.2086 C.3       3 UNK         0.1400 
     58 CB          0.0913   -8.8091  -46.6892 C.3       3 UNK        -0.1800 
     59 N          -1.4881  -10.5717  -47.3119 N.am      3 UNK        -0.5000 
     60 C          -2.6020  -11.3207  -47.2956 C.2       2 UNK         0.5000 
     61 O          -3.4416  -11.2592  -46.3975 O.2       2 UNK        -0.5000 
     62 CA         -2.8009  -12.3445  -48.4325 C.3       2 UNK         0.1400 
     63 CB         -3.9004  -11.8863  -49.4018 C.3       2 UNK        -0.1800 
     64 N          -1.5893  -12.6443  -49.1966 N.am      2 UNK        -0.5000 
     65 C          -0.4848  -13.2319  -48.7110 C.2       1 UNK         0.5000 
     66 O          -0.3628  -13.5824  -47.5379 O.2       1 UNK        -0.5000 
     67 C           1.6875  -23.7008  -47.1224 C.2       11 UNK         0.5000 
     68 O           2.2067  -24.7558  -47.4891 O.2       11 UNK        -0.5000 
     69 N           0.4697  -23.3028  -47.5118 N.am      12 UNK        -0.5000 
     70 CA         -0.3677  -23.9897  -48.4956 C.3       12 UNK         0.1400 
     71 CB         -1.2553  -22.9482  -49.2009 C.3       12 UNK        -0.1800 
     72 C          -1.2240  -25.1238  -47.8993 C.2       12 UNK         0.5000 
     73 O          -2.1478  -25.5798  -48.5730 O.2       12 UNK        -0.5000 
     74 N          -0.9349  -25.5613  -46.6652 N.am      13 UNK        -0.5000 
     75 CA         -1.7321  -26.4980  -45.8609 C.3       13 UNK         0.1400 
     76 CB         -1.0497  -26.6976  -44.4995 C.3       13 UNK        -0.1800 
     77 C          -2.0303  -27.8649  -46.5102 C.2       13 UNK         0.5000 
     78 O          -3.0172  -28.5007  -46.1390 O.2       13 UNK        -0.5000 
     79 N          -1.2004  -28.2842  -47.4756 N.am      14 UNK        -0.5000 
     80 CA         -1.4111  -29.4812  -48.2932 C.3       14 UNK         0.1400 
     81 CB         -0.1413  -29.7585  -49.1122 C.3       14 UNK        -0.1800 
     82 C          -2.6400  -29.3739  -49.2210 C.2       14 UNK         0.5000 
     83 O          -3.2870  -30.3881  -49.4853 O.2       14 UNK        -0.5000 
     84 N          -2.9409  -28.1536  -49.6845 N.am      15 UNK        -0.5000 
     85 CA         -4.1188  -27.8245  -50.4890 C.3       15 UNK         0.1400 
     86 CB         -3.6858  -26.9042  -51.6421 C.3       15 UNK        -0.1800 
     87 C          -5.2058  -27.1321  -49.6465 C.2       15 UNK         0.5000 
     88 O          -6.3870  -27.2485  -49.9736 O.2       15 UNK        -0.5000 
     89 N          -4.7797  -26.4112  -48.5975 N.am      16 UNK        -0.5000 
     90 CA         -5.5644  -25.5460  -47.7117 C.3       16 UNK         0.1400 
     91 CB         -6.6010  -26.3585  -46.9087 C.3       16 UNK        -0.1800 
     92 C          -6.1694  -24.3400  -48.4616 C.2       16 UNK         0.5000 
     93 O          -7.2873  -23.9190  -48.1597 O.2       16 UNK        -0.5000 
     94 N          -5.4166  -23.8194  -49.4432 N.am      17 UNK        -0.5000 
     95 CA         -5.8255  -22.7243  -50.3241 C.3       17 UNK         0.1400 
     96 CB         -4.8292  -22.6112  -51.4902 C.3       17 UNK        -0.1800 
     97 C          -5.9625  -21.3801  -49.5872 C.2       17 UNK         0.5000 
     98 O          -6.9802  -20.7049  -49.7484 O.2       17 UNK        -0.5000 
     99 N          -4.9380  -21.0441  -48.7858 N.am      18 UNK        -0.5000 
    100 CA        -4.7806  -19.8101  -48.0037 C.3       18 UNK         0.1400 
    101 CB        -5.8629  -19.7330  -46.9052 C.3       18 UNK        -0.1800 
    102 C         -4.7279  -18.5251  -48.8594 C.2       18 UNK         0.5000 
    103 O         -4.7407  -18.5922  -50.0910 O.2       18 UNK        -0.5000 
    104 N         -4.6382  -17.3720  -48.1786 N.am      19 UNK        -0.5000 
    105 CA        -4.6155  -16.0148  -48.7348 C.3       19 UNK         0.1400 
    106 CB        -6.0235  -15.6161  -49.2273 C.3       19 UNK        -0.1800 
    107 C         -3.5094  -15.8356  -49.7943 C.2       19 UNK         0.5000 
    108 O         -2.3383  -15.7822  -49.4290 O.2       19 UNK        -0.5000 
    109 N         -3.8883  -15.7712  -51.0774 N.am      20 UNK        -0.5000 
    110 CA        -2.9780  -15.6801  -52.2209 C.3       20 UNK         0.1400 
    111 CB        -3.7972  -15.3471  -53.4771 C.3       20 UNK        -0.1800 
    112 C         -2.1219  -16.9439  -52.4555 C.2       20 UNK         0.5000 
    113 O         -1.1267  -16.8557  -53.1762 O.2       20 UNK        -0.5000 
    114 N         -2.5183  -18.0814  -51.8616 N.am      21 UNK        -0.5000 
    115 CA        -1.8624  -19.3900  -51.8997 C.3       21 UNK         0.1400 
    116 CB        -0.5783  -19.3764  -51.0479 C.3       21 UNK        -0.1800 
    117 C         -1.6493  -19.8939  -53.3396 C.2       21 UNK         0.5000 
    118 O         -2.6124  -20.3495  -53.9581 O.2       21 UNK        -0.5000 
    119 N         -0.4137  -19.7991  -53.8496 N.am      22 UNK        -0.5000 
    120 CA        -0.0684  -20.1295  -55.2396 C.3       22 UNK         0.1400 
    121 C         -0.5842  -19.1108  -56.3023 C.2       22 UNK         0.5000 
    122 N         -1.0227  -17.9149  -55.9241 N.am      22 UNK        -0.7600 
    123 O         -0.5983  -19.4194  -57.4911 O.2       22 UNK        -0.5000 
    124 C124        1.4416  -20.4488  -55.4012 C.3       23 UNK        -0.0398 
    125 S125        2.5538  -19.0014  -55.2736 S.3       23 UNK        -0.2404 
    126 C126        3.8189  -19.5692  -54.0950 C.3       23 UNK        -0.0205 
    127 H127        0.8538  -10.7640  -52.7145 H         1 UNK         0.0600 
    128 H128        0.0369   -9.4796  -51.8182 H         1 UNK         0.0600 
    129 H129        1.8003   -9.5882  -51.7975 H         1 UNK         0.0600 
    130 H130        0.7443  -12.7340  -51.6845 H         1 UNK         0.3000 
    131 H131        1.6080  -13.2411  -49.0835 H         1 UNK         0.0600 
    132 H132       -0.1328  -15.0367  -50.8490 H         1 UNK         0.0800 
    133 H133        0.7617  -15.5715  -49.4549 H         1 UNK         0.0800 
    134 H134        3.0152  -16.1443  -49.3026 H         1 UNK         0.0800 
    135 H135        4.2935  -15.8952  -50.4597 H         1 UNK         0.0800 
    136 H136        3.7945  -17.1613  -52.8538 H         1 UNK         0.1150 
    137 H137        3.0174  -21.3129  -52.1418 H         1 UNK         0.1150 
    138 H138        2.5237  -18.4657  -48.9720 H         1 UNK         0.1150 
    139 H139        1.4739  -20.8096  -48.9238 H         1 UNK         0.0800 
    140 H140        2.0002  -22.0017  -50.0743 H         1 UNK         0.0800 
    141 H141        2.2012  -20.7162  -46.8280 H         1 UNK         0.0800 
    142 H142        3.7413  -21.0435  -46.1249 H         1 UNK         0.0800 
    143 H143        3.2956  -23.3394  -45.7686 H         1 UNK         0.0600 
    144 H144        1.3563  -21.4701  -44.8658 H         1 UNK         0.3000 
    145 H145       -0.3912  -23.5975  -42.6031 H         1 UNK         0.0600 
    146 H146        0.2567  -21.7357  -41.0858 H         1 UNK         0.0600 
    147 H147        1.6201  -22.8052  -41.3804 H         1 UNK         0.0600 
    148 H148        1.5364  -21.2490  -42.1945 H         1 UNK         0.0600 
    149 H149       -0.6750  -20.8329  -43.3056 H         1 UNK         0.3000 
    150 H150       -3.0439  -21.3612  -45.9443 H         1 UNK         0.0600 
    151 H151       -4.3761  -21.4433  -43.8669 H         1 UNK         0.0600 
    152 H152       -4.3262  -19.7900  -44.4562 H         1 UNK         0.0600 
    153 H153       -3.3237  -20.2664  -43.0946 H         1 UNK         0.0600 
    154 H154       -2.0207  -18.9504  -44.8654 H         1 UNK         0.3000 
    155 H155        0.9374  -18.7064  -46.9058 H         1 UNK         0.0600 
    156 H156       -1.7436  -17.2376  -46.8725 H         1 UNK         0.0600 
    157 H157       -0.8126  -17.7281  -48.2722 H         1 UNK         0.0600 
    158 H158       -0.2031  -16.4603  -47.2247 H         1 UNK         0.0600 
    159 H159       -0.0287  -17.0018  -44.8611 H         1 UNK         0.3000 
    160 H160        1.4222  -18.6651  -42.0554 H         1 UNK         0.0600 
    161 H161        2.3460  -16.3520  -41.7732 H         1 UNK         0.0600 
    162 H162        2.1377  -16.0573  -43.4994 H         1 UNK         0.0600 
    163 H163        3.2589  -17.2899  -42.9456 H         1 UNK         0.0600 
    164 H164       -0.2046  -16.2978  -42.5860 H         1 UNK         0.3000 
    165 H165       -3.3176  -17.9022  -41.9197 H         1 UNK         0.0600 
    166 H166       -3.4852  -16.1568  -40.1676 H         1 UNK         0.0600 
    167 H167       -2.4233  -17.4497  -39.6334 H         1 UNK         0.0600 
    168 H168       -1.7363  -15.9272  -40.1869 H         1 UNK         0.0600 
    169 H169       -2.5398  -15.1700  -42.3989 H         1 UNK         0.3000 
    170 H170       -2.6493  -15.2995  -45.9353 H         1 UNK         0.0600 
    171 H171       -5.0940  -15.2635  -45.3406 H         1 UNK         0.0600 
    172 H172       -4.7560  -14.0944  -44.0703 H         1 UNK         0.0600 
    173 H173       -4.4840  -13.6737  -45.7602 H         1 UNK         0.0600 
    174 H174       -2.4855  -13.0058  -44.4415 H         1 UNK         0.3000 
    175 H175       -0.3416  -12.3577  -43.0887 H         1 UNK         0.0600 
    176 H176        1.9369  -13.3253  -44.9075 H         1 UNK         0.0600 
    177 H177        2.0411  -11.9676  -43.7874 H         1 UNK         0.0600 
    178 H178        1.8093  -13.5959  -43.1715 H         1 UNK         0.0600 
    179 H179       -0.3636  -12.1904  -46.0436 H         1 UNK         0.3000 
    180 H180       -1.8984   -9.0672  -45.9316 H         1 UNK         0.0600 
    181 H181        0.9747   -9.3934  -46.9496 H         1 UNK         0.0600 
    182 H182        0.3844   -8.1010  -45.9130 H         1 UNK         0.0600 
    183 H183       -0.1984   -8.2296  -47.5659 H         1 UNK         0.0600 
    184 H184       -0.8361  -10.6741  -48.0820 H         1 UNK         0.3000 
    185 H185       -3.1257  -13.2732  -47.9614 H         1 UNK         0.0600 
    186 H186       -4.8359  -11.6997  -48.8727 H         1 UNK         0.0600 
    187 H187       -3.6235  -10.9647  -49.9152 H         1 UNK         0.0600 
    188 H188       -4.1029  -12.6450  -50.1581 H         1 UNK         0.0600 
    189 H189       -1.5837  -12.3577  -50.1641 H         1 UNK         0.3000 
    190 H190        0.1058  -22.4160  -47.1672 H         1 UNK         0.3000 
    191 H191        0.2765  -24.4425  -49.2518 H         1 UNK         0.0600 
    192 H192       -1.9821  -22.5125  -48.5147 H         1 UNK         0.0600 
    193 H193       -1.8063  -23.3949  -50.0291 H         1 UNK         0.0600 
    194 H194       -0.6587  -22.1359  -49.6139 H         1 UNK         0.0600 
    195 H195       -0.1620  -25.1204  -46.1873 H         1 UNK         0.3000 
    196 H196       -2.6974  -26.0194  -45.6848 H         1 UNK         0.0600 
    197 H197       -1.5998  -27.4078  -43.8807 H         1 UNK         0.0600 
    198 H198       -1.0025  -25.7614  -43.9443 H         1 UNK         0.0600 
    199 H199       -0.0326  -27.0750  -44.6114 H         1 UNK         0.0600 
    200 H200       -0.4086  -27.7033  -47.7091 H         1 UNK         0.3000 
    201 H201       -1.5762  -30.3259  -47.6210 H         1 UNK         0.0600 
    202 H202        0.7214  -29.9113  -48.4634 H         1 UNK         0.0600 
    203 H203        0.0887  -28.9353  -49.7900 H         1 UNK         0.0600 
    204 H204       -0.2556  -30.6594  -49.7166 H         1 UNK         0.0600 
    205 H205       -2.3723  -27.3689  -49.3855 H         1 UNK         0.3000 
    206 H206       -4.5545  -28.7287  -50.9190 H         1 UNK         0.0600 
    207 H207       -2.9560  -27.3972  -52.2845 H         1 UNK         0.0600 
    208 H208       -4.5374  -26.6317  -52.2669 H         1 UNK         0.0600 
    209 H209       -3.2376  -25.9796  -51.2754 H         1 UNK         0.0600 
    210 H210       -3.7734  -26.3248  -48.4805 H         1 UNK         0.3000 
    211 H211       -4.8549  -25.1273  -46.9965 H         1 UNK         0.0600 
    212 H212       -7.3926  -26.7528  -47.5463 H         1 UNK         0.0600 
    213 H213       -7.0749  -25.7400  -46.1457 H         1 UNK         0.0600 
    214 H214       -6.1302  -27.1989  -46.3982 H         1 UNK         0.0600 
    215 H215       -4.5167  -24.2392  -49.6240 H         1 UNK         0.3000 
    216 H216       -6.8034  -22.9767  -50.7399 H         1 UNK         0.0600 
    217 H217       -5.1140  -21.8071  -52.1703 H         1 UNK         0.0600 
    218 H218       -4.7975  -23.5323  -52.0726 H         1 UNK         0.0600 
    219 H219       -3.8176  -22.3998  -51.1429 H         1 UNK         0.0600 
    220 H220       -4.1575  -21.6815  -48.7493 H         1 UNK         0.3000 
    221 H221       -3.8069  -19.8809  -47.5209 H         1 UNK         0.0600 
    222 H222       -6.8549  -19.5645  -47.3249 H         1 UNK         0.0600 
    223 H223       -5.9003  -20.6554  -46.3256 H         1 UNK         0.0600 
    224 H224       -5.6679  -18.9214  -46.2040 H         1 UNK         0.0600 
    225 H225       -4.5829  -17.4237  -47.1714 H         1 UNK         0.3000 
    226 H226       -4.3570  -15.3480  -47.9123 H         1 UNK         0.0600 
    227 H227       -6.7401  -15.6386  -48.4062 H         1 UNK         0.0600 
    228 H228       -6.0291  -14.6014  -49.6278 H         1 UNK         0.0600 
    229 H229       -6.3962  -16.2856  -50.0034 H         1 UNK         0.0600 
    230 H230       -4.8705  -15.8649  -51.2907 H         1 UNK         0.3000 
    231 H231       -2.2900  -14.8530  -52.0358 H         1 UNK         0.0600 
    232 H232       -4.3445  -14.4121  -53.3557 H         1 UNK         0.0600 
    233 H233       -3.1501  -15.2321  -54.3477 H         1 UNK         0.0600 
    234 H234       -4.5181  -16.1330  -53.7060 H         1 UNK         0.0600 
    235 H235       -3.3750  -18.0573  -51.3144 H         1 UNK         0.3000 
    236 H236       -2.5532  -20.0934  -51.4320 H         1 UNK         0.0600 
    237 H237       -0.0500  -20.3263  -51.1274 H         1 UNK         0.0600 
    238 H238        0.1096  -18.5844  -51.3462 H         1 UNK         0.0600 
    239 H239       -0.8146  -19.2334  -49.9948 H         1 UNK         0.0600 
    240 H240        0.3116  -19.3581  -53.3019 H         1 UNK         0.3000 
    241 H241       -0.5925  -21.0594  -55.4695 H         1 UNK         0.0600 
    242 H242       -0.9923  -17.6356  -54.9475 H         1 UNK         0.3800 
    243 H243       -1.3548  -17.2666  -56.6195 H         1 UNK         0.3800 
    244 H244        1.7318  -21.2000  -54.6657 H         1 UNK         0.0800 
    245 H245        1.6163  -20.9128  -56.3732 H         1 UNK         0.0800 
    246 H246        4.0183  -20.6324  -54.2374 H         1 UNK         0.0800 
    247 H247        4.7554  -19.0567  -54.3200 H         1 UNK         0.0800 
@<TRIPOS>BOND
     1    1    2 1    
     2    1  127 1    
     3    1  128 1    
     4    1  129 1    
     5    2    3 2    
     6    2    4 am   BACKBONE|DICT|INTERRES
     7    4    5 1    
     8    4  130 1    
     9    5    6 1    
    10    5   65 1    
    11    5  131 1    
    12    6    7 1    
    13    6  132 1    
    14    6  133 1    
    15    7    8 1    
    16    8    9 1    
    17    8  134 1    
    18    8  135 1    
    19    9   10 ar   
    20    9   14 ar   
    21   10   11 ar   
    22   10  136 1    
    23   11   12 ar   
    24   11  126 1    
    25   12   13 ar   
    26   12  137 1    
    27   13   14 ar   
    28   13   15 1    
    29   14  138 1    
    30   15   16 1    
    31   15  139 1    
    32   15  140 1    
    33   16   17 1    
    34   17   18 1    
    35   17  141 1    
    36   17  142 1    
    37   18   19 1    
    38   18   67 1    
    39   18  143 1    
    40   19   20 am   BACKBONE|DICT|INTERRES
    41   19  144 1    
    42   20   21 2    
    43   20   22 1    
    44   22   23 1    
    45   22   24 1    
    46   22  145 1    
    47   23  146 1    
    48   23  147 1    
    49   23  148 1    
    50   24   25 am   BACKBONE|DICT|INTERRES
    51   24  149 1    
    52   25   26 2    
    53   25   27 1    
    54   27   28 1    
    55   27   29 1    
    56   27  150 1    
    57   28  151 1    
    58   28  152 1    
    59   28  153 1    
    60   29   30 am   BACKBONE|DICT|INTERRES
    61   29  154 1    
    62   30   31 2    
    63   30   32 1    
    64   32   33 1    
    65   32   34 1    
    66   32  155 1    
    67   33  156 1    
    68   33  157 1    
    69   33  158 1    
    70   34   35 am   BACKBONE|DICT|INTERRES
    71   34  159 1    
    72   35   36 2    
    73   35   37 1    
    74   37   38 1    
    75   37   39 1    
    76   37  160 1    
    77   38  161 1    
    78   38  162 1    
    79   38  163 1    
    80   39   40 am   BACKBONE|DICT|INTERRES
    81   39  164 1    
    82   40   41 2    
    83   40   42 1    
    84   42   43 1    
    85   42   44 1    
    86   42  165 1    
    87   43  166 1    
    88   43  167 1    
    89   43  168 1    
    90   44   45 am   BACKBONE|DICT|INTERRES
    91   44  169 1    
    92   45   46 2    
    93   45   47 1    
    94   47   48 1    
    95   47   49 1    
    96   47  170 1    
    97   48  171 1    
    98   48  172 1    
    99   48  173 1    
   100   49   50 am   BACKBONE|DICT|INTERRES
   101   49  174 1    
   102   50   51 2    
   103   50   52 1    
   104   52   53 1    
   105   52   54 1    
   106   52  175 1    
   107   53  176 1    
   108   53  177 1    
   109   53  178 1    
   110   54   55 am   BACKBONE|DICT|INTERRES
   111   54  179 1    
   112   55   56 2    
   113   55   57 1    
   114   57   58 1    
   115   57   59 1    
   116   57  180 1    
   117   58  181 1    
   118   58  182 1    
   119   58  183 1    
   120   59   60 am   BACKBONE|DICT|INTERRES
   121   59  184 1    
   122   60   61 2    
   123   60   62 1    
   124   62   63 1    
   125   62   64 1    
   126   62  185 1    
   127   63  186 1    
   128   63  187 1    
   129   63  188 1    
   130   64   65 am   BACKBONE|DICT|INTERRES
   131   64  189 1    
   132   65   66 2    
   133   67   68 2    
   134   67   69 am   BACKBONE|DICT|INTERRES
   135   69   70 1    
   136   69  190 1    
   137   70   71 1    
   138   70   72 1    
   139   70  191 1    
   140   71  192 1    
   141   71  193 1    
   142   71  194 1    
   143   72   73 2    
   144   72   74 am   BACKBONE|DICT|INTERRES
   145   74   75 1    
   146   74  195 1    
   147   75   76 1    
   148   75   77 1    
   149   75  196 1    
   150   76  197 1    
   151   76  198 1    
   152   76  199 1    
   153   77   78 2    
   154   77   79 am   BACKBONE|DICT|INTERRES
   155   79   80 1    
   156   79  200 1    
   157   80   81 1    
   158   80   82 1    
   159   80  201 1    
   160   81  202 1    
   161   81  203 1    
   162   81  204 1    
   163   82   83 2    
   164   82   84 am   BACKBONE|DICT|INTERRES
   165   84   85 1    
   166   84  205 1    
   167   85   86 1    
   168   85   87 1    
   169   85  206 1    
   170   86  207 1    
   171   86  208 1    
   172   86  209 1    
   173   87   88 2    
   174   87   89 am   BACKBONE|DICT|INTERRES
   175   89   90 1    
   176   89  210 1    
   177   90   91 1    
   178   90   92 1    
   179   90  211 1    
   180   91  212 1    
   181   91  213 1    
   182   91  214 1    
   183   92   93 2    
   184   92   94 am   BACKBONE|DICT|INTERRES
   185   94   95 1    
   186   94  215 1    
   187   95   96 1    
   188   95   97 1    
   189   95  216 1    
   190   96  217 1    
   191   96  218 1    
   192   96  219 1    
   193   97   98 2    
   194   97   99 am   BACKBONE|DICT|INTERRES
   195   99  100 1    
   196   99  220 1    
   197  100  101 1    
   198  100  102 1    
   199  100  221 1    
   200  101  222 1    
   201  101  223 1    
   202  101  224 1    
   203  102  103 2    
   204  102  104 am   BACKBONE|DICT|INTERRES
   205  104  105 1    
   206  104  225 1    
   207  105  106 1    
   208  105  107 1    
   209  105  226 1    
   210  106  227 1    
   211  106  228 1    
   212  106  229 1    
   213  107  108 2    
   214  107  109 am   BACKBONE|DICT|INTERRES
   215  109  110 1    
   216  109  230 1    
   217  110  111 1    
   218  110  112 1    
   219  110  231 1    
   220  111  232 1    
   221  111  233 1    
   222  111  234 1    
   223  112  113 2    
   224  112  114 am   BACKBONE|DICT|INTERRES
   225  114  115 1    
   226  114  235 1    
   227  115  116 1    
   228  115  117 1    
   229  115  236 1    
   230  116  237 1    
   231  116  238 1    
   232  116  239 1    
   233  117  118 2    
   234  117  119 am   BACKBONE|DICT|INTERRES
   235  119  120 1    
   236  119  240 1    
   237  120  121 1    
   238  120  124 1    
   239  120  241 1    
   240  121  122 am   BACKBONE|DICT|INTERRES
   241  121  123 2    
   242  122  242 1    
   243  122  243 1    
   244  124  125 1    
   245  124  244 1    
   246  124  245 1    
   247  125  126 1    
   248  126  246 1    
   249  126  247 1    
@<TRIPOS>SUBSTRUCTURE
     1 UNK         1 GROUP             0       ****    0 ROOT    
