@<TRIPOS>MOLECULE
3R540
247   249    1
SMALL
USER_CHARGES


@<TRIPOS>ATOM
      1 CA         -2.6086  -11.9810  -50.1309 C.3       0 UNK        -0.1800 
      2 C          -1.7014  -12.7253  -49.1615 C.2       0 UNK         0.5000 
      3 O          -0.4885  -12.5172  -49.1741 O.2       0 UNK        -0.5000 
      4 N          -2.2845  -13.5903  -48.3217 N.am      1 UNK        -0.5000 
      5 CA         -1.5700  -14.4040  -47.3290 C.3       1 UNK         0.1400 
      6 C6         -2.4476  -15.5541  -46.7791 C.3       23 UNK        -0.0398 
      7 S7         -3.1212  -16.6776  -48.0474 S.3       23 UNK        -0.2404 
      8 C8         -4.5802  -17.2993  -47.1497 C.3       23 UNK        -0.0205 
      9 C9         -5.1756  -18.5483  -47.7852 C.ar      23 UNK        -0.0193 
     10 C10        -5.9105  -18.4592  -48.9724 C.ar      23 UNK        -0.1150 
     11 C11        -6.5000  -19.5993  -49.5290 C.ar      23 UNK        -0.0193 
     12 C12        -6.3314  -20.8357  -48.9018 C.ar      23 UNK        -0.1150 
     13 C13        -5.6005  -20.9403  -47.7157 C.ar      23 UNK        -0.0193 
     14 C14        -5.0329  -19.7908  -47.1575 C.ar      23 UNK        -0.1150 
     15 C15        -5.4699  -22.2891  -47.0232 C.3       23 UNK        -0.0205 
     16 S16        -3.8412  -23.0539  -47.3102 S.3       23 UNK        -0.2404 
     17 C17        -2.9415  -22.6444  -45.7753 C.3       23 UNK        -0.0398 
     18 CA         -2.0037  -21.4222  -45.9261 C.3       11 UNK         0.1400 
     19 N          -1.9621  -20.6174  -44.7027 N.am      11 UNK        -0.5000 
     20 C          -1.6265  -19.3209  -44.6565 C.2       10 UNK         0.5000 
     21 O          -1.2945  -18.6899  -45.6588 O.2       10 UNK        -0.5000 
     22 CA         -1.6026  -18.6208  -43.2813 C.3       10 UNK         0.1400 
     23 CB         -2.3227  -17.2588  -43.2888 C.3       10 UNK        -0.1800 
     24 N          -2.0496  -19.4521  -42.1614 N.am      10 UNK        -0.5000 
     25 C          -3.2792  -19.9103  -41.8930 C.2       9 UNK         0.5000 
     26 O          -4.2796  -19.6370  -42.5575 O.2       9 UNK        -0.5000 
     27 CA         -3.3664  -20.8850  -40.6967 C.3       9 UNK         0.1400 
     28 CB         -4.7190  -21.6234  -40.6154 C.3       9 UNK        -0.1800 
     29 N          -2.2468  -21.8402  -40.6749 N.am      9 UNK        -0.5000 
     30 C          -1.9195  -22.7097  -41.6449 C.2       8 UNK         0.5000 
     31 O          -2.5707  -22.8510  -42.6792 O.2       8 UNK        -0.5000 
     32 CA         -0.6123  -23.5056  -41.4432 C.3       8 UNK         0.1400 
     33 CB         -0.1765  -24.2722  -42.7112 C.3       8 UNK        -0.1800 
     34 N           0.4876  -22.6676  -40.9485 N.am      8 UNK        -0.5000 
     35 C           0.9909  -21.5747  -41.5403 C.2       7 UNK         0.5000 
     36 O           0.5930  -21.1268  -42.6194 O.2       7 UNK        -0.5000 
     37 CA          2.1363  -20.8715  -40.7839 C.3       7 UNK         0.1400 
     38 CB          3.4945  -21.4858  -41.1547 C.3       7 UNK        -0.1800 
     39 N           2.1869  -19.4305  -41.0320 N.am      7 UNK        -0.5000 
     40 C           1.2086  -18.5617  -40.7454 C.2       6 UNK         0.5000 
     41 O           0.1568  -18.8849  -40.1899 O.2       6 UNK        -0.5000 
     42 CA          1.4295  -17.0847  -41.1345 C.3       6 UNK         0.1400 
     43 CB          1.5947  -16.2166  -39.8773 C.3       6 UNK        -0.1800 
     44 N           2.5754  -16.8477  -42.0198 N.am      6 UNK        -0.5000 
     45 C           2.6213  -17.1597  -43.3209 C.2       5 UNK         0.5000 
     46 O           1.7180  -17.7378  -43.9239 O.2       5 UNK        -0.5000 
     47 CA          3.8589  -16.6861  -44.0893 C.3       5 UNK         0.1400 
     48 CB          4.3815  -17.7679  -45.0568 C.3       5 UNK        -0.1800 
     49 N           3.4663  -15.4695  -44.7919 N.am      5 UNK        -0.5000 
     50 C           4.2741  -14.6266  -45.4450 C.2       4 UNK         0.5000 
     51 O           5.4861  -14.7956  -45.5816 O.2       4 UNK        -0.5000 
     52 CA          3.6145  -13.3526  -46.0023 C.3       4 UNK         0.1400 
     53 CB          2.8670  -13.6331  -47.3137 C.3       4 UNK        -0.1800 
     54 N           2.6925  -12.7576  -45.0335 N.am      4 UNK        -0.5000 
     55 C           3.0824  -12.0045  -43.9950 C.2       3 UNK         0.5000 
     56 O           4.2629  -11.7304  -43.7718 O.2       3 UNK        -0.5000 
     57 CA          1.9977  -11.4845  -43.0245 C.3       3 UNK         0.1400 
     58 CB          2.2387  -10.0159  -42.6158 C.3       3 UNK        -0.1800 
     59 N           0.6141  -11.6780  -43.4756 N.am      3 UNK        -0.5000 
     60 C           0.0040  -11.1232  -44.5326 C.2       2 UNK         0.5000 
     61 O           0.5434  -10.3524  -45.3283 O.2       2 UNK        -0.5000 
     62 CA         -1.4672  -11.5306  -44.7365 C.3       2 UNK         0.1400 
     63 CB         -2.3669  -10.2946  -44.8996 C.3       2 UNK        -0.1800 
     64 N          -1.6745  -12.4210  -45.8793 N.am      2 UNK        -0.5000 
     65 C          -1.0355  -13.5722  -46.1399 C.2       1 UNK         0.5000 
     66 O          -0.0965  -14.0082  -45.4702 O.2       1 UNK        -0.5000 
     67 C          -0.5993  -21.8053  -46.4414 C.2       11 UNK         0.5000 
     68 O          -0.4857  -22.2664  -47.5780 O.2       11 UNK        -0.5000 
     69 N           0.4556  -21.5666  -45.6449 N.am      12 UNK        -0.5000 
     70 CA          1.8485  -21.6534  -46.0873 C.3       12 UNK         0.1400 
     71 CB          2.7888  -21.5114  -44.8842 C.3       12 UNK        -0.1800 
     72 C           2.1895  -20.6050  -47.1628 C.2       12 UNK         0.5000 
     73 O           2.9254  -20.9219  -48.0969 O.2       12 UNK        -0.5000 
     74 N           1.6112  -19.3990  -47.0481 N.am      13 UNK        -0.5000 
     75 CA          1.7373  -18.3284  -48.0412 C.3       13 UNK         0.1400 
     76 CB          1.1931  -17.0201  -47.4566 C.3       13 UNK        -0.1800 
     77 C           1.0029  -18.6561  -49.3519 C.2       13 UNK         0.5000 
     78 O           1.4775  -18.2967  -50.4292 O.2       13 UNK        -0.5000 
     79 N          -0.1318  -19.3549  -49.2276 N.am      14 UNK        -0.5000 
     80 CA         -0.9459  -19.8384  -50.3408 C.3       14 UNK         0.1400 
     81 CB         -2.3632  -20.1050  -49.8135 C.3       14 UNK        -0.1800 
     82 C          -0.3699  -21.1063  -51.0035 C.2       14 UNK         0.5000 
     83 O          -0.8510  -21.4951  -52.0696 O.2       14 UNK        -0.5000 
     84 N           0.6151  -21.7356  -50.3436 N.am      15 UNK        -0.5000 
     85 CA          1.2617  -23.0114  -50.6577 C.3       15 UNK         0.1400 
     86 CB          2.1002  -22.9038  -51.9441 C.3       15 UNK        -0.1800 
     87 C           0.2412  -24.1620  -50.7030 C.2       15 UNK         0.5000 
     88 O           0.1230  -24.8482  -51.7185 O.2       15 UNK        -0.5000 
     89 N          -0.5291  -24.3026  -49.6141 N.am      16 UNK        -0.5000 
     90 CA         -1.6512  -25.2379  -49.4607 C.3       16 UNK         0.1400 
     91 CB         -1.1619  -26.7015  -49.4709 C.3       16 UNK        -0.1800 
     92 C          -2.7782  -24.9646  -50.4820 C.2       16 UNK         0.5000 
     93 O          -3.4029  -25.8985  -50.9864 O.2       16 UNK        -0.5000 
     94 N          -2.9806  -23.6715  -50.7777 N.am      17 UNK        -0.5000 
     95 CA         -3.9310  -23.0840  -51.7276 C.3       17 UNK         0.1400 
     96 CB         -5.3706  -23.5320  -51.4117 C.3       17 UNK        -0.1800 
     97 C          -3.5660  -23.2881  -53.2138 C.2       17 UNK         0.5000 
     98 O          -4.3289  -22.8497  -54.0781 O.2       17 UNK        -0.5000 
     99 N          -2.4213  -23.9251  -53.5024 N.am      18 UNK        -0.5000 
    100 CA        -1.9899  -24.2707  -54.8556 C.3       18 UNK         0.1400 
    101 CB        -1.0327  -25.4704  -54.8010 C.3       18 UNK        -0.1800 
    102 C         -1.3361  -23.0959  -55.6009 C.2       18 UNK         0.5000 
    103 O         -1.5989  -22.9279  -56.7919 O.2       18 UNK        -0.5000 
    104 N         -0.5095  -22.2987  -54.9071 N.am      19 UNK        -0.5000 
    105 CA         0.1785  -21.1424  -55.4957 C.3       19 UNK         0.1400 
    106 CB         1.4313  -20.7845  -54.6830 C.3       19 UNK        -0.1800 
    107 C         -0.7522  -19.9275  -55.6117 C.2       19 UNK         0.5000 
    108 O         -0.6543  -19.1727  -56.5797 O.2       19 UNK        -0.5000 
    109 N         -1.6628  -19.7853  -54.6399 N.am      20 UNK        -0.5000 
    110 CA        -2.7451  -18.8008  -54.6654 C.3       20 UNK         0.1400 
    111 CB        -3.2968  -18.6371  -53.2444 C.3       20 UNK        -0.1800 
    112 C         -3.8687  -19.1683  -55.6578 C.2       20 UNK         0.5000 
    113 O         -4.6380  -18.2868  -56.0421 O.2       20 UNK        -0.5000 
    114 N         -3.9282  -20.4496  -56.0572 N.am      21 UNK        -0.5000 
    115 CA        -4.8840  -21.0622  -56.9848 C.3       21 UNK         0.1400 
    116 CB        -4.6646  -20.5345  -58.4177 C.3       21 UNK        -0.1800 
    117 C         -6.3382  -20.9186  -56.4944 C.2       21 UNK         0.5000 
    118 O         -7.2141  -20.4876  -57.2477 O.2       21 UNK        -0.5000 
    119 N         -6.5494  -21.2602  -55.2198 N.am      22 UNK        -0.5000 
    120 CA        -7.8098  -21.0737  -54.4853 C.3       22 UNK         0.1400 
    121 C         -8.3339  -22.3639  -53.7922 C.2       22 UNK         0.5000 
    122 N         -7.7300  -23.5257  -54.0132 N.am      22 UNK        -0.7600 
    123 O         -9.3249  -22.3202  -53.0681 O.2       22 UNK        -0.5000 
    124 C124       -7.7361  -19.8417  -53.5438 C.3       23 UNK        -0.0398 
    125 S125       -6.4271  -19.9487  -52.2720 S.3       23 UNK        -0.2404 
    126 C126       -7.3590  -19.5000  -50.7799 C.3       23 UNK        -0.0205 
    127 H127       -2.3139  -12.1935  -51.1585 H         1 UNK         0.0600 
    128 H128       -3.6535  -12.2681  -50.0108 H         1 UNK         0.0600 
    129 H129       -2.5301  -10.9061  -49.9678 H         1 UNK         0.0600 
    130 H130       -3.2812  -13.7450  -48.3790 H         1 UNK         0.3000 
    131 H131       -0.7050  -14.8449  -47.8266 H         1 UNK         0.0600 
    132 H132       -1.8603  -16.1690  -46.0988 H         1 UNK         0.0800 
    133 H133       -3.2750  -15.1501  -46.1924 H         1 UNK         0.0800 
    134 H134       -5.3381  -16.5159  -47.1077 H         1 UNK         0.0800 
    135 H135       -4.2973  -17.5097  -46.1168 H         1 UNK         0.0800 
    136 H136       -6.0366  -17.4988  -49.4520 H         1 UNK         0.1150 
    137 H137       -6.7911  -21.7145  -49.3308 H         1 UNK         0.1150 
    138 H138       -4.4905  -19.8620  -46.2257 H         1 UNK         0.1150 
    139 H139       -5.6741  -22.1794  -45.9578 H         1 UNK         0.0800 
    140 H140       -6.2329  -22.9731  -47.3979 H         1 UNK         0.0800 
    141 H141       -3.6811  -22.4586  -44.9966 H         1 UNK         0.0800 
    142 H142       -2.3936  -23.5264  -45.4386 H         1 UNK         0.0800 
    143 H143       -2.4214  -20.7782  -46.7014 H         1 UNK         0.0600 
    144 H144       -2.1853  -21.1008  -43.8405 H         1 UNK         0.3000 
    145 H145       -0.5525  -18.4292  -43.0787 H         1 UNK         0.0600 
    146 H146       -2.3894  -16.8399  -42.2847 H         1 UNK         0.0600 
    147 H147       -1.7746  -16.5387  -43.8945 H         1 UNK         0.0600 
    148 H148       -3.3332  -17.3357  -43.6910 H         1 UNK         0.0600 
    149 H149       -1.3010  -19.7438  -41.5433 H         1 UNK         0.3000 
    150 H150       -3.2696  -20.2734  -39.7984 H         1 UNK         0.0600 
    151 H151       -5.5427  -20.9170  -40.5069 H         1 UNK         0.0600 
    152 H152       -4.7514  -22.2928  -39.7559 H         1 UNK         0.0600 
    153 H153       -4.9138  -22.2159  -41.5097 H         1 UNK         0.0600 
    154 H154       -1.6332  -21.7753  -39.8747 H         1 UNK         0.3000 
    155 H155       -0.8198  -24.2425  -40.6661 H         1 UNK         0.0600 
    156 H156        0.7382  -24.8379  -42.5346 H         1 UNK         0.0600 
    157 H157        0.0031  -23.6014  -43.5517 H         1 UNK         0.0600 
    158 H158       -0.9427  -24.9839  -43.0206 H         1 UNK         0.0600 
    159 H159        0.8811  -22.9545  -40.0628 H         1 UNK         0.3000 
    160 H160        1.9737  -21.0136  -39.7136 H         1 UNK         0.0600 
    161 H161        3.7562  -21.2908  -42.1944 H         1 UNK         0.0600 
    162 H162        3.4914  -22.5675  -41.0137 H         1 UNK         0.0600 
    163 H163        4.2914  -21.0815  -40.5303 H         1 UNK         0.0600 
    164 H164        3.0015  -19.0826  -41.5132 H         1 UNK         0.3000 
    165 H165        0.5277  -16.7531  -41.6533 H         1 UNK         0.0600 
    166 H166        2.4893  -16.4887  -39.3157 H         1 UNK         0.0600 
    167 H167        1.6662  -15.1594  -40.1337 H         1 UNK         0.0600 
    168 H168        0.7406  -16.3282  -39.2079 H         1 UNK         0.0600 
    169 H169        3.3590  -16.3615  -41.6077 H         1 UNK         0.3000 
    170 H170        4.6502  -16.4428  -43.3774 H         1 UNK         0.0600 
    171 H171        4.5576  -18.7078  -44.5325 H         1 UNK         0.0600 
    172 H172        3.6744  -17.9687  -45.8589 H         1 UNK         0.0600 
    173 H173        5.3260  -17.4748  -45.5139 H         1 UNK         0.0600 
    174 H174        2.4824  -15.2421  -44.7289 H         1 UNK         0.3000 
    175 H175        4.4092  -12.6366  -46.2229 H         1 UNK         0.0600 
    176 H176        1.9983  -14.2677  -47.1508 H         1 UNK         0.0600 
    177 H177        2.5159  -12.7074  -47.7703 H         1 UNK         0.0600 
    178 H178        3.5125  -14.1314  -48.0381 H         1 UNK         0.0600 
    179 H179        1.7065  -12.9654  -45.1470 H         1 UNK         0.3000 
    180 H180        2.0997  -12.0914  -42.1237 H         1 UNK         0.0600 
    181 H181        3.2059   -9.8978  -42.1259 H         1 UNK         0.0600 
    182 H182        2.2278   -9.3478  -43.4773 H         1 UNK         0.0600 
    183 H183        1.4792   -9.6715  -41.9139 H         1 UNK         0.0600 
    184 H184        0.0799  -12.3338  -42.9223 H         1 UNK         0.3000 
    185 H185       -1.8040  -12.0677  -43.8476 H         1 UNK         0.0600 
    186 H186       -2.1358   -9.7459  -45.8136 H         1 UNK         0.0600 
    187 H187       -3.4202  -10.5735  -44.9330 H         1 UNK         0.0600 
    188 H188       -2.2406   -9.6063  -44.0628 H         1 UNK         0.0600 
    189 H189       -2.4066  -12.1493  -46.5185 H         1 UNK         0.3000 
    190 H190        0.3001  -21.2245  -44.7018 H         1 UNK         0.3000 
    191 H191        2.0029  -22.6420  -46.5247 H         1 UNK         0.0600 
    192 H192        3.8336  -21.5653  -45.1925 H         1 UNK         0.0600 
    193 H193        2.6214  -22.3114  -44.1631 H         1 UNK         0.0600 
    194 H194        2.6446  -20.5581  -44.3737 H         1 UNK         0.0600 
    195 H195        1.0133  -19.2100  -46.2529 H         1 UNK         0.3000 
    196 H196        2.7962  -18.1913  -48.2703 H         1 UNK         0.0600 
    197 H197        1.2985  -16.2086  -48.1766 H         1 UNK         0.0600 
    198 H198        1.7242  -16.7321  -46.5518 H         1 UNK         0.0600 
    199 H199        0.1357  -17.1024  -47.2085 H         1 UNK         0.0600 
    200 H200       -0.4511  -19.5845  -48.2976 H         1 UNK         0.3000 
    201 H201       -0.9944  -19.0549  -51.0981 H         1 UNK         0.0600 
    202 H202       -2.7191  -19.2832  -49.1960 H         1 UNK         0.0600 
    203 H203       -2.4147  -21.0133  -49.2130 H         1 UNK         0.0600 
    204 H204       -3.0723  -20.2036  -50.6314 H         1 UNK         0.0600 
    205 H205        0.9001  -21.3255  -49.4651 H         1 UNK         0.3000 
    206 H206        1.9430  -23.2228  -49.8323 H         1 UNK         0.0600 
    207 H207        2.7490  -22.0281  -51.9265 H         1 UNK         0.0600 
    208 H208        2.7357  -23.7815  -52.0654 H         1 UNK         0.0600 
    209 H209        1.4664  -22.8426  -52.8264 H         1 UNK         0.0600 
    210 H210       -0.4038  -23.6403  -48.8502 H         1 UNK         0.3000 
    211 H211       -2.0738  -25.0476  -48.4746 H         1 UNK         0.0600 
    212 H212       -0.7900  -27.0013  -50.4509 H         1 UNK         0.0600 
    213 H213       -1.9713  -27.3836  -49.2082 H         1 UNK         0.0600 
    214 H214       -0.3620  -26.8545  -48.7466 H         1 UNK         0.0600 
    215 H215       -2.3769  -23.0067  -50.3174 H         1 UNK         0.3000 
    216 H216       -3.8920  -22.0097  -51.5634 H         1 UNK         0.0600 
    217 H217       -5.5673  -24.5471  -51.7569 H         1 UNK         0.0600 
    218 H218       -6.0921  -22.8771  -51.8958 H         1 UNK         0.0600 
    219 H219       -5.5717  -23.4959  -50.3413 H         1 UNK         0.0600 
    220 H220       -1.8223  -24.2252  -52.7434 H         1 UNK         0.3000 
    221 H221       -2.8689  -24.5783  -55.4266 H         1 UNK         0.0600 
    222 H222       -0.0934  -25.2169  -54.3091 H         1 UNK         0.0600 
    223 H223       -1.4776  -26.3087  -54.2644 H         1 UNK         0.0600 
    224 H224       -0.7892  -25.8182  -55.8057 H         1 UNK         0.0600 
    225 H225       -0.4099  -22.4357  -53.9074 H         1 UNK         0.3000 
    226 H226        0.5058  -21.4041  -56.5044 H         1 UNK         0.0600 
    227 H227        2.1491  -21.6042  -54.6862 H         1 UNK         0.0600 
    228 H228        1.9367  -19.9176  -55.1107 H         1 UNK         0.0600 
    229 H229        1.1904  -20.5405  -53.6483 H         1 UNK         0.0600 
    230 H230       -1.6421  -20.4349  -53.8632 H         1 UNK         0.3000 
    231 H231       -2.3369  -17.8386  -54.9819 H         1 UNK         0.0600 
    232 H232       -3.5948  -19.5976  -52.8259 H         1 UNK         0.0600 
    233 H233       -2.5545  -18.1932  -52.5828 H         1 UNK         0.0600 
    234 H234       -4.1697  -17.9831  -53.2305 H         1 UNK         0.0600 
    235 H235       -3.2615  -21.0897  -55.6513 H         1 UNK         0.3000 
    236 H236       -4.6646  -22.1310  -56.9901 H         1 UNK         0.0600 
    237 H237       -3.6313  -20.6781  -58.7340 H         1 UNK         0.0600 
    238 H238       -5.2986  -21.0642  -59.1296 H         1 UNK         0.0600 
    239 H239       -4.8961  -19.4722  -58.5001 H         1 UNK         0.0600 
    240 H240       -5.7730  -21.6322  -54.6799 H         1 UNK         0.3000 
    241 H241       -8.5969  -20.8534  -55.2082 H         1 UNK         0.0600 
    242 H242       -6.9149  -23.5770  -54.6038 H         1 UNK         0.3800 
    243 H243       -8.0858  -24.3596  -53.5739 H         1 UNK         0.3800 
    244 H244       -8.7044  -19.6712  -53.0707 H         1 UNK         0.0800 
    245 H245       -7.5427  -18.9474  -54.1377 H         1 UNK         0.0800 
    246 H246       -8.2232  -20.1592  -50.6819 H         1 UNK         0.0800 
    247 H247       -7.7515  -18.4880  -50.8905 H         1 UNK         0.0800 
@<TRIPOS>BOND
     1    1    2 1    
     2    1  127 1    
     3    1  128 1    
     4    1  129 1    
     5    2    3 2    
     6    2    4 am   BACKBONE|DICT|INTERRES
     7    4    5 1    
     8    4  130 1    
     9    5    6 1    
    10    5   65 1    
    11    5  131 1    
    12    6    7 1    
    13    6  132 1    
    14    6  133 1    
    15    7    8 1    
    16    8    9 1    
    17    8  134 1    
    18    8  135 1    
    19    9   10 ar   
    20    9   14 ar   
    21   10   11 ar   
    22   10  136 1    
    23   11   12 ar   
    24   11  126 1    
    25   12   13 ar   
    26   12  137 1    
    27   13   14 ar   
    28   13   15 1    
    29   14  138 1    
    30   15   16 1    
    31   15  139 1    
    32   15  140 1    
    33   16   17 1    
    34   17   18 1    
    35   17  141 1    
    36   17  142 1    
    37   18   19 1    
    38   18   67 1    
    39   18  143 1    
    40   19   20 am   BACKBONE|DICT|INTERRES
    41   19  144 1    
    42   20   21 2    
    43   20   22 1    
    44   22   23 1    
    45   22   24 1    
    46   22  145 1    
    47   23  146 1    
    48   23  147 1    
    49   23  148 1    
    50   24   25 am   BACKBONE|DICT|INTERRES
    51   24  149 1    
    52   25   26 2    
    53   25   27 1    
    54   27   28 1    
    55   27   29 1    
    56   27  150 1    
    57   28  151 1    
    58   28  152 1    
    59   28  153 1    
    60   29   30 am   BACKBONE|DICT|INTERRES
    61   29  154 1    
    62   30   31 2    
    63   30   32 1    
    64   32   33 1    
    65   32   34 1    
    66   32  155 1    
    67   33  156 1    
    68   33  157 1    
    69   33  158 1    
    70   34   35 am   BACKBONE|DICT|INTERRES
    71   34  159 1    
    72   35   36 2    
    73   35   37 1    
    74   37   38 1    
    75   37   39 1    
    76   37  160 1    
    77   38  161 1    
    78   38  162 1    
    79   38  163 1    
    80   39   40 am   BACKBONE|DICT|INTERRES
    81   39  164 1    
    82   40   41 2    
    83   40   42 1    
    84   42   43 1    
    85   42   44 1    
    86   42  165 1    
    87   43  166 1    
    88   43  167 1    
    89   43  168 1    
    90   44   45 am   BACKBONE|DICT|INTERRES
    91   44  169 1    
    92   45   46 2    
    93   45   47 1    
    94   47   48 1    
    95   47   49 1    
    96   47  170 1    
    97   48  171 1    
    98   48  172 1    
    99   48  173 1    
   100   49   50 am   BACKBONE|DICT|INTERRES
   101   49  174 1    
   102   50   51 2    
   103   50   52 1    
   104   52   53 1    
   105   52   54 1    
   106   52  175 1    
   107   53  176 1    
   108   53  177 1    
   109   53  178 1    
   110   54   55 am   BACKBONE|DICT|INTERRES
   111   54  179 1    
   112   55   56 2    
   113   55   57 1    
   114   57   58 1    
   115   57   59 1    
   116   57  180 1    
   117   58  181 1    
   118   58  182 1    
   119   58  183 1    
   120   59   60 am   BACKBONE|DICT|INTERRES
   121   59  184 1    
   122   60   61 2    
   123   60   62 1    
   124   62   63 1    
   125   62   64 1    
   126   62  185 1    
   127   63  186 1    
   128   63  187 1    
   129   63  188 1    
   130   64   65 am   BACKBONE|DICT|INTERRES
   131   64  189 1    
   132   65   66 2    
   133   67   68 2    
   134   67   69 am   BACKBONE|DICT|INTERRES
   135   69   70 1    
   136   69  190 1    
   137   70   71 1    
   138   70   72 1    
   139   70  191 1    
   140   71  192 1    
   141   71  193 1    
   142   71  194 1    
   143   72   73 2    
   144   72   74 am   BACKBONE|DICT|INTERRES
   145   74   75 1    
   146   74  195 1    
   147   75   76 1    
   148   75   77 1    
   149   75  196 1    
   150   76  197 1    
   151   76  198 1    
   152   76  199 1    
   153   77   78 2    
   154   77   79 am   BACKBONE|DICT|INTERRES
   155   79   80 1    
   156   79  200 1    
   157   80   81 1    
   158   80   82 1    
   159   80  201 1    
   160   81  202 1    
   161   81  203 1    
   162   81  204 1    
   163   82   83 2    
   164   82   84 am   BACKBONE|DICT|INTERRES
   165   84   85 1    
   166   84  205 1    
   167   85   86 1    
   168   85   87 1    
   169   85  206 1    
   170   86  207 1    
   171   86  208 1    
   172   86  209 1    
   173   87   88 2    
   174   87   89 am   BACKBONE|DICT|INTERRES
   175   89   90 1    
   176   89  210 1    
   177   90   91 1    
   178   90   92 1    
   179   90  211 1    
   180   91  212 1    
   181   91  213 1    
   182   91  214 1    
   183   92   93 2    
   184   92   94 am   BACKBONE|DICT|INTERRES
   185   94   95 1    
   186   94  215 1    
   187   95   96 1    
   188   95   97 1    
   189   95  216 1    
   190   96  217 1    
   191   96  218 1    
   192   96  219 1    
   193   97   98 2    
   194   97   99 am   BACKBONE|DICT|INTERRES
   195   99  100 1    
   196   99  220 1    
   197  100  101 1    
   198  100  102 1    
   199  100  221 1    
   200  101  222 1    
   201  101  223 1    
   202  101  224 1    
   203  102  103 2    
   204  102  104 am   BACKBONE|DICT|INTERRES
   205  104  105 1    
   206  104  225 1    
   207  105  106 1    
   208  105  107 1    
   209  105  226 1    
   210  106  227 1    
   211  106  228 1    
   212  106  229 1    
   213  107  108 2    
   214  107  109 am   BACKBONE|DICT|INTERRES
   215  109  110 1    
   216  109  230 1    
   217  110  111 1    
   218  110  112 1    
   219  110  231 1    
   220  111  232 1    
   221  111  233 1    
   222  111  234 1    
   223  112  113 2    
   224  112  114 am   BACKBONE|DICT|INTERRES
   225  114  115 1    
   226  114  235 1    
   227  115  116 1    
   228  115  117 1    
   229  115  236 1    
   230  116  237 1    
   231  116  238 1    
   232  116  239 1    
   233  117  118 2    
   234  117  119 am   BACKBONE|DICT|INTERRES
   235  119  120 1    
   236  119  240 1    
   237  120  121 1    
   238  120  124 1    
   239  120  241 1    
   240  121  122 am   BACKBONE|DICT|INTERRES
   241  121  123 2    
   242  122  242 1    
   243  122  243 1    
   244  124  125 1    
   245  124  244 1    
   246  124  245 1    
   247  125  126 1    
   248  126  246 1    
   249  126  247 1    
@<TRIPOS>SUBSTRUCTURE
     1 UNK         1 GROUP             0       ****    0 ROOT    
