@<TRIPOS>MOLECULE
3R540
247   249    1
SMALL
USER_CHARGES


@<TRIPOS>ATOM
      1 CA         -1.7488  -17.5192  -42.8183 C.3       0 UNK        -0.1800 
      2 C          -2.3259  -16.1226  -42.9994 C.2       0 UNK         0.5000 
      3 O          -2.7497  -15.5036  -42.0235 O.2       0 UNK        -0.5000 
      4 N          -2.3548  -15.6327  -44.2452 N.am      1 UNK        -0.5000 
      5 CA         -2.8031  -14.2885  -44.6164 C.3       1 UNK         0.1400 
      6 C6         -3.0465  -14.1435  -46.1420 C.3       23 UNK        -0.0398 
      7 S7         -1.6810  -14.7187  -47.2173 S.3       23 UNK        -0.2404 
      8 C8         -2.3512  -16.3122  -47.7918 C.3       23 UNK        -0.0205 
      9 C9         -1.4459  -16.9807  -48.8154 C.ar      23 UNK        -0.0193 
     10 C10        -1.5700  -16.6573  -50.1691 C.ar      23 UNK        -0.1150 
     11 C11        -0.8058  -17.3237  -51.1301 C.ar      23 UNK        -0.0193 
     12 C12         0.1097  -18.2993  -50.7269 C.ar      23 UNK        -0.1150 
     13 C13         0.2503  -18.6301  -49.3773 C.ar      23 UNK        -0.0193 
     14 C14        -0.5309  -17.9648  -48.4258 C.ar      23 UNK        -0.1150 
     15 C15         1.2407  -19.7122  -48.9616 C.3       23 UNK        -0.0205 
     16 S16         0.6527  -21.3882  -49.3723 S.3       23 UNK        -0.2404 
     17 C17        -0.7187  -21.5827  -48.1885 C.3       23 UNK        -0.0398 
     18 CA         -0.4496  -22.6223  -47.0720 C.3       11 UNK         0.1400 
     19 N           0.7741  -22.3635  -46.3116 N.am      11 UNK        -0.5000 
     20 C           1.5876  -23.3183  -45.8386 C.2       10 UNK         0.5000 
     21 O           1.4599  -24.5166  -46.0924 O.2       10 UNK        -0.5000 
     22 CA          2.7279  -22.8672  -44.9025 C.3       10 UNK         0.1400 
     23 CB          4.0020  -22.5824  -45.7111 C.3       10 UNK        -0.1800 
     24 N           2.3797  -21.6853  -44.1112 N.am      10 UNK        -0.5000 
     25 C           1.4223  -21.6590  -43.1698 C.2       9 UNK         0.5000 
     26 O           0.8361  -22.6668  -42.7744 O.2       9 UNK        -0.5000 
     27 CA          1.0188  -20.2863  -42.5889 C.3       9 UNK         0.1400 
     28 CB          1.5786  -20.1177  -41.1686 C.3       9 UNK        -0.1800 
     29 N           1.4285  -19.1363  -43.3979 N.am      9 UNK        -0.5000 
     30 C           1.0805  -18.9030  -44.6709 C.2       8 UNK         0.5000 
     31 O           0.3018  -19.6143  -45.3083 O.2       8 UNK        -0.5000 
     32 CA          1.7487  -17.7048  -45.3658 C.3       8 UNK         0.1400 
     33 CB          0.8421  -16.4733  -45.2900 C.3       8 UNK        -0.1800 
     34 N           3.0639  -17.3619  -44.8291 N.am      8 UNK        -0.5000 
     35 C           4.1413  -18.1585  -44.8111 C.2       7 UNK         0.5000 
     36 O           4.1382  -19.3226  -45.2111 O.2       7 UNK        -0.5000 
     37 CA          5.4230  -17.5557  -44.2164 C.3       7 UNK         0.1400 
     38 CB          6.1253  -16.6565  -45.2457 C.3       7 UNK        -0.1800 
     39 N           5.1207  -16.7733  -43.0183 N.am      7 UNK        -0.5000 
     40 C           5.1232  -17.2632  -41.7720 C.2       6 UNK         0.5000 
     41 O           5.4442  -18.4185  -41.4917 O.2       6 UNK        -0.5000 
     42 CA          4.6899  -16.3068  -40.6426 C.3       6 UNK         0.1400 
     43 CB          5.9100  -15.5791  -40.0580 C.3       6 UNK        -0.1800 
     44 N           3.6944  -15.3144  -41.0547 N.am      6 UNK        -0.5000 
     45 C           2.4383  -15.6046  -41.4190 C.2       5 UNK         0.5000 
     46 O           1.9864  -16.7485  -41.4702 O.2       5 UNK        -0.5000 
     47 CA          1.5443  -14.4194  -41.8308 C.3       5 UNK         0.1400 
     48 CB          0.9332  -13.7542  -40.5890 C.3       5 UNK        -0.1800 
     49 N           2.1779  -13.3893  -42.6679 N.am      5 UNK        -0.5000 
     50 C           2.9270  -13.5944  -43.7616 C.2       4 UNK         0.5000 
     51 O           3.3457  -14.6984  -44.1084 O.2       4 UNK        -0.5000 
     52 CA          3.2284  -12.3629  -44.6282 C.3       4 UNK         0.1400 
     53 CB          3.9734  -12.7252  -45.9321 C.3       4 UNK        -0.1800 
     54 N           1.9806  -11.6622  -44.9302 N.am      4 UNK        -0.5000 
     55 C           1.9012  -10.3953  -45.3601 C.2       3 UNK         0.5000 
     56 O           2.8819   -9.6686  -45.5274 O.2       3 UNK        -0.5000 
     57 CA          0.4955   -9.8308  -45.6508 C.3       3 UNK         0.1400 
     58 CB          0.1308  -10.0409  -47.1285 C.3       3 UNK        -0.1800 
     59 N          -0.5596  -10.4080  -44.8182 N.am      3 UNK        -0.5000 
     60 C          -0.6390  -10.3025  -43.4855 C.2       2 UNK         0.5000 
     61 O           0.1574   -9.6552  -42.8046 O.2       2 UNK        -0.5000 
     62 CA         -1.7925  -11.0465  -42.7831 C.3       2 UNK         0.1400 
     63 CB         -2.8675  -10.0484  -42.3245 C.3       2 UNK        -0.1800 
     64 N          -2.4439  -12.1103  -43.5580 N.am      2 UNK        -0.5000 
     65 C          -1.8545  -13.2049  -44.0597 C.2       1 UNK         0.5000 
     66 O          -0.6339  -13.3743  -44.0931 O.2       1 UNK        -0.5000 
     67 C          -1.6435  -22.6425  -46.1039 C.2       11 UNK         0.5000 
     68 O          -2.4369  -23.5836  -46.1282 O.2       11 UNK        -0.5000 
     69 N          -1.7625  -21.5807  -45.2898 N.am      12 UNK        -0.5000 
     70 CA         -2.8963  -21.2730  -44.4173 C.3       12 UNK         0.1400 
     71 CB         -2.9078  -22.2163  -43.1941 C.3       12 UNK        -0.1800 
     72 C          -4.2142  -21.2461  -45.2229 C.2       12 UNK         0.5000 
     73 O          -4.3375  -20.4385  -46.1452 O.2       12 UNK        -0.5000 
     74 N          -5.1495  -22.1474  -44.9004 N.am      13 UNK        -0.5000 
     75 CA         -6.4390  -22.3027  -45.5745 C.3       13 UNK         0.1400 
     76 CB         -7.3463  -23.1804  -44.6977 C.3       13 UNK        -0.1800 
     77 C          -6.3492  -22.8809  -47.0032 C.2       13 UNK         0.5000 
     78 O          -7.3259  -22.7750  -47.7456 O.2       13 UNK        -0.5000 
     79 N          -5.2107  -23.4889  -47.3737 N.am      14 UNK        -0.5000 
     80 CA         -5.0068  -24.1000  -48.6905 C.3       14 UNK         0.1400 
     81 CB         -3.8073  -25.0593  -48.6394 C.3       14 UNK        -0.1800 
     82 C          -4.8007  -23.0803  -49.8239 C.2       14 UNK         0.5000 
     83 O          -4.9731  -23.4538  -50.9846 O.2       14 UNK        -0.5000 
     84 N          -4.4115  -21.8437  -49.4820 N.am      15 UNK        -0.5000 
     85 CA         -4.0695  -20.7572  -50.4023 C.3       15 UNK         0.1400 
     86 CB         -3.7497  -19.5008  -49.5812 C.3       15 UNK        -0.1800 
     87 C          -5.1762  -20.4644  -51.4328 C.2       15 UNK         0.5000 
     88 O          -6.2512  -19.9964  -51.0527 O.2       15 UNK        -0.5000 
     89 N          -4.8930  -20.7781  -52.7055 N.am      16 UNK        -0.5000 
     90 CA         -5.7766  -20.6576  -53.8710 C.3       16 UNK         0.1400 
     91 CB         -6.1711  -19.1880  -54.1253 C.3       16 UNK        -0.1800 
     92 C          -6.9962  -21.6074  -53.8367 C.2       16 UNK         0.5000 
     93 O          -7.9374  -21.4122  -54.6074 O.2       16 UNK        -0.5000 
     94 N          -6.9509  -22.6284  -52.9725 N.am      17 UNK        -0.5000 
     95 CA         -7.9547  -23.6746  -52.8275 C.3       17 UNK         0.1400 
     96 CB         -8.5337  -23.6258  -51.3994 C.3       17 UNK        -0.1800 
     97 C          -7.2805  -25.0080  -53.1801 C.2       17 UNK         0.5000 
     98 O          -7.1933  -25.3405  -54.3621 O.2       17 UNK        -0.5000 
     99 N          -6.7861  -25.7335  -52.1672 N.am      18 UNK        -0.5000 
    100 CA        -6.0058  -26.9629  -52.3303 C.3       18 UNK         0.1400 
    101 CB        -5.8918  -27.6796  -50.9768 C.3       18 UNK        -0.1800 
    102 C         -4.6147  -26.7029  -52.9421 C.2       18 UNK         0.5000 
    103 O         -4.1403  -27.5126  -53.7393 O.2       18 UNK        -0.5000 
    104 N         -4.0150  -25.5533  -52.6061 N.am      19 UNK        -0.5000 
    105 CA        -2.8304  -24.9954  -53.2497 C.3       19 UNK         0.1400 
    106 CB        -1.9068  -24.3835  -52.1790 C.3       19 UNK        -0.1800 
    107 C         -3.3136  -23.9611  -54.2792 C.2       19 UNK         0.5000 
    108 O         -3.1314  -22.7570  -54.0872 O.2       19 UNK        -0.5000 
    109 N         -3.9766  -24.4578  -55.3332 N.am      20 UNK        -0.5000 
    110 CA        -4.6745  -23.6826  -56.3651 C.3       20 UNK         0.1400 
    111 CB        -5.3307  -24.6519  -57.3598 C.3       20 UNK        -0.1800 
    112 C         -3.7888  -22.6713  -57.1161 C.2       20 UNK         0.5000 
    113 O         -4.2728  -21.6070  -57.5013 O.2       20 UNK        -0.5000 
    114 N         -2.5061  -23.0152  -57.2880 N.am      21 UNK        -0.5000 
    115 CA        -1.4867  -22.1653  -57.9049 C.3       21 UNK         0.1400 
    116 CB        -0.3099  -23.0527  -58.3412 C.3       21 UNK        -0.1800 
    117 C         -0.9919  -21.0291  -56.9853 C.2       21 UNK         0.5000 
    118 O         -0.3345  -20.1100  -57.4754 O.2       21 UNK        -0.5000 
    119 N         -1.2974  -21.1095  -55.6815 N.am      22 UNK        -0.5000 
    120 CA        -0.8585  -20.1753  -54.6322 C.3       22 UNK         0.1400 
    121 C          0.6810  -20.2039  -54.3691 C.2       22 UNK         0.5000 
    122 N          1.3569  -21.3234  -54.6007 N.am      22 UNK        -0.7600 
    123 O          1.2792  -19.2177  -53.9514 O.2       22 UNK        -0.5000 
    124 C124       -1.4534  -18.7448  -54.8214 C.3       23 UNK        -0.0398 
    125 S125       -2.2667  -18.1183  -53.3126 S.3       23 UNK        -0.2404 
    126 C126       -0.9984  -17.0205  -52.6055 C.3       23 UNK        -0.0205 
    127 H127       -1.6170  -18.0252  -43.7742 H         1 UNK         0.0600 
    128 H128       -2.4135  -18.1271  -42.2047 H         1 UNK         0.0600 
    129 H129       -0.7806  -17.4622  -42.3205 H         1 UNK         0.0600 
    130 H130       -1.9506  -16.1645  -44.9999 H         1 UNK         0.3000 
    131 H131       -3.7709  -14.1435  -44.1308 H         1 UNK         0.0600 
    132 H132       -3.9522  -14.6910  -46.4059 H         1 UNK         0.0800 
    133 H133       -3.2647  -13.1051  -46.3973 H         1 UNK         0.0800 
    134 H134       -3.3354  -16.1518  -48.2350 H         1 UNK         0.0800 
    135 H135       -2.5071  -16.9765  -46.9407 H         1 UNK         0.0800 
    136 H136       -2.2887  -15.9113  -50.4782 H         1 UNK         0.1150 
    137 H137        0.6987  -18.8223  -51.4660 H         1 UNK         0.1150 
    138 H138       -0.4477  -18.2323  -47.3843 H         1 UNK         0.1150 
    139 H139        2.1917  -19.5397  -49.4672 H         1 UNK         0.0800 
    140 H140        1.4512  -19.6641  -47.8937 H         1 UNK         0.0800 
    141 H141       -1.5970  -21.8786  -48.7639 H         1 UNK         0.0800 
    142 H142       -0.9591  -20.6112  -47.7576 H         1 UNK         0.0800 
    143 H143       -0.3883  -23.6037  -47.5474 H         1 UNK         0.0600 
    144 H144        0.9245  -21.4057  -46.0185 H         1 UNK         0.3000 
    145 H145        2.9372  -23.6864  -44.2115 H         1 UNK         0.0600 
    146 H146        4.8267  -22.2900  -45.0608 H         1 UNK         0.0600 
    147 H147        4.3198  -23.4678  -46.2631 H         1 UNK         0.0600 
    148 H148        3.8467  -21.7825  -46.4364 H         1 UNK         0.0600 
    149 H149        2.8385  -20.8191  -44.3706 H         1 UNK         0.3000 
    150 H150       -0.0714  -20.2734  -42.5312 H         1 UNK         0.0600 
    151 H151        1.3104  -20.9642  -40.5350 H         1 UNK         0.0600 
    152 H152        1.1798  -19.2218  -40.6928 H         1 UNK         0.0600 
    153 H153        2.6667  -20.0397  -41.1731 H         1 UNK         0.0600 
    154 H154        2.0288  -18.4613  -42.9399 H         1 UNK         0.3000 
    155 H155        1.8855  -17.9629  -46.4159 H         1 UNK         0.0600 
    156 H156        0.7211  -16.1282  -44.2650 H         1 UNK         0.0600 
    157 H157        1.2409  -15.6462  -45.8779 H         1 UNK         0.0600 
    158 H158       -0.1491  -16.6986  -45.6769 H         1 UNK         0.0600 
    159 H159        3.1698  -16.4039  -44.4984 H         1 UNK         0.3000 
    160 H160        6.0999  -18.3757  -43.9671 H         1 UNK         0.0600 
    161 H161        6.3731  -17.2171  -46.1479 H         1 UNK         0.0600 
    162 H162        5.4992  -15.8146  -45.5437 H         1 UNK         0.0600 
    163 H163        7.0566  -16.2551  -44.8459 H         1 UNK         0.0600 
    164 H164        4.7672  -15.8357  -43.1713 H         1 UNK         0.3000 
    165 H165        4.2464  -16.9160  -39.8521 H         1 UNK         0.0600 
    166 H166        5.6310  -14.9665  -39.2005 H         1 UNK         0.0600 
    167 H167        6.6627  -16.2907  -39.7161 H         1 UNK         0.0600 
    168 H168        6.3830  -14.9301  -40.7962 H         1 UNK         0.0600 
    169 H169        3.9868  -14.3483  -41.0637 H         1 UNK         0.3000 
    170 H170        0.7211  -14.8374  -42.4095 H         1 UNK         0.0600 
    171 H171        0.4391  -14.4904  -39.9533 H         1 UNK         0.0600 
    172 H172        1.6911  -13.2527  -39.9862 H         1 UNK         0.0600 
    173 H173        0.1821  -13.0163  -40.8681 H         1 UNK         0.0600 
    174 H174        1.8969  -12.4397  -42.4725 H         1 UNK         0.3000 
    175 H175        3.8678  -11.7082  -44.0327 H         1 UNK         0.0600 
    176 H176        3.3698  -13.3732  -46.5689 H         1 UNK         0.0600 
    177 H177        4.2329  -11.8378  -46.5089 H         1 UNK         0.0600 
    178 H178        4.9061  -13.2487  -45.7184 H         1 UNK         0.0600 
    179 H179        1.1269  -12.1942  -44.7902 H         1 UNK         0.3000 
    180 H180        0.5253   -8.7571  -45.4540 H         1 UNK         0.0600 
    181 H181        0.0545  -11.1006  -47.3766 H         1 UNK         0.0600 
    182 H182        0.8856   -9.6037  -47.7836 H         1 UNK         0.0600 
    183 H183       -0.8213   -9.5689  -47.3718 H         1 UNK         0.0600 
    184 H184       -1.2507  -10.9724  -45.2888 H         1 UNK         0.3000 
    185 H185       -1.3674  -11.5139  -41.8936 H         1 UNK         0.0600 
    186 H186       -3.6319  -10.5389  -41.7215 H         1 UNK         0.0600 
    187 H187       -2.4340   -9.2569  -41.7114 H         1 UNK         0.0600 
    188 H188       -3.3610   -9.5728  -43.1730 H         1 UNK         0.0600 
    189 H189       -3.4512  -12.0514  -43.6003 H         1 UNK         0.3000 
    190 H190       -1.0580  -20.8492  -45.3491 H         1 UNK         0.3000 
    191 H191       -2.7414  -20.2576  -44.0513 H         1 UNK         0.0600 
    192 H192       -3.0294  -23.2623  -43.4773 H         1 UNK         0.0600 
    193 H193       -3.7118  -21.9585  -42.5035 H         1 UNK         0.0600 
    194 H194       -1.9740  -22.1375  -42.6376 H         1 UNK         0.0600 
    195 H195       -4.9506  -22.7984  -44.1546 H         1 UNK         0.3000 
    196 H196       -6.8980  -21.3152  -45.6563 H         1 UNK         0.0600 
    197 H197       -8.3355  -23.2910  -45.1441 H         1 UNK         0.0600 
    198 H198       -7.4861  -22.7412  -43.7098 H         1 UNK         0.0600 
    199 H199       -6.9320  -24.1808  -44.5663 H         1 UNK         0.0600 
    200 H200       -4.4331  -23.5377  -46.7234 H         1 UNK         0.3000 
    201 H201       -5.8943  -24.6872  -48.9350 H         1 UNK         0.0600 
    202 H202       -3.9174  -25.7945  -47.8422 H         1 UNK         0.0600 
    203 H203       -2.8701  -24.5261  -48.4826 H         1 UNK         0.0600 
    204 H204       -3.7012  -25.6063  -49.5763 H         1 UNK         0.0600 
    205 H205       -4.3601  -21.6232  -48.4975 H         1 UNK         0.3000 
    206 H206       -3.1626  -21.0499  -50.9358 H         1 UNK         0.0600 
    207 H207       -2.8862  -19.6554  -48.9364 H         1 UNK         0.0600 
    208 H208       -3.5223  -18.6609  -50.2375 H         1 UNK         0.0600 
    209 H209       -4.5883  -19.2055  -48.9493 H         1 UNK         0.0600 
    210 H210       -4.0090  -21.2325  -52.9077 H         1 UNK         0.3000 
    211 H211       -5.1763  -20.9758  -54.7235 H         1 UNK         0.0600 
    212 H212       -6.8464  -18.8087  -53.3582 H         1 UNK         0.0600 
    213 H213       -6.6765  -19.0799  -55.0855 H         1 UNK         0.0600 
    214 H214       -5.2930  -18.5428  -54.1498 H         1 UNK         0.0600 
    215 H215       -6.1276  -22.7304  -52.3863 H         1 UNK         0.3000 
    216 H216       -8.7763  -23.5332  -53.5324 H         1 UNK         0.0600 
    217 H217       -9.2292  -24.4483  -51.2279 H         1 UNK         0.0600 
    218 H218       -9.0858  -22.6993  -51.2409 H         1 UNK         0.0600 
    219 H219       -7.7603  -23.6741  -50.6326 H         1 UNK         0.0600 
    220 H220       -6.8918  -25.3812  -51.2280 H         1 UNK         0.3000 
    221 H221       -6.5468  -27.6201  -53.0145 H         1 UNK         0.0600 
    222 H222       -5.4116  -27.0547  -50.2251 H         1 UNK         0.0600 
    223 H223       -6.8745  -27.9611  -50.5981 H         1 UNK         0.0600 
    224 H224       -5.3053  -28.5949  -51.0673 H         1 UNK         0.0600 
    225 H225       -4.5016  -24.9130  -51.9833 H         1 UNK         0.3000 
    226 H226       -2.2713  -25.7706  -53.7775 H         1 UNK         0.0600 
    227 H227       -1.6047  -25.1319  -51.4465 H         1 UNK         0.0600 
    228 H228       -0.9983  -23.9852  -52.6321 H         1 UNK         0.0600 
    229 H229       -2.3850  -23.5658  -51.6400 H         1 UNK         0.0600 
    230 H230       -4.0974  -25.4601  -55.3808 H         1 UNK         0.3000 
    231 H231       -5.4680  -23.1222  -55.8700 H         1 UNK         0.0600 
    232 H232       -5.8868  -24.1095  -58.1257 H         1 UNK         0.0600 
    233 H233       -6.0358  -25.3155  -56.8593 H         1 UNK         0.0600 
    234 H234       -4.5897  -25.2708  -57.8673 H         1 UNK         0.0600 
    235 H235       -2.2010  -23.9125  -56.9405 H         1 UNK         0.3000 
    236 H236       -1.9132  -21.7012  -58.7967 H         1 UNK         0.0600 
    237 H237       -0.6338  -23.8198  -59.0448 H         1 UNK         0.0600 
    238 H238        0.4617  -22.4637  -58.8390 H         1 UNK         0.0600 
    239 H239        0.1560  -23.5513  -57.4903 H         1 UNK         0.0600 
    240 H240       -1.8802  -21.8733  -55.3571 H         1 UNK         0.3000 
    241 H241       -1.2833  -20.5966  -53.7203 H         1 UNK         0.0600 
    242 H242        2.3503  -21.3426  -54.4321 H         1 UNK         0.3800 
    243 H243        0.8907  -22.1462  -54.9462 H         1 UNK         0.3800 
    244 H244       -0.7134  -18.0329  -55.1900 H         1 UNK         0.0800 
    245 H245       -2.2307  -18.7574  -55.5866 H         1 UNK         0.0800 
    246 H246       -0.0485  -17.1261  -53.1293 H         1 UNK         0.0800 
    247 H247       -1.3067  -15.9831  -52.7431 H         1 UNK         0.0800 
@<TRIPOS>BOND
     1    1    2 1    
     2    1  127 1    
     3    1  128 1    
     4    1  129 1    
     5    2    3 2    
     6    2    4 am   BACKBONE|DICT|INTERRES
     7    4    5 1    
     8    4  130 1    
     9    5    6 1    
    10    5   65 1    
    11    5  131 1    
    12    6    7 1    
    13    6  132 1    
    14    6  133 1    
    15    7    8 1    
    16    8    9 1    
    17    8  134 1    
    18    8  135 1    
    19    9   10 ar   
    20    9   14 ar   
    21   10   11 ar   
    22   10  136 1    
    23   11   12 ar   
    24   11  126 1    
    25   12   13 ar   
    26   12  137 1    
    27   13   14 ar   
    28   13   15 1    
    29   14  138 1    
    30   15   16 1    
    31   15  139 1    
    32   15  140 1    
    33   16   17 1    
    34   17   18 1    
    35   17  141 1    
    36   17  142 1    
    37   18   19 1    
    38   18   67 1    
    39   18  143 1    
    40   19   20 am   BACKBONE|DICT|INTERRES
    41   19  144 1    
    42   20   21 2    
    43   20   22 1    
    44   22   23 1    
    45   22   24 1    
    46   22  145 1    
    47   23  146 1    
    48   23  147 1    
    49   23  148 1    
    50   24   25 am   BACKBONE|DICT|INTERRES
    51   24  149 1    
    52   25   26 2    
    53   25   27 1    
    54   27   28 1    
    55   27   29 1    
    56   27  150 1    
    57   28  151 1    
    58   28  152 1    
    59   28  153 1    
    60   29   30 am   BACKBONE|DICT|INTERRES
    61   29  154 1    
    62   30   31 2    
    63   30   32 1    
    64   32   33 1    
    65   32   34 1    
    66   32  155 1    
    67   33  156 1    
    68   33  157 1    
    69   33  158 1    
    70   34   35 am   BACKBONE|DICT|INTERRES
    71   34  159 1    
    72   35   36 2    
    73   35   37 1    
    74   37   38 1    
    75   37   39 1    
    76   37  160 1    
    77   38  161 1    
    78   38  162 1    
    79   38  163 1    
    80   39   40 am   BACKBONE|DICT|INTERRES
    81   39  164 1    
    82   40   41 2    
    83   40   42 1    
    84   42   43 1    
    85   42   44 1    
    86   42  165 1    
    87   43  166 1    
    88   43  167 1    
    89   43  168 1    
    90   44   45 am   BACKBONE|DICT|INTERRES
    91   44  169 1    
    92   45   46 2    
    93   45   47 1    
    94   47   48 1    
    95   47   49 1    
    96   47  170 1    
    97   48  171 1    
    98   48  172 1    
    99   48  173 1    
   100   49   50 am   BACKBONE|DICT|INTERRES
   101   49  174 1    
   102   50   51 2    
   103   50   52 1    
   104   52   53 1    
   105   52   54 1    
   106   52  175 1    
   107   53  176 1    
   108   53  177 1    
   109   53  178 1    
   110   54   55 am   BACKBONE|DICT|INTERRES
   111   54  179 1    
   112   55   56 2    
   113   55   57 1    
   114   57   58 1    
   115   57   59 1    
   116   57  180 1    
   117   58  181 1    
   118   58  182 1    
   119   58  183 1    
   120   59   60 am   BACKBONE|DICT|INTERRES
   121   59  184 1    
   122   60   61 2    
   123   60   62 1    
   124   62   63 1    
   125   62   64 1    
   126   62  185 1    
   127   63  186 1    
   128   63  187 1    
   129   63  188 1    
   130   64   65 am   BACKBONE|DICT|INTERRES
   131   64  189 1    
   132   65   66 2    
   133   67   68 2    
   134   67   69 am   BACKBONE|DICT|INTERRES
   135   69   70 1    
   136   69  190 1    
   137   70   71 1    
   138   70   72 1    
   139   70  191 1    
   140   71  192 1    
   141   71  193 1    
   142   71  194 1    
   143   72   73 2    
   144   72   74 am   BACKBONE|DICT|INTERRES
   145   74   75 1    
   146   74  195 1    
   147   75   76 1    
   148   75   77 1    
   149   75  196 1    
   150   76  197 1    
   151   76  198 1    
   152   76  199 1    
   153   77   78 2    
   154   77   79 am   BACKBONE|DICT|INTERRES
   155   79   80 1    
   156   79  200 1    
   157   80   81 1    
   158   80   82 1    
   159   80  201 1    
   160   81  202 1    
   161   81  203 1    
   162   81  204 1    
   163   82   83 2    
   164   82   84 am   BACKBONE|DICT|INTERRES
   165   84   85 1    
   166   84  205 1    
   167   85   86 1    
   168   85   87 1    
   169   85  206 1    
   170   86  207 1    
   171   86  208 1    
   172   86  209 1    
   173   87   88 2    
   174   87   89 am   BACKBONE|DICT|INTERRES
   175   89   90 1    
   176   89  210 1    
   177   90   91 1    
   178   90   92 1    
   179   90  211 1    
   180   91  212 1    
   181   91  213 1    
   182   91  214 1    
   183   92   93 2    
   184   92   94 am   BACKBONE|DICT|INTERRES
   185   94   95 1    
   186   94  215 1    
   187   95   96 1    
   188   95   97 1    
   189   95  216 1    
   190   96  217 1    
   191   96  218 1    
   192   96  219 1    
   193   97   98 2    
   194   97   99 am   BACKBONE|DICT|INTERRES
   195   99  100 1    
   196   99  220 1    
   197  100  101 1    
   198  100  102 1    
   199  100  221 1    
   200  101  222 1    
   201  101  223 1    
   202  101  224 1    
   203  102  103 2    
   204  102  104 am   BACKBONE|DICT|INTERRES
   205  104  105 1    
   206  104  225 1    
   207  105  106 1    
   208  105  107 1    
   209  105  226 1    
   210  106  227 1    
   211  106  228 1    
   212  106  229 1    
   213  107  108 2    
   214  107  109 am   BACKBONE|DICT|INTERRES
   215  109  110 1    
   216  109  230 1    
   217  110  111 1    
   218  110  112 1    
   219  110  231 1    
   220  111  232 1    
   221  111  233 1    
   222  111  234 1    
   223  112  113 2    
   224  112  114 am   BACKBONE|DICT|INTERRES
   225  114  115 1    
   226  114  235 1    
   227  115  116 1    
   228  115  117 1    
   229  115  236 1    
   230  116  237 1    
   231  116  238 1    
   232  116  239 1    
   233  117  118 2    
   234  117  119 am   BACKBONE|DICT|INTERRES
   235  119  120 1    
   236  119  240 1    
   237  120  121 1    
   238  120  124 1    
   239  120  241 1    
   240  121  122 am   BACKBONE|DICT|INTERRES
   241  121  123 2    
   242  122  242 1    
   243  122  243 1    
   244  124  125 1    
   245  124  244 1    
   246  124  245 1    
   247  125  126 1    
   248  126  246 1    
   249  126  247 1    
@<TRIPOS>SUBSTRUCTURE
     1 UNK         1 GROUP             0       ****    0 ROOT    
