@<TRIPOS>MOLECULE
3R540
247   249    1
SMALL
USER_CHARGES


@<TRIPOS>ATOM
      1 CA         -1.0356  -13.3537  -44.9827 C.3       0 UNK        -0.1800 
      2 C          -0.3455  -13.1214  -46.3175 C.2       0 UNK         0.5000 
      3 O          -0.9904  -12.6822  -47.2692 O.2       0 UNK        -0.5000 
      4 N           0.9625  -13.4040  -46.3817 N.am      1 UNK        -0.5000 
      5 CA          1.8321  -13.2300  -47.5539 C.3       1 UNK         0.1400 
      6 C6          3.2595  -13.7587  -47.2631 C.3       23 UNK        -0.0398 
      7 S7          4.3100  -13.9291  -48.7477 S.3       23 UNK        -0.2404 
      8 C8          4.9596  -15.6285  -48.5754 C.3       23 UNK        -0.0205 
      9 C9          4.0292  -16.7618  -49.0143 C.ar      23 UNK        -0.0193 
     10 C10         2.8411  -16.5455  -49.7269 C.ar      23 UNK        -0.1150 
     11 C11         2.0410  -17.6196  -50.1260 C.ar      23 UNK        -0.0193 
     12 C12         2.4487  -18.9220  -49.8322 C.ar      23 UNK        -0.1150 
     13 C13         3.6340  -19.1617  -49.1334 C.ar      23 UNK        -0.0193 
     14 C14         4.4108  -18.0756  -48.7205 C.ar      23 UNK        -0.1150 
     15 C15         4.0973  -20.5891  -48.8615 C.3       23 UNK        -0.0205 
     16 S16         3.1807  -21.3893  -47.5038 S.3       23 UNK        -0.2404 
     17 C17         1.6060  -21.7821  -48.3316 C.3       23 UNK        -0.0398 
     18 CA          0.7952  -22.9093  -47.6543 C.3       11 UNK         0.1400 
     19 N           0.3872  -22.5805  -46.2841 N.am      11 UNK        -0.5000 
     20 C          -0.2857  -23.4023  -45.4642 C.2       10 UNK         0.5000 
     21 O          -0.5570  -24.5715  -45.7358 O.2       10 UNK        -0.5000 
     22 CA         -0.8044  -22.7991  -44.1475 C.3       10 UNK         0.1400 
     23 CB          0.2707  -22.8384  -43.0508 C.3       10 UNK        -0.1800 
     24 N          -1.2886  -21.4305  -44.3325 N.am      10 UNK        -0.5000 
     25 C          -2.4014  -21.1115  -45.0097 C.2       9 UNK         0.5000 
     26 O          -3.1631  -21.9440  -45.4999 O.2       9 UNK        -0.5000 
     27 CA         -2.6890  -19.6136  -45.2124 C.3       9 UNK         0.1400 
     28 CB         -3.4406  -19.0353  -44.0046 C.3       9 UNK        -0.1800 
     29 N          -1.4664  -18.8454  -45.4469 N.am      9 UNK        -0.5000 
     30 C          -0.7417  -18.9229  -46.5735 C.2       8 UNK         0.5000 
     31 O          -1.0642  -19.6127  -47.5410 O.2       8 UNK        -0.5000 
     32 CA          0.5820  -18.1322  -46.6185 C.3       8 UNK         0.1400 
     33 CB          0.3281  -16.7196  -47.1565 C.3       8 UNK        -0.1800 
     34 N           1.2608  -18.0263  -45.3266 N.am      8 UNK        -0.5000 
     35 C           1.6164  -19.0583  -44.5486 C.2       7 UNK         0.5000 
     36 O           1.4754  -20.2352  -44.8746 O.2       7 UNK        -0.5000 
     37 CA          2.1444  -18.7275  -43.1384 C.3       7 UNK         0.1400 
     38 CB          3.6799  -18.7359  -43.1325 C.3       7 UNK        -0.1800 
     39 N           1.6731  -17.4468  -42.5996 N.am      7 UNK        -0.5000 
     40 C           0.3972  -17.0472  -42.4871 C.2       6 UNK         0.5000 
     41 O          -0.5628  -17.7520  -42.8007 O.2       6 UNK        -0.5000 
     42 CA          0.1370  -15.6144  -41.9771 C.3       6 UNK         0.1400 
     43 CB         -0.5875  -15.6498  -40.6225 C.3       6 UNK        -0.1800 
     44 N           1.3250  -14.7621  -41.8502 N.am      6 UNK        -0.5000 
     45 C           2.1309  -14.3556  -42.8408 C.2       5 UNK         0.5000 
     46 O           1.9988  -14.6900  -44.0206 O.2       5 UNK        -0.5000 
     47 CA          3.2465  -13.3858  -42.4107 C.3       5 UNK         0.1400 
     48 CB          4.4168  -13.3137  -43.4121 C.3       5 UNK        -0.1800 
     49 N           2.6972  -12.0576  -42.1161 N.am      5 UNK        -0.5000 
     50 C           2.0994  -11.2197  -42.9755 C.2       4 UNK         0.5000 
     51 O           2.0164  -11.4138  -44.1932 O.2       4 UNK        -0.5000 
     52 CA          1.5159   -9.9311  -42.3594 C.3       4 UNK         0.1400 
     53 CB          2.6370   -8.9319  -42.0331 C.3       4 UNK        -0.1800 
     54 N           0.5898   -9.2943  -43.2895 N.am      4 UNK        -0.5000 
     55 C          -0.6370   -9.7357  -43.5859 C.2       3 UNK         0.5000 
     56 O          -1.2567  -10.5487  -42.8995 O.2       3 UNK        -0.5000 
     57 CA         -1.2369   -9.2440  -44.9191 C.3       3 UNK         0.1400 
     58 CB         -1.7838   -7.8076  -44.8115 C.3       3 UNK        -0.1800 
     59 N          -0.3035   -9.4080  -46.0463 N.am      3 UNK        -0.5000 
     60 C           0.8503   -8.7632  -46.2857 C.2       2 UNK         0.5000 
     61 O           1.2442   -7.7944  -45.6338 O.2       2 UNK        -0.5000 
     62 CA          1.7482   -9.3809  -47.3681 C.3       2 UNK         0.1400 
     63 CB          3.1592   -8.7654  -47.4188 C.3       2 UNK        -0.1800 
     64 N           1.8521  -10.8152  -47.1142 N.am      2 UNK        -0.5000 
     65 C           1.8568  -11.7665  -48.0545 C.2       1 UNK         0.5000 
     66 O           1.8363  -11.5316  -49.2640 O.2       1 UNK        -0.5000 
     67 C          -0.4232  -23.2622  -48.5311 C.2       11 UNK         0.5000 
     68 O          -0.4298  -24.3216  -49.1558 O.2       11 UNK        -0.5000 
     69 N          -1.4439  -22.3910  -48.5246 N.am      12 UNK        -0.5000 
     70 CA         -2.6936  -22.5782  -49.2620 C.3       12 UNK         0.1400 
     71 CB         -3.5480  -21.3081  -49.1503 C.3       12 UNK        -0.1800 
     72 C          -3.4778  -23.8227  -48.8038 C.2       12 UNK         0.5000 
     73 O          -3.9833  -24.5634  -49.6471 O.2       12 UNK        -0.5000 
     74 N          -3.5212  -24.0644  -47.4848 N.am      13 UNK        -0.5000 
     75 CA         -4.1039  -25.2637  -46.8823 C.3       13 UNK         0.1400 
     76 CB         -4.1027  -25.1404  -45.3515 C.3       13 UNK        -0.1800 
     77 C          -3.3964  -26.5545  -47.3348 C.2       13 UNK         0.5000 
     78 O          -4.0687  -27.4978  -47.7558 O.2       13 UNK        -0.5000 
     79 N          -2.0560  -26.5526  -47.2817 N.am      14 UNK        -0.5000 
     80 CA         -1.1980  -27.6509  -47.7309 C.3       14 UNK         0.1400 
     81 CB          0.2574  -27.3636  -47.3332 C.3       14 UNK        -0.1800 
     82 C          -1.3063  -27.9285  -49.2420 C.2       14 UNK         0.5000 
     83 O          -1.2626  -29.0907  -49.6478 O.2       14 UNK        -0.5000 
     84 N          -1.5005  -26.8741  -50.0450 N.am      15 UNK        -0.5000 
     85 CA         -1.7298  -26.9117  -51.4918 C.3       15 UNK         0.1400 
     86 CB         -1.3943  -25.5303  -52.0829 C.3       15 UNK        -0.1800 
     87 C          -3.1533  -27.3855  -51.8704 C.2       15 UNK         0.5000 
     88 O          -3.8100  -26.7614  -52.7050 O.2       15 UNK        -0.5000 
     89 N          -3.5951  -28.4932  -51.2581 N.am      16 UNK        -0.5000 
     90 CA         -4.8741  -29.1819  -51.4536 C.3       16 UNK         0.1400 
     91 CB         -4.9214  -29.8391  -52.8492 C.3       16 UNK        -0.1800 
     92 C          -6.1030  -28.2946  -51.1600 C.2       16 UNK         0.5000 
     93 O          -7.0874  -28.3459  -51.9003 O.2       16 UNK        -0.5000 
     94 N          -6.0225  -27.5113  -50.0730 N.am      17 UNK        -0.5000 
     95 CA         -7.0487  -26.5885  -49.5762 C.3       17 UNK         0.1400 
     96 CB         -8.2643  -27.3679  -49.0320 C.3       17 UNK        -0.1800 
     97 C          -7.4297  -25.5027  -50.6041 C.2       17 UNK         0.5000 
     98 O          -8.6068  -25.3357  -50.9329 O.2       17 UNK        -0.5000 
     99 N          -6.4142  -24.7851  -51.0975 N.am      18 UNK        -0.5000 
    100 CA        -6.5627  -23.6265  -51.9742 C.3       18 UNK         0.1400 
    101 CB        -5.2000  -23.3060  -52.6130 C.3       18 UNK        -0.1800 
    102 C         -7.0994  -22.4018  -51.2083 C.2       18 UNK         0.5000 
    103 O         -6.9860  -22.3299  -49.9816 O.2       18 UNK        -0.5000 
    104 N         -7.6431  -21.4429  -51.9603 N.am      19 UNK        -0.5000 
    105 CA        -8.0525  -20.1270  -51.4853 C.3       19 UNK         0.1400 
    106 CB        -9.5829  -20.0770  -51.3558 C.3       19 UNK        -0.1800 
    107 C         -7.5478  -19.0995  -52.5043 C.2       19 UNK         0.5000 
    108 O         -7.5381  -19.3959  -53.7030 O.2       19 UNK        -0.5000 
    109 N         -7.1187  -17.9296  -52.0121 N.am      20 UNK        -0.5000 
    110 CA        -6.4994  -16.8011  -52.7263 C.3       20 UNK         0.1400 
    111 CB        -7.4468  -16.2092  -53.7879 C.3       20 UNK        -0.1800 
    112 C         -5.1105  -17.1152  -53.3230 C.2       20 UNK         0.5000 
    113 O         -4.1735  -16.3432  -53.1155 O.2       20 UNK        -0.5000 
    114 N         -4.9965  -18.2420  -54.0332 N.am      21 UNK        -0.5000 
    115 CA        -3.7518  -18.8086  -54.5420 C.3       21 UNK         0.1400 
    116 CB        -4.0936  -19.8772  -55.5919 C.3       21 UNK        -0.1800 
    117 C         -2.9055  -19.4201  -53.4100 C.2       21 UNK         0.5000 
    118 O         -3.4531  -19.8869  -52.4084 O.2       21 UNK        -0.5000 
    119 N         -1.5850  -19.4344  -53.6161 N.am      22 UNK        -0.5000 
    120 CA        -0.5863  -19.9678  -52.6741 C.3       22 UNK         0.1400 
    121 C         -0.4785  -21.5205  -52.6302 C.2       22 UNK         0.5000 
    122 N         -1.1834  -22.2669  -53.4709 N.am      22 UNK        -0.7600 
    123 O          0.2591  -22.0568  -51.8092 O.2       22 UNK        -0.5000 
    124 C124        0.8055  -19.3202  -52.9078 C.3       23 UNK        -0.0398 
    125 S125        0.8183  -17.5120  -52.6432 S.3       23 UNK        -0.2404 
    126 C126        0.7135  -17.3680  -50.8282 C.3       23 UNK        -0.0205 
    127 H127       -1.8980  -12.6953  -44.8780 H         1 UNK         0.0600 
    128 H128       -0.3603  -13.1492  -44.1523 H         1 UNK         0.0600 
    129 H129       -1.3804  -14.3848  -44.9102 H         1 UNK         0.0600 
    130 H130        1.4202  -13.7545  -45.5425 H         1 UNK         0.3000 
    131 H131        1.4007  -13.8381  -48.3515 H         1 UNK         0.0600 
    132 H132        3.1964  -14.7287  -46.7676 H         1 UNK         0.0800 
    133 H133        3.7733  -13.0999  -46.5638 H         1 UNK         0.0800 
    134 H134        5.2660  -15.7857  -47.5399 H         1 UNK         0.0800 
    135 H135        5.8689  -15.6959  -49.1739 H         1 UNK         0.0800 
    136 H136        2.5224  -15.5439  -49.9732 H         1 UNK         0.1150 
    137 H137        1.8358  -19.7526  -50.1429 H         1 UNK         0.1150 
    138 H138        5.3322  -18.2545  -48.1837 H         1 UNK         0.1150 
    139 H139        4.0113  -21.1849  -49.7713 H         1 UNK         0.0800 
    140 H140        5.1575  -20.5927  -48.6044 H         1 UNK         0.0800 
    141 H141        1.8265  -22.0581  -49.3649 H         1 UNK         0.0800 
    142 H142        1.0122  -20.8713  -48.3757 H         1 UNK         0.0800 
    143 H143        1.4277  -23.7979  -47.6001 H         1 UNK         0.0600 
    144 H144        0.6379  -21.6569  -45.9433 H         1 UNK         0.3000 
    145 H145       -1.6447  -23.4091  -43.8097 H         1 UNK         0.0600 
    146 H146       -0.1032  -22.4206  -42.1160 H         1 UNK         0.0600 
    147 H147        0.5763  -23.8656  -42.8484 H         1 UNK         0.0600 
    148 H148        1.1658  -22.2847  -43.3322 H         1 UNK         0.0600 
    149 H149       -0.6802  -20.6871  -44.0203 H         1 UNK         0.3000 
    150 H150       -3.3306  -19.5114  -46.0902 H         1 UNK         0.0600 
    151 H151       -4.3896  -19.5514  -43.8546 H         1 UNK         0.0600 
    152 H152       -3.6635  -17.9778  -44.1472 H         1 UNK         0.0600 
    153 H153       -2.8649  -19.1357  -43.0839 H         1 UNK         0.0600 
    154 H154       -1.1184  -18.2976  -44.6664 H         1 UNK         0.3000 
    155 H155        1.2560  -18.6519  -47.2998 H         1 UNK         0.0600 
    156 H156       -0.2896  -16.1387  -46.4718 H         1 UNK         0.0600 
    157 H157       -0.1874  -16.7482  -48.1164 H         1 UNK         0.0600 
    158 H158        1.2650  -16.1849  -47.3044 H         1 UNK         0.0600 
    159 H159        1.4162  -17.0927  -44.9722 H         1 UNK         0.3000 
    160 H160        1.7913  -19.5138  -42.4684 H         1 UNK         0.0600 
    161 H161        4.0727  -18.6054  -42.1240 H         1 UNK         0.0600 
    162 H162        4.0670  -19.6833  -43.5106 H         1 UNK         0.0600 
    163 H163        4.0878  -17.9414  -43.7590 H         1 UNK         0.0600 
    164 H164        2.3882  -16.7895  -42.3278 H         1 UNK         0.3000 
    165 H165       -0.5293  -15.1441  -42.7010 H         1 UNK         0.0600 
    166 H166       -0.8700  -14.6476  -40.2995 H         1 UNK         0.0600 
    167 H167       -1.5043  -16.2383  -40.6812 H         1 UNK         0.0600 
    168 H168        0.0367  -16.0916  -39.8448 H         1 UNK         0.0600 
    169 H169        1.5156  -14.4244  -40.9178 H         1 UNK         0.3000 
    170 H170        3.6555  -13.7698  -41.4748 H         1 UNK         0.0600 
    171 H171        4.1171  -12.8894  -44.3672 H         1 UNK         0.0600 
    172 H172        5.2291  -12.7020  -43.0198 H         1 UNK         0.0600 
    173 H173        4.8223  -14.3066  -43.6099 H         1 UNK         0.0600 
    174 H174        2.7199  -11.7928  -41.1411 H         1 UNK         0.3000 
    175 H175        0.9819  -10.1868  -41.4420 H         1 UNK         0.0600 
    176 H176        3.2031   -8.6592  -42.9251 H         1 UNK         0.0600 
    177 H177        2.2340   -8.0160  -41.6003 H         1 UNK         0.0600 
    178 H178        3.3408   -9.3480  -41.3115 H         1 UNK         0.0600 
    179 H179        1.0054   -8.6507  -43.9566 H         1 UNK         0.3000 
    180 H180       -2.0822   -9.8968  -45.1430 H         1 UNK         0.0600 
    181 H181       -1.0134   -7.0911  -44.5265 H         1 UNK         0.0600 
    182 H182       -2.5698   -7.7513  -44.0576 H         1 UNK         0.0600 
    183 H183       -2.2155   -7.4788  -45.7567 H         1 UNK         0.0600 
    184 H184       -0.4984  -10.2092  -46.6328 H         1 UNK         0.3000 
    185 H185        1.2534   -9.2000  -48.3244 H         1 UNK         0.0600 
    186 H186        3.1132   -7.6941  -47.6175 H         1 UNK         0.0600 
    187 H187        3.6909   -8.9060  -46.4769 H         1 UNK         0.0600 
    188 H188        3.7569   -9.2169  -48.2108 H         1 UNK         0.0600 
    189 H189        1.8528  -11.0933  -46.1342 H         1 UNK         0.3000 
    190 H190       -1.3513  -21.5229  -48.0060 H         1 UNK         0.3000 
    191 H191       -2.4347  -22.7174  -50.3135 H         1 UNK         0.0600 
    192 H192       -3.8425  -21.1075  -48.1199 H         1 UNK         0.0600 
    193 H193       -4.4575  -21.3981  -49.7438 H         1 UNK         0.0600 
    194 H194       -3.0080  -20.4369  -49.5220 H         1 UNK         0.0600 
    195 H195       -3.1327  -23.3769  -46.8463 H         1 UNK         0.3000 
    196 H196       -5.1433  -25.3184  -47.2048 H         1 UNK         0.0600 
    197 H197       -4.5636  -26.0146  -44.8901 H         1 UNK         0.0600 
    198 H198       -4.6670  -24.2663  -45.0261 H         1 UNK         0.0600 
    199 H199       -3.0928  -25.0541  -44.9521 H         1 UNK         0.0600 
    200 H200       -1.5812  -25.7384  -46.9004 H         1 UNK         0.3000 
    201 H201       -1.5193  -28.5542  -47.2085 H         1 UNK         0.0600 
    202 H202        0.3559  -27.2534  -46.2532 H         1 UNK         0.0600 
    203 H203        0.6287  -26.4493  -47.7968 H         1 UNK         0.0600 
    204 H204        0.9151  -28.1784  -47.6386 H         1 UNK         0.0600 
    205 H205       -1.4734  -25.9490  -49.6265 H         1 UNK         0.3000 
    206 H206       -1.0339  -27.6317  -51.9266 H         1 UNK         0.0600 
    207 H207       -0.3760  -25.2299  -51.8349 H         1 UNK         0.0600 
    208 H208       -1.4739  -25.5391  -53.1704 H         1 UNK         0.0600 
    209 H209       -2.0699  -24.7613  -51.7070 H         1 UNK         0.0600 
    210 H210       -2.9602  -28.9227  -50.5920 H         1 UNK         0.3000 
    211 H211       -4.9011  -29.9837  -50.7144 H         1 UNK         0.0600 
    212 H212       -4.9431  -29.0950  -53.6461 H         1 UNK         0.0600 
    213 H213       -5.8095  -30.4625  -52.9591 H         1 UNK         0.0600 
    214 H214       -4.0553  -30.4804  -53.0126 H         1 UNK         0.0600 
    215 H215       -5.1692  -27.5408  -49.5245 H         1 UNK         0.3000 
    216 H216       -6.6043  -26.0598  -48.7349 H         1 UNK         0.0600 
    217 H217       -8.9836  -26.6923  -48.5677 H         1 UNK         0.0600 
    218 H218       -7.9610  -28.0891  -48.2730 H         1 UNK         0.0600 
    219 H219       -8.7876  -27.9101  -49.8200 H         1 UNK         0.0600 
    220 H220       -5.4831  -24.9325  -50.7150 H         1 UNK         0.3000 
    221 H221       -7.2693  -23.8811  -52.7668 H         1 UNK         0.0600 
    222 H222       -4.4619  -23.0129  -51.8661 H         1 UNK         0.0600 
    223 H223       -4.8039  -24.1663  -53.1527 H         1 UNK         0.0600 
    224 H224       -5.2815  -22.4849  -53.3259 H         1 UNK         0.0600 
    225 H225       -7.6485  -21.5369  -52.9680 H         1 UNK         0.3000 
    226 H226       -7.5990  -19.9116  -50.5153 H         1 UNK         0.0600 
    227 H227       -9.9403  -20.8160  -50.6385 H         1 UNK         0.0600 
    228 H228       -9.9135  -19.0977  -51.0076 H         1 UNK         0.0600 
    229 H229      -10.0746  -20.2713  -52.3099 H         1 UNK         0.0600 
    230 H230       -7.1577  -17.8093  -51.0093 H         1 UNK         0.3000 
    231 H231       -6.3432  -16.0298  -51.9703 H         1 UNK         0.0600 
    232 H232       -8.4063  -15.9341  -53.3499 H         1 UNK         0.0600 
    233 H233       -7.6381  -16.9064  -54.6038 H         1 UNK         0.0600 
    234 H234       -7.0195  -15.3072  -54.2274 H         1 UNK         0.0600 
    235 H235       -5.8289  -18.8198  -54.1128 H         1 UNK         0.3000 
    236 H236       -3.1796  -18.0119  -55.0222 H         1 UNK         0.0600 
    237 H237       -3.1897  -20.3072  -56.0251 H         1 UNK         0.0600 
    238 H238       -4.6732  -20.6941  -55.1596 H         1 UNK         0.0600 
    239 H239       -4.6744  -19.4527  -56.4111 H         1 UNK         0.0600 
    240 H240       -1.2165  -19.0409  -54.4696 H         1 UNK         0.3000 
    241 H241       -0.9161  -19.6976  -51.6705 H         1 UNK         0.0600 
    242 H242       -1.0965  -23.2685  -53.4261 H         1 UNK         0.3800 
    243 H243       -1.7961  -21.8423  -54.1469 H         1 UNK         0.3800 
    244 H244        1.5751  -19.7745  -52.2874 H         1 UNK         0.0800 
    245 H245        1.1274  -19.5067  -53.9335 H         1 UNK         0.0800 
    246 H246       -0.0471  -18.0406  -50.4319 H         1 UNK         0.0800 
    247 H247        0.3622  -16.3623  -50.5923 H         1 UNK         0.0800 
@<TRIPOS>BOND
     1    1    2 1    
     2    1  127 1    
     3    1  128 1    
     4    1  129 1    
     5    2    3 2    
     6    2    4 am   BACKBONE|DICT|INTERRES
     7    4    5 1    
     8    4  130 1    
     9    5    6 1    
    10    5   65 1    
    11    5  131 1    
    12    6    7 1    
    13    6  132 1    
    14    6  133 1    
    15    7    8 1    
    16    8    9 1    
    17    8  134 1    
    18    8  135 1    
    19    9   10 ar   
    20    9   14 ar   
    21   10   11 ar   
    22   10  136 1    
    23   11   12 ar   
    24   11  126 1    
    25   12   13 ar   
    26   12  137 1    
    27   13   14 ar   
    28   13   15 1    
    29   14  138 1    
    30   15   16 1    
    31   15  139 1    
    32   15  140 1    
    33   16   17 1    
    34   17   18 1    
    35   17  141 1    
    36   17  142 1    
    37   18   19 1    
    38   18   67 1    
    39   18  143 1    
    40   19   20 am   BACKBONE|DICT|INTERRES
    41   19  144 1    
    42   20   21 2    
    43   20   22 1    
    44   22   23 1    
    45   22   24 1    
    46   22  145 1    
    47   23  146 1    
    48   23  147 1    
    49   23  148 1    
    50   24   25 am   BACKBONE|DICT|INTERRES
    51   24  149 1    
    52   25   26 2    
    53   25   27 1    
    54   27   28 1    
    55   27   29 1    
    56   27  150 1    
    57   28  151 1    
    58   28  152 1    
    59   28  153 1    
    60   29   30 am   BACKBONE|DICT|INTERRES
    61   29  154 1    
    62   30   31 2    
    63   30   32 1    
    64   32   33 1    
    65   32   34 1    
    66   32  155 1    
    67   33  156 1    
    68   33  157 1    
    69   33  158 1    
    70   34   35 am   BACKBONE|DICT|INTERRES
    71   34  159 1    
    72   35   36 2    
    73   35   37 1    
    74   37   38 1    
    75   37   39 1    
    76   37  160 1    
    77   38  161 1    
    78   38  162 1    
    79   38  163 1    
    80   39   40 am   BACKBONE|DICT|INTERRES
    81   39  164 1    
    82   40   41 2    
    83   40   42 1    
    84   42   43 1    
    85   42   44 1    
    86   42  165 1    
    87   43  166 1    
    88   43  167 1    
    89   43  168 1    
    90   44   45 am   BACKBONE|DICT|INTERRES
    91   44  169 1    
    92   45   46 2    
    93   45   47 1    
    94   47   48 1    
    95   47   49 1    
    96   47  170 1    
    97   48  171 1    
    98   48  172 1    
    99   48  173 1    
   100   49   50 am   BACKBONE|DICT|INTERRES
   101   49  174 1    
   102   50   51 2    
   103   50   52 1    
   104   52   53 1    
   105   52   54 1    
   106   52  175 1    
   107   53  176 1    
   108   53  177 1    
   109   53  178 1    
   110   54   55 am   BACKBONE|DICT|INTERRES
   111   54  179 1    
   112   55   56 2    
   113   55   57 1    
   114   57   58 1    
   115   57   59 1    
   116   57  180 1    
   117   58  181 1    
   118   58  182 1    
   119   58  183 1    
   120   59   60 am   BACKBONE|DICT|INTERRES
   121   59  184 1    
   122   60   61 2    
   123   60   62 1    
   124   62   63 1    
   125   62   64 1    
   126   62  185 1    
   127   63  186 1    
   128   63  187 1    
   129   63  188 1    
   130   64   65 am   BACKBONE|DICT|INTERRES
   131   64  189 1    
   132   65   66 2    
   133   67   68 2    
   134   67   69 am   BACKBONE|DICT|INTERRES
   135   69   70 1    
   136   69  190 1    
   137   70   71 1    
   138   70   72 1    
   139   70  191 1    
   140   71  192 1    
   141   71  193 1    
   142   71  194 1    
   143   72   73 2    
   144   72   74 am   BACKBONE|DICT|INTERRES
   145   74   75 1    
   146   74  195 1    
   147   75   76 1    
   148   75   77 1    
   149   75  196 1    
   150   76  197 1    
   151   76  198 1    
   152   76  199 1    
   153   77   78 2    
   154   77   79 am   BACKBONE|DICT|INTERRES
   155   79   80 1    
   156   79  200 1    
   157   80   81 1    
   158   80   82 1    
   159   80  201 1    
   160   81  202 1    
   161   81  203 1    
   162   81  204 1    
   163   82   83 2    
   164   82   84 am   BACKBONE|DICT|INTERRES
   165   84   85 1    
   166   84  205 1    
   167   85   86 1    
   168   85   87 1    
   169   85  206 1    
   170   86  207 1    
   171   86  208 1    
   172   86  209 1    
   173   87   88 2    
   174   87   89 am   BACKBONE|DICT|INTERRES
   175   89   90 1    
   176   89  210 1    
   177   90   91 1    
   178   90   92 1    
   179   90  211 1    
   180   91  212 1    
   181   91  213 1    
   182   91  214 1    
   183   92   93 2    
   184   92   94 am   BACKBONE|DICT|INTERRES
   185   94   95 1    
   186   94  215 1    
   187   95   96 1    
   188   95   97 1    
   189   95  216 1    
   190   96  217 1    
   191   96  218 1    
   192   96  219 1    
   193   97   98 2    
   194   97   99 am   BACKBONE|DICT|INTERRES
   195   99  100 1    
   196   99  220 1    
   197  100  101 1    
   198  100  102 1    
   199  100  221 1    
   200  101  222 1    
   201  101  223 1    
   202  101  224 1    
   203  102  103 2    
   204  102  104 am   BACKBONE|DICT|INTERRES
   205  104  105 1    
   206  104  225 1    
   207  105  106 1    
   208  105  107 1    
   209  105  226 1    
   210  106  227 1    
   211  106  228 1    
   212  106  229 1    
   213  107  108 2    
   214  107  109 am   BACKBONE|DICT|INTERRES
   215  109  110 1    
   216  109  230 1    
   217  110  111 1    
   218  110  112 1    
   219  110  231 1    
   220  111  232 1    
   221  111  233 1    
   222  111  234 1    
   223  112  113 2    
   224  112  114 am   BACKBONE|DICT|INTERRES
   225  114  115 1    
   226  114  235 1    
   227  115  116 1    
   228  115  117 1    
   229  115  236 1    
   230  116  237 1    
   231  116  238 1    
   232  116  239 1    
   233  117  118 2    
   234  117  119 am   BACKBONE|DICT|INTERRES
   235  119  120 1    
   236  119  240 1    
   237  120  121 1    
   238  120  124 1    
   239  120  241 1    
   240  121  122 am   BACKBONE|DICT|INTERRES
   241  121  123 2    
   242  122  242 1    
   243  122  243 1    
   244  124  125 1    
   245  124  244 1    
   246  124  245 1    
   247  125  126 1    
   248  126  246 1    
   249  126  247 1    
@<TRIPOS>SUBSTRUCTURE
     1 UNK         1 GROUP             0       ****    0 ROOT    
