@<TRIPOS>MOLECULE
3R540
247   249    1
SMALL
USER_CHARGES


@<TRIPOS>ATOM
      1 CA          7.0013  -12.7823  -50.2349 C.3       0 UNK        -0.1800 
      2 C           6.8227  -12.4216  -48.7668 C.2       0 UNK         0.5000 
      3 O           7.2701  -11.3580  -48.3362 O.2       0 UNK        -0.5000 
      4 N           6.1778  -13.3065  -47.9987 N.am      1 UNK        -0.5000 
      5 CA          5.8140  -13.0973  -46.5952 C.3       1 UNK         0.1400 
      6 C6          5.5502  -14.4431  -45.8662 C.3       23 UNK        -0.0398 
      7 S7          4.2688  -15.5121  -46.6243 S.3       23 UNK        -0.2404 
      8 C8          5.3194  -16.7304  -47.4797 C.3       23 UNK        -0.0205 
      9 C9          4.5366  -17.8422  -48.1694 C.ar      23 UNK        -0.0193 
     10 C10         3.5222  -17.5514  -49.0896 C.ar      23 UNK        -0.1150 
     11 C11         2.8777  -18.5775  -49.7901 C.ar      23 UNK        -0.0193 
     12 C12         3.2570  -19.9044  -49.5597 C.ar      23 UNK        -0.1150 
     13 C13         4.2637  -20.2097  -48.6418 C.ar      23 UNK        -0.0193 
     14 C14         4.8949  -19.1754  -47.9471 C.ar      23 UNK        -0.1150 
     15 C15         4.7085  -21.6508  -48.4404 C.3       23 UNK        -0.0205 
     16 S16         4.0950  -22.3451  -46.8772 S.3       23 UNK        -0.2404 
     17 C17         2.2982  -22.4169  -47.1893 C.3       23 UNK        -0.0398 
     18 CA          1.6172  -23.5584  -46.3975 C.3       11 UNK         0.1400 
     19 N           1.8379  -23.4234  -44.9556 N.am      11 UNK        -0.5000 
     20 C           2.0035  -24.4349  -44.0964 C.2       10 UNK         0.5000 
     21 O           1.9233  -25.6217  -44.4145 O.2       10 UNK        -0.5000 
     22 CA          2.3353  -24.0604  -42.6375 C.3       10 UNK         0.1400 
     23 CB          3.8520  -24.1349  -42.4033 C.3       10 UNK        -0.1800 
     24 N           1.8676  -22.7221  -42.2680 N.am      10 UNK        -0.5000 
     25 C           0.5974  -22.4267  -41.9634 C.2       9 UNK         0.5000 
     26 O          -0.3056  -23.2623  -41.9159 O.2       9 UNK        -0.5000 
     27 CA          0.2727  -20.9430  -41.6936 C.3       9 UNK         0.1400 
     28 CB          0.4777  -20.6115  -40.2076 C.3       9 UNK        -0.1800 
     29 N           1.0204  -19.9762  -42.5102 N.am      9 UNK        -0.5000 
     30 C           1.0397  -19.9554  -43.8492 C.2       8 UNK         0.5000 
     31 O           0.5714  -20.8545  -44.5485 O.2       8 UNK        -0.5000 
     32 CA          1.7035  -18.7433  -44.5302 C.3       8 UNK         0.1400 
     33 CB          3.2000  -19.0016  -44.7506 C.3       8 UNK        -0.1800 
     34 N           1.0682  -18.4611  -45.8208 N.am      8 UNK        -0.5000 
     35 C          -0.1982  -18.0435  -45.9447 C.2       7 UNK         0.5000 
     36 O          -0.8956  -17.6826  -44.9914 O.2       7 UNK        -0.5000 
     37 CA         -0.8118  -18.0905  -47.3507 C.3       7 UNK         0.1400 
     38 CB         -1.2991  -19.5215  -47.6479 C.3       7 UNK        -0.1800 
     39 N          -1.9255  -17.1492  -47.3679 N.am      7 UNK        -0.5000 
     40 C          -2.6932  -16.8124  -48.4057 C.2       6 UNK         0.5000 
     41 O          -2.5777  -17.2921  -49.5332 O.2       6 UNK        -0.5000 
     42 CA         -3.7321  -15.7101  -48.1601 C.3       6 UNK         0.1400 
     43 CB         -4.4876  -15.8790  -46.8292 C.3       6 UNK        -0.1800 
     44 N          -3.0337  -14.4303  -48.1745 N.am      6 UNK        -0.5000 
     45 C          -3.3691  -13.3666  -48.9182 C.2       5 UNK         0.5000 
     46 O          -4.3933  -13.3023  -49.5989 O.2       5 UNK        -0.5000 
     47 CA         -2.3874  -12.1722  -48.9204 C.3       5 UNK         0.1400 
     48 CB         -2.8411  -11.0998  -47.9184 C.3       5 UNK        -0.1800 
     49 N          -1.0160  -12.5695  -48.5986 N.am      5 UNK        -0.5000 
     50 C          -0.2496  -13.3545  -49.3671 C.2       4 UNK         0.5000 
     51 O          -0.5237  -13.6172  -50.5382 O.2       4 UNK        -0.5000 
     52 CA          1.0038  -13.9904  -48.7251 C.3       4 UNK         0.1400 
     53 CB          2.2616  -13.6499  -49.5397 C.3       4 UNK        -0.1800 
     54 N           1.2247  -13.6623  -47.3078 N.am      4 UNK        -0.5000 
     55 C           0.4318  -14.0292  -46.2858 C.2       3 UNK         0.5000 
     56 O          -0.6361  -14.6185  -46.4489 O.2       3 UNK        -0.5000 
     57 CA          0.8605  -13.6681  -44.8483 C.3       3 UNK         0.1400 
     58 CB          1.2186  -14.9332  -44.0556 C.3       3 UNK        -0.1800 
     59 N           1.9945  -12.7511  -44.7848 N.am      3 UNK        -0.5000 
     60 C           1.9411  -11.4290  -44.9925 C.2       2 UNK         0.5000 
     61 O           0.9003  -10.8145  -45.2267 O.2       2 UNK        -0.5000 
     62 CA          3.2896  -10.6769  -44.9609 C.3       2 UNK         0.1400 
     63 CB          3.5148  -10.0337  -43.5841 C.3       2 UNK        -0.1800 
     64 N           4.4403  -11.5313  -45.2861 N.am      2 UNK        -0.5000 
     65 C           4.6166  -12.1311  -46.4717 C.2       1 UNK         0.5000 
     66 O           3.8399  -11.9828  -47.4169 O.2       1 UNK        -0.5000 
     67 C           0.1155  -23.6054  -46.7317 C.2       11 UNK         0.5000 
     68 O          -0.2541  -24.1939  -47.7460 O.2       11 UNK        -0.5000 
     69 N          -0.7201  -22.9919  -45.8825 N.am      12 UNK        -0.5000 
     70 CA         -2.1611  -22.7895  -46.0454 C.3       12 UNK         0.1400 
     71 CB         -2.6999  -22.0883  -44.7892 C.3       12 UNK        -0.1800 
     72 C          -2.9850  -24.0513  -46.3525 C.2       12 UNK         0.5000 
     73 O          -3.9751  -23.9558  -47.0794 O.2       12 UNK        -0.5000 
     74 N          -2.5543  -25.2020  -45.8209 N.am      13 UNK        -0.5000 
     75 CA         -3.1673  -26.5075  -46.0662 C.3       13 UNK         0.1400 
     76 CB         -2.6749  -27.4981  -45.0004 C.3       13 UNK        -0.1800 
     77 C          -2.8839  -27.0525  -47.4800 C.2       13 UNK         0.5000 
     78 O          -3.7314  -27.7499  -48.0377 O.2       13 UNK        -0.5000 
     79 N          -1.7076  -26.7275  -48.0328 N.am      14 UNK        -0.5000 
     80 CA         -1.2801  -27.1259  -49.3745 C.3       14 UNK         0.1400 
     81 CB          0.2498  -27.2717  -49.3977 C.3       14 UNK        -0.1800 
     82 C          -1.7457  -26.1114  -50.4313 C.2       14 UNK         0.5000 
     83 O          -2.1758  -26.5108  -51.5136 O.2       14 UNK        -0.5000 
     84 N          -1.6707  -24.8184  -50.0871 N.am      15 UNK        -0.5000 
     85 CA         -2.1263  -23.6962  -50.9083 C.3       15 UNK         0.1400 
     86 CB         -1.5726  -22.3919  -50.3135 C.3       15 UNK        -0.1800 
     87 C          -3.6593  -23.6115  -51.0226 C.2       15 UNK         0.5000 
     88 O          -4.1557  -23.0107  -51.9742 O.2       15 UNK        -0.5000 
     89 N          -4.3689  -24.1961  -50.0447 N.am      16 UNK        -0.5000 
     90 CA         -5.8182  -24.1569  -49.8486 C.3       16 UNK         0.1400 
     91 CB         -6.5588  -24.8720  -50.9980 C.3       16 UNK        -0.1800 
     92 C          -6.2877  -22.7090  -49.6298 C.2       16 UNK         0.5000 
     93 O          -7.0192  -22.1613  -50.4543 O.2       16 UNK        -0.5000 
     94 N          -5.8158  -22.1014  -48.5321 N.am      17 UNK        -0.5000 
     95 CA         -6.0248  -20.6918  -48.1704 C.3       17 UNK         0.1400 
     96 CB         -5.2923  -20.4000  -46.8547 C.3       17 UNK        -0.1800 
     97 C          -7.4982  -20.2482  -48.0714 C.2       17 UNK         0.5000 
     98 O          -7.7933  -19.0736  -48.2907 O.2       17 UNK        -0.5000 
     99 N          -8.3930  -21.1941  -47.7613 N.am      18 UNK        -0.5000 
    100 CA        -9.8415  -20.9937  -47.7127 C.3       18 UNK         0.1400 
    101 CB       -10.4509  -22.0873  -46.8203 C.3       18 UNK        -0.1800 
    102 C        -10.5151  -20.9951  -49.1027 C.2       18 UNK         0.5000 
    103 O        -11.6970  -20.6575  -49.1878 O.2       18 UNK        -0.5000 
    104 N         -9.7842  -21.3938  -50.1521 N.am      19 UNK        -0.5000 
    105 CA       -10.2746  -21.5422  -51.5169 C.3       19 UNK         0.1400 
    106 CB       -10.4290  -23.0440  -51.8326 C.3       19 UNK        -0.1800 
    107 C         -9.3360  -20.7949  -52.4793 C.2       19 UNK         0.5000 
    108 O         -9.4644  -19.5773  -52.6154 O.2       19 UNK        -0.5000 
    109 N         -8.4379  -21.5300  -53.1495 N.am      20 UNK        -0.5000 
    110 CA        -7.5281  -21.0288  -54.1804 C.3       20 UNK         0.1400 
    111 CB        -6.8355  -22.2203  -54.8608 C.3       20 UNK        -0.1800 
    112 C         -6.4865  -20.0227  -53.6580 C.2       20 UNK         0.5000 
    113 O         -6.2751  -18.9920  -54.2999 O.2       20 UNK        -0.5000 
    114 N         -5.8767  -20.3416  -52.5066 N.am      21 UNK        -0.5000 
    115 CA        -4.8236  -19.5894  -51.8143 C.3       21 UNK         0.1400 
    116 CB        -5.4056  -18.2510  -51.3106 C.3       21 UNK        -0.1800 
    117 C         -3.5269  -19.4140  -52.6438 C.2       21 UNK         0.5000 
    118 O         -3.3771  -20.0268  -53.7046 O.2       21 UNK        -0.5000 
    119 N         -2.5891  -18.6014  -52.1406 N.am      22 UNK        -0.5000 
    120 CA        -1.3352  -18.2599  -52.8371 C.3       22 UNK         0.1400 
    121 C         -0.8792  -16.7842  -52.6690 C.2       22 UNK         0.5000 
    122 N         -1.3706  -16.0473  -51.6843 N.am      22 UNK        -0.7600 
    123 O         -0.0728  -16.2981  -53.4574 O.2       22 UNK        -0.5000 
    124 C124       -0.1921  -19.2651  -52.5407 C.3       23 UNK        -0.0398 
    125 S125        0.3625  -19.3028  -50.7969 S.3       23 UNK        -0.2404 
    126 C126        1.8478  -18.2436  -50.8638 C.3       23 UNK        -0.0205 
    127 H127        8.0611  -12.8175  -50.4871 H         1 UNK         0.0600 
    128 H128        6.5237  -12.0324  -50.8655 H         1 UNK         0.0600 
    129 H129        6.5630  -13.7526  -50.4702 H         1 UNK         0.0600 
    130 H130        5.7868  -14.1347  -48.4213 H         1 UNK         0.3000 
    131 H131        6.6617  -12.6190  -46.0996 H         1 UNK         0.0600 
    132 H132        5.2671  -14.2653  -44.8276 H         1 UNK         0.0800 
    133 H133        6.4859  -15.0004  -45.8058 H         1 UNK         0.0800 
    134 H134        5.9303  -16.2239  -48.2272 H         1 UNK         0.0800 
    135 H135        6.0127  -17.1568  -46.7529 H         1 UNK         0.0800 
    136 H136        3.2611  -16.5215  -49.2853 H         1 UNK         0.1150 
    137 H137        2.7851  -20.7007  -50.1177 H         1 UNK         0.1150 
    138 H138        5.6875  -19.4131  -47.2515 H         1 UNK         0.1150 
    139 H139        4.3846  -22.2791  -49.2715 H         1 UNK         0.0800 
    140 H140        5.7987  -21.6922  -48.4379 H         1 UNK         0.0800 
    141 H141        1.8669  -21.4479  -46.9317 H         1 UNK         0.0800 
    142 H142        2.1320  -22.5527  -48.2598 H         1 UNK         0.0800 
    143 H143        2.0489  -24.5022  -46.7381 H         1 UNK         0.0600 
    144 H144        1.8456  -22.4759  -44.6006 H         1 UNK         0.3000 
    145 H145        1.8544  -24.7955  -41.9885 H         1 UNK         0.0600 
    146 H146        4.1013  -23.9303  -41.3619 H         1 UNK         0.0600 
    147 H147        4.2353  -25.1287  -42.6389 H         1 UNK         0.0600 
    148 H148        4.3911  -23.4195  -43.0259 H         1 UNK         0.0600 
    149 H149        2.5482  -21.9766  -42.2814 H         1 UNK         0.3000 
    150 H150       -0.7850  -20.8037  -41.9268 H         1 UNK         0.0600 
    151 H151       -0.0836  -21.2979  -39.5720 H         1 UNK         0.0600 
    152 H152        0.1332  -19.6035  -39.9762 H         1 UNK         0.0600 
    153 H153        1.5276  -20.6829  -39.9209 H         1 UNK         0.0600 
    154 H154        1.4511  -19.2137  -42.0075 H         1 UNK         0.3000 
    155 H155        1.5872  -17.8717  -43.8841 H         1 UNK         0.0600 
    156 H156        3.6875  -18.1336  -45.1929 H         1 UNK         0.0600 
    157 H157        3.3679  -19.8518  -45.4110 H         1 UNK         0.0600 
    158 H158        3.7071  -19.2118  -43.8083 H         1 UNK         0.0600 
    159 H159        1.5727  -18.7596  -46.6422 H         1 UNK         0.3000 
    160 H160       -0.0678  -17.7776  -48.0858 H         1 UNK         0.0600 
    161 H161       -2.0362  -19.8345  -46.9106 H         1 UNK         0.0600 
    162 H162       -0.4736  -20.2336  -47.6128 H         1 UNK         0.0600 
    163 H163       -1.7536  -19.6075  -48.6341 H         1 UNK         0.0600 
    164 H164       -2.0489  -16.6748  -46.4804 H         1 UNK         0.3000 
    165 H165       -4.4569  -15.7647  -48.9750 H         1 UNK         0.0600 
    166 H166       -3.8349  -15.7524  -45.9646 H         1 UNK         0.0600 
    167 H167       -5.2896  -15.1456  -46.7447 H         1 UNK         0.0600 
    168 H168       -4.9439  -16.8671  -46.7614 H         1 UNK         0.0600 
    169 H169       -2.1621  -14.4051  -47.6513 H         1 UNK         0.3000 
    170 H170       -2.3936  -11.7364  -49.9215 H         1 UNK         0.0600 
    171 H171       -3.8527  -10.7590  -48.1427 H         1 UNK         0.0600 
    172 H172       -2.8410  -11.4793  -46.8957 H         1 UNK         0.0600 
    173 H173       -2.1893  -10.2266  -47.9528 H         1 UNK         0.0600 
    174 H174       -0.7053  -12.3927  -47.6547 H         1 UNK         0.3000 
    175 H175        0.8600  -15.0717  -48.7801 H         1 UNK         0.0600 
    176 H176        2.4224  -12.5728  -49.5937 H         1 UNK         0.0600 
    177 H177        3.1536  -14.1011  -49.1068 H         1 UNK         0.0600 
    178 H178        2.1783  -14.0192  -50.5626 H         1 UNK         0.0600 
    179 H179        2.0719  -13.1435  -47.1071 H         1 UNK         0.3000 
    180 H180        0.0046  -13.1947  -44.3627 H         1 UNK         0.0600 
    181 H181        2.0227  -15.4943  -44.5327 H         1 UNK         0.0600 
    182 H182        0.3564  -15.5942  -43.9741 H         1 UNK         0.0600 
    183 H183        1.5321  -14.6910  -43.0401 H         1 UNK         0.0600 
    184 H184        2.8952  -13.1665  -44.6023 H         1 UNK         0.3000 
    185 H185        3.2382   -9.8813  -45.7072 H         1 UNK         0.0600 
    186 H186        4.4254   -9.4344  -43.5722 H         1 UNK         0.0600 
    187 H187        2.6885   -9.3712  -43.3228 H         1 UNK         0.0600 
    188 H188        3.5950  -10.7845  -42.7970 H         1 UNK         0.0600 
    189 H189        5.1132  -11.6792  -44.5473 H         1 UNK         0.3000 
    190 H190       -0.2936  -22.4640  -45.1270 H         1 UNK         0.3000 
    191 H191       -2.2946  -22.1248  -46.8979 H         1 UNK         0.0600 
    192 H192       -3.7814  -21.9605  -44.8353 H         1 UNK         0.0600 
    193 H193       -2.2600  -21.0976  -44.6717 H         1 UNK         0.0600 
    194 H194       -2.4782  -22.6602  -43.8873 H         1 UNK         0.0600 
    195 H195       -1.7322  -25.1818  -45.2351 H         1 UNK         0.3000 
    196 H196       -4.2496  -26.4047  -45.9614 H         1 UNK         0.0600 
    197 H197       -3.1296  -28.4799  -45.1397 H         1 UNK         0.0600 
    198 H198       -2.9356  -27.1599  -43.9973 H         1 UNK         0.0600 
    199 H199       -1.5926  -27.6284  -45.0405 H         1 UNK         0.0600 
    200 H200       -1.0993  -26.0835  -47.5426 H         1 UNK         0.3000 
    201 H201       -1.7139  -28.0970  -49.6231 H         1 UNK         0.0600 
    202 H202        0.5839  -28.0207  -48.6797 H         1 UNK         0.0600 
    203 H203        0.7517  -26.3332  -49.1598 H         1 UNK         0.0600 
    204 H204        0.5957  -27.5881  -50.3825 H         1 UNK         0.0600 
    205 H205       -1.2421  -24.5810  -49.1945 H         1 UNK         0.3000 
    206 H206       -1.7221  -23.8178  -51.9152 H         1 UNK         0.0600 
    207 H207       -0.4831  -22.4037  -50.2763 H         1 UNK         0.0600 
    208 H208       -1.8679  -21.5312  -50.9145 H         1 UNK         0.0600 
    209 H209       -1.9395  -22.2243  -49.3009 H         1 UNK         0.0600 
    210 H210       -3.8483  -24.6103  -49.2834 H         1 UNK         0.3000 
    211 H211       -6.0268  -24.7052  -48.9287 H         1 UNK         0.0600 
    212 H212       -6.4452  -24.3526  -51.9499 H         1 UNK         0.0600 
    213 H213       -7.6264  -24.9364  -50.7871 H         1 UNK         0.0600 
    214 H214       -6.1914  -25.8899  -51.1275 H         1 UNK         0.0600 
    215 H215       -5.2079  -22.6421  -47.9235 H         1 UNK         0.3000 
    216 H216       -5.5649  -20.0820  -48.9468 H         1 UNK         0.0600 
    217 H217       -5.3944  -19.3521  -46.5702 H         1 UNK         0.0600 
    218 H218       -4.2282  -20.6064  -46.9483 H         1 UNK         0.0600 
    219 H219       -5.6853  -21.0038  -46.0362 H         1 UNK         0.0600 
    220 H220       -8.0590  -22.1320  -47.5959 H         1 UNK         0.3000 
    221 H221      -10.0476  -20.0253  -47.2520 H         1 UNK         0.0600 
    222 H222      -10.2818  -23.0830  -47.2324 H         1 UNK         0.0600 
    223 H223      -10.0248  -22.0612  -45.8171 H         1 UNK         0.0600 
    224 H224      -11.5285  -21.9540  -46.7163 H         1 UNK         0.0600 
    225 H225       -8.7975  -21.6018  -50.0250 H         1 UNK         0.3000 
    226 H226      -11.2560  -21.0764  -51.6264 H         1 UNK         0.0600 
    227 H227      -11.1934  -23.4948  -51.1995 H         1 UNK         0.0600 
    228 H228      -10.7362  -23.2006  -52.8675 H         1 UNK         0.0600 
    229 H229       -9.5028  -23.5953  -51.6686 H         1 UNK         0.0600 
    230 H230       -8.3778  -22.5148  -52.9382 H         1 UNK         0.3000 
    231 H231       -8.1325  -20.5165  -54.9320 H         1 UNK         0.0600 
    232 H232       -6.1619  -21.8813  -55.6489 H         1 UNK         0.0600 
    233 H233       -7.5616  -22.8913  -55.3200 H         1 UNK         0.0600 
    234 H234       -6.2425  -22.7994  -54.1511 H         1 UNK         0.0600 
    235 H235       -6.1419  -21.2137  -52.0610 H         1 UNK         0.3000 
    236 H236       -4.5451  -20.1961  -50.9533 H         1 UNK         0.0600 
    237 H237       -6.3850  -18.3941  -50.8530 H         1 UNK         0.0600 
    238 H238       -4.7739  -17.7966  -50.5537 H         1 UNK         0.0600 
    239 H239       -5.5197  -17.5291  -52.1199 H         1 UNK         0.0600 
    240 H240       -2.7249  -18.1623  -51.2353 H         1 UNK         0.3000 
    241 H241       -1.5351  -18.3320  -53.9081 H         1 UNK         0.0600 
    242 H242       -1.9373  -16.4713  -50.9559 H         1 UNK         0.3800 
    243 H243       -1.0475  -15.0929  -51.5551 H         1 UNK         0.3800 
    244 H244       -0.5255  -20.2711  -52.7981 H         1 UNK         0.0800 
    245 H245        0.6577  -19.0736  -53.1970 H         1 UNK         0.0800 
    246 H246        2.3380  -18.3488  -51.8319 H         1 UNK         0.0800 
    247 H247        1.5327  -17.2018  -50.7863 H         1 UNK         0.0800 
@<TRIPOS>BOND
     1    1    2 1    
     2    1  127 1    
     3    1  128 1    
     4    1  129 1    
     5    2    3 2    
     6    2    4 am   BACKBONE|DICT|INTERRES
     7    4    5 1    
     8    4  130 1    
     9    5    6 1    
    10    5   65 1    
    11    5  131 1    
    12    6    7 1    
    13    6  132 1    
    14    6  133 1    
    15    7    8 1    
    16    8    9 1    
    17    8  134 1    
    18    8  135 1    
    19    9   10 ar   
    20    9   14 ar   
    21   10   11 ar   
    22   10  136 1    
    23   11   12 ar   
    24   11  126 1    
    25   12   13 ar   
    26   12  137 1    
    27   13   14 ar   
    28   13   15 1    
    29   14  138 1    
    30   15   16 1    
    31   15  139 1    
    32   15  140 1    
    33   16   17 1    
    34   17   18 1    
    35   17  141 1    
    36   17  142 1    
    37   18   19 1    
    38   18   67 1    
    39   18  143 1    
    40   19   20 am   BACKBONE|DICT|INTERRES
    41   19  144 1    
    42   20   21 2    
    43   20   22 1    
    44   22   23 1    
    45   22   24 1    
    46   22  145 1    
    47   23  146 1    
    48   23  147 1    
    49   23  148 1    
    50   24   25 am   BACKBONE|DICT|INTERRES
    51   24  149 1    
    52   25   26 2    
    53   25   27 1    
    54   27   28 1    
    55   27   29 1    
    56   27  150 1    
    57   28  151 1    
    58   28  152 1    
    59   28  153 1    
    60   29   30 am   BACKBONE|DICT|INTERRES
    61   29  154 1    
    62   30   31 2    
    63   30   32 1    
    64   32   33 1    
    65   32   34 1    
    66   32  155 1    
    67   33  156 1    
    68   33  157 1    
    69   33  158 1    
    70   34   35 am   BACKBONE|DICT|INTERRES
    71   34  159 1    
    72   35   36 2    
    73   35   37 1    
    74   37   38 1    
    75   37   39 1    
    76   37  160 1    
    77   38  161 1    
    78   38  162 1    
    79   38  163 1    
    80   39   40 am   BACKBONE|DICT|INTERRES
    81   39  164 1    
    82   40   41 2    
    83   40   42 1    
    84   42   43 1    
    85   42   44 1    
    86   42  165 1    
    87   43  166 1    
    88   43  167 1    
    89   43  168 1    
    90   44   45 am   BACKBONE|DICT|INTERRES
    91   44  169 1    
    92   45   46 2    
    93   45   47 1    
    94   47   48 1    
    95   47   49 1    
    96   47  170 1    
    97   48  171 1    
    98   48  172 1    
    99   48  173 1    
   100   49   50 am   BACKBONE|DICT|INTERRES
   101   49  174 1    
   102   50   51 2    
   103   50   52 1    
   104   52   53 1    
   105   52   54 1    
   106   52  175 1    
   107   53  176 1    
   108   53  177 1    
   109   53  178 1    
   110   54   55 am   BACKBONE|DICT|INTERRES
   111   54  179 1    
   112   55   56 2    
   113   55   57 1    
   114   57   58 1    
   115   57   59 1    
   116   57  180 1    
   117   58  181 1    
   118   58  182 1    
   119   58  183 1    
   120   59   60 am   BACKBONE|DICT|INTERRES
   121   59  184 1    
   122   60   61 2    
   123   60   62 1    
   124   62   63 1    
   125   62   64 1    
   126   62  185 1    
   127   63  186 1    
   128   63  187 1    
   129   63  188 1    
   130   64   65 am   BACKBONE|DICT|INTERRES
   131   64  189 1    
   132   65   66 2    
   133   67   68 2    
   134   67   69 am   BACKBONE|DICT|INTERRES
   135   69   70 1    
   136   69  190 1    
   137   70   71 1    
   138   70   72 1    
   139   70  191 1    
   140   71  192 1    
   141   71  193 1    
   142   71  194 1    
   143   72   73 2    
   144   72   74 am   BACKBONE|DICT|INTERRES
   145   74   75 1    
   146   74  195 1    
   147   75   76 1    
   148   75   77 1    
   149   75  196 1    
   150   76  197 1    
   151   76  198 1    
   152   76  199 1    
   153   77   78 2    
   154   77   79 am   BACKBONE|DICT|INTERRES
   155   79   80 1    
   156   79  200 1    
   157   80   81 1    
   158   80   82 1    
   159   80  201 1    
   160   81  202 1    
   161   81  203 1    
   162   81  204 1    
   163   82   83 2    
   164   82   84 am   BACKBONE|DICT|INTERRES
   165   84   85 1    
   166   84  205 1    
   167   85   86 1    
   168   85   87 1    
   169   85  206 1    
   170   86  207 1    
   171   86  208 1    
   172   86  209 1    
   173   87   88 2    
   174   87   89 am   BACKBONE|DICT|INTERRES
   175   89   90 1    
   176   89  210 1    
   177   90   91 1    
   178   90   92 1    
   179   90  211 1    
   180   91  212 1    
   181   91  213 1    
   182   91  214 1    
   183   92   93 2    
   184   92   94 am   BACKBONE|DICT|INTERRES
   185   94   95 1    
   186   94  215 1    
   187   95   96 1    
   188   95   97 1    
   189   95  216 1    
   190   96  217 1    
   191   96  218 1    
   192   96  219 1    
   193   97   98 2    
   194   97   99 am   BACKBONE|DICT|INTERRES
   195   99  100 1    
   196   99  220 1    
   197  100  101 1    
   198  100  102 1    
   199  100  221 1    
   200  101  222 1    
   201  101  223 1    
   202  101  224 1    
   203  102  103 2    
   204  102  104 am   BACKBONE|DICT|INTERRES
   205  104  105 1    
   206  104  225 1    
   207  105  106 1    
   208  105  107 1    
   209  105  226 1    
   210  106  227 1    
   211  106  228 1    
   212  106  229 1    
   213  107  108 2    
   214  107  109 am   BACKBONE|DICT|INTERRES
   215  109  110 1    
   216  109  230 1    
   217  110  111 1    
   218  110  112 1    
   219  110  231 1    
   220  111  232 1    
   221  111  233 1    
   222  111  234 1    
   223  112  113 2    
   224  112  114 am   BACKBONE|DICT|INTERRES
   225  114  115 1    
   226  114  235 1    
   227  115  116 1    
   228  115  117 1    
   229  115  236 1    
   230  116  237 1    
   231  116  238 1    
   232  116  239 1    
   233  117  118 2    
   234  117  119 am   BACKBONE|DICT|INTERRES
   235  119  120 1    
   236  119  240 1    
   237  120  121 1    
   238  120  124 1    
   239  120  241 1    
   240  121  122 am   BACKBONE|DICT|INTERRES
   241  121  123 2    
   242  122  242 1    
   243  122  243 1    
   244  124  125 1    
   245  124  244 1    
   246  124  245 1    
   247  125  126 1    
   248  126  246 1    
   249  126  247 1    
@<TRIPOS>SUBSTRUCTURE
     1 UNK         1 GROUP             0       ****    0 ROOT    
