@<TRIPOS>MOLECULE
3R540
247   249    1
SMALL
USER_CHARGES


@<TRIPOS>ATOM
      1 CA          2.1455  -15.4205  -47.6079 C.3       0 UNK        -0.1800 
      2 C           1.4630  -14.4621  -46.6440 C.2       0 UNK         0.5000 
      3 O           2.0976  -13.9784  -45.7078 O.2       0 UNK        -0.5000 
      4 N           0.1758  -14.1719  -46.8754 N.am      1 UNK        -0.5000 
      5 CA         -0.6884  -13.3746  -45.9906 C.3       1 UNK         0.1400 
      6 C6         -2.1744  -13.4030  -46.4278 C.3       23 UNK        -0.0398 
      7 S7         -2.8215  -15.1038  -46.5813 S.3       23 UNK        -0.2404 
      8 C8         -3.2747  -15.1747  -48.3427 C.3       23 UNK        -0.0205 
      9 C9         -3.2721  -16.6115  -48.8347 C.ar      23 UNK        -0.0193 
     10 C10        -4.3925  -17.4285  -48.6570 C.ar      23 UNK        -0.1150 
     11 C11        -4.3699  -18.7628  -49.0749 C.ar      23 UNK        -0.0193 
     12 C12        -3.2119  -19.2783  -49.6623 C.ar      23 UNK        -0.1150 
     13 C13        -2.0831  -18.4729  -49.8396 C.ar      23 UNK        -0.0193 
     14 C14        -2.1289  -17.1334  -49.4441 C.ar      23 UNK        -0.1150 
     15 C15        -0.8166  -19.0661  -50.4440 C.3       23 UNK        -0.0205 
     16 S16         0.7116  -18.6981  -49.5170 S.3       23 UNK        -0.2404 
     17 C17         0.2653  -19.0445  -47.7810 C.3       23 UNK        -0.0398 
     18 CA          0.3159  -20.5472  -47.3920 C.3       11 UNK         0.1400 
     19 N           0.9058  -20.7405  -46.0629 N.am      11 UNK        -0.5000 
     20 C           1.2563  -21.9218  -45.5362 C.2       10 UNK         0.5000 
     21 O           1.1524  -22.9927  -46.1335 O.2       10 UNK        -0.5000 
     22 CA          1.7886  -21.9082  -44.0908 C.3       10 UNK         0.1400 
     23 CB          3.2719  -21.5106  -44.0532 C.3       10 UNK        -0.1800 
     24 N           1.0183  -21.0182  -43.2217 N.am      10 UNK        -0.5000 
     25 C          -0.2439  -21.2513  -42.8346 C.2       9 UNK         0.5000 
     26 O          -0.8657  -22.2764  -43.1120 O.2       9 UNK        -0.5000 
     27 CA         -0.9422  -20.1471  -42.0196 C.3       9 UNK         0.1400 
     28 CB         -0.6279  -20.2945  -40.5234 C.3       9 UNK        -0.1800 
     29 N          -0.5964  -18.7942  -42.4553 N.am      9 UNK        -0.5000 
     30 C          -0.8525  -18.2890  -43.6709 C.2       8 UNK         0.5000 
     31 O          -1.4043  -18.9124  -44.5750 O.2       8 UNK        -0.5000 
     32 CA         -0.3517  -16.8601  -43.9337 C.3       8 UNK         0.1400 
     33 CB         -1.2201  -15.8491  -43.1618 C.3       8 UNK        -0.1800 
     34 N           1.0578  -16.6995  -43.5686 N.am      8 UNK        -0.5000 
     35 C           2.0742  -17.4324  -44.0499 C.2       7 UNK         0.5000 
     36 O           1.9456  -18.3005  -44.9106 O.2       7 UNK        -0.5000 
     37 CA          3.4569  -17.2181  -43.4119 C.3       7 UNK         0.1400 
     38 CB          4.1844  -16.0143  -44.0251 C.3       7 UNK        -0.1800 
     39 N           3.3637  -17.0573  -41.9628 N.am      7 UNK        -0.5000 
     40 C           3.0203  -18.0373  -41.1149 C.2       6 UNK         0.5000 
     41 O           2.8077  -19.1999  -41.4601 O.2       6 UNK        -0.5000 
     42 CA          2.8409  -17.6307  -39.6410 C.3       6 UNK         0.1400 
     43 CB          4.1944  -17.6038  -38.9155 C.3       6 UNK        -0.1800 
     44 N           2.1900  -16.3256  -39.5059 N.am      6 UNK        -0.5000 
     45 C           0.9138  -16.0840  -39.8384 C.2       5 UNK         0.5000 
     46 O           0.1379  -16.9556  -40.2302 O.2       5 UNK        -0.5000 
     47 CA          0.4412  -14.6182  -39.7625 C.3       5 UNK         0.1400 
     48 CB         -0.0890  -14.2948  -38.3580 C.3       5 UNK        -0.1800 
     49 N           1.4889  -13.6555  -40.1216 N.am      5 UNK        -0.5000 
     50 C           2.0326  -13.5527  -41.3414 C.2       4 UNK         0.5000 
     51 O           1.6906  -14.2472  -42.2988 O.2       4 UNK        -0.5000 
     52 CA          3.1954  -12.5662  -41.4989 C.3       4 UNK         0.1400 
     53 CB          4.4737  -13.1681  -40.8770 C.3       4 UNK        -0.1800 
     54 N           3.4064  -12.2848  -42.9189 N.am      4 UNK        -0.5000 
     55 C           4.2090  -11.3298  -43.4046 C.2       3 UNK         0.5000 
     56 O           4.8146  -10.5211  -42.6996 O.2       3 UNK        -0.5000 
     57 CA          4.3682  -11.2617  -44.9311 C.3       3 UNK         0.1400 
     58 CB          5.1584  -12.4673  -45.4660 C.3       3 UNK        -0.1800 
     59 N           3.0793  -11.1689  -45.6149 N.am      3 UNK        -0.5000 
     60 C           2.4358  -10.0131  -45.8389 C.2       2 UNK         0.5000 
     61 O           2.8415   -8.9224  -45.4347 O.2       2 UNK        -0.5000 
     62 CA          1.1456  -10.0551  -46.6832 C.3       2 UNK         0.1400 
     63 CB          1.4300   -9.5761  -48.1156 C.3       2 UNK        -0.1800 
     64 N           0.5381  -11.3826  -46.7490 N.am      2 UNK        -0.5000 
     65 C          -0.2115  -11.9218  -45.7798 C.2       1 UNK         0.5000 
     66 O          -0.5189  -11.3271  -44.7460 O.2       1 UNK        -0.5000 
     67 C          -1.0809  -21.1993  -47.4861 C.2       11 UNK         0.5000 
     68 O          -1.3597  -21.9326  -48.4357 O.2       11 UNK        -0.5000 
     69 N          -1.9162  -20.9437  -46.4705 N.am      12 UNK        -0.5000 
     70 CA         -3.3007  -21.4006  -46.3594 C.3       12 UNK         0.1400 
     71 CB         -4.0911  -20.3779  -45.5253 C.3       12 UNK        -0.1800 
     72 C          -3.4514  -22.8278  -45.7941 C.2       12 UNK         0.5000 
     73 O          -4.5661  -23.2196  -45.4445 O.2       12 UNK        -0.5000 
     74 N          -2.3559  -23.5993  -45.7285 N.am      13 UNK        -0.5000 
     75 CA         -2.3512  -25.0172  -45.3470 C.3       13 UNK         0.1400 
     76 CB         -0.8992  -25.4774  -45.1525 C.3       13 UNK        -0.1800 
     77 C          -3.0752  -25.9224  -46.3687 C.2       13 UNK         0.5000 
     78 O          -3.4979  -27.0259  -46.0218 O.2       13 UNK        -0.5000 
     79 N          -3.2203  -25.4215  -47.5980 N.am      14 UNK        -0.5000 
     80 CA         -4.0330  -25.9523  -48.6822 C.3       14 UNK         0.1400 
     81 CB         -3.1800  -26.9058  -49.5406 C.3       14 UNK        -0.1800 
     82 C          -4.5527  -24.7481  -49.4879 C.2       14 UNK         0.5000 
     83 O          -4.2965  -23.5989  -49.1115 O.2       14 UNK        -0.5000 
     84 N          -5.2294  -25.0082  -50.6141 N.am      15 UNK        -0.5000 
     85 CA         -5.6695  -23.9981  -51.5842 C.3       15 UNK         0.1400 
     86 CB         -6.7676  -24.6059  -52.4748 C.3       15 UNK        -0.1800 
     87 C          -4.4820  -23.4474  -52.4050 C.2       15 UNK         0.5000 
     88 O          -4.4298  -23.6296  -53.6227 O.2       15 UNK        -0.5000 
     89 N          -3.5199  -22.8376  -51.6994 N.am      16 UNK        -0.5000 
     90 CA         -2.2299  -22.3345  -52.1749 C.3       16 UNK         0.1400 
     91 CB         -2.4290  -21.0846  -53.0517 C.3       16 UNK        -0.1800 
     92 C          -1.4061  -23.4341  -52.8689 C.2       16 UNK         0.5000 
     93 O          -1.0991  -23.3250  -54.0552 O.2       16 UNK        -0.5000 
     94 N          -1.1366  -24.5184  -52.1258 N.am      17 UNK        -0.5000 
     95 CA         -0.4660  -25.7461  -52.5842 C.3       17 UNK         0.1400 
     96 CB          1.0170  -25.4687  -52.9082 C.3       17 UNK        -0.1800 
     97 C          -1.2129  -26.4463  -53.7440 C.2       17 UNK         0.5000 
     98 O          -0.5856  -27.0684  -54.6022 O.2       17 UNK        -0.5000 
     99 N          -2.5469  -26.3043  -53.7421 N.am      18 UNK        -0.5000 
    100 CA        -3.5104  -26.7633  -54.7471 C.3       18 UNK         0.1400 
    101 CB        -3.4795  -28.2988  -54.8974 C.3       18 UNK        -0.1800 
    102 C         -3.4178  -26.0247  -56.1014 C.2       18 UNK         0.5000 
    103 O         -3.9816  -26.5052  -57.0862 O.2       18 UNK        -0.5000 
    104 N         -2.7551  -24.8577  -56.1386 N.am      19 UNK        -0.5000 
    105 CA        -2.7053  -23.9807  -57.3130 C.3       19 UNK         0.1400 
    106 CB        -1.4776  -23.0617  -57.2153 C.3       19 UNK        -0.1800 
    107 C         -3.9862  -23.1392  -57.4836 C.2       19 UNK         0.5000 
    108 O         -4.1939  -22.5797  -58.5604 O.2       19 UNK        -0.5000 
    109 N         -4.8022  -23.0463  -56.4212 N.am      20 UNK        -0.5000 
    110 CA        -6.0611  -22.3006  -56.3060 C.3       20 UNK         0.1400 
    111 CB        -7.0918  -22.7481  -57.3626 C.3       20 UNK        -0.1800 
    112 C         -5.8815  -20.7692  -56.2589 C.2       20 UNK         0.5000 
    113 O         -6.8711  -20.0384  -56.3312 O.2       20 UNK        -0.5000 
    114 N         -4.6389  -20.3004  -56.0656 N.am      21 UNK        -0.5000 
    115 CA        -4.2697  -18.8850  -55.9338 C.3       21 UNK         0.1400 
    116 CB        -2.7404  -18.7526  -56.0049 C.3       21 UNK        -0.1800 
    117 C         -4.8318  -18.2033  -54.6664 C.2       21 UNK         0.5000 
    118 O         -4.8398  -16.9740  -54.5933 O.2       21 UNK        -0.5000 
    119 N         -5.3262  -19.0088  -53.7164 N.am      22 UNK        -0.5000 
    120 CA        -6.1726  -18.5821  -52.5924 C.3       22 UNK         0.1400 
    121 C         -7.5480  -17.9864  -53.0375 C.2       22 UNK         0.5000 
    122 N         -8.0673  -18.3118  -54.2177 N.am      22 UNK        -0.7600 
    123 O         -8.1462  -17.1960  -52.3133 O.2       22 UNK        -0.5000 
    124 C124       -6.3535  -19.7534  -51.5894 C.3       23 UNK        -0.0398 
    125 S125       -6.9682  -19.2370  -49.9482 S.3       23 UNK        -0.2404 
    126 C126       -5.5794  -19.6591  -48.8531 C.3       23 UNK        -0.0205 
    127 H127        3.0195  -14.9457  -48.0533 H         1 UNK         0.0600 
    128 H128        2.4748  -16.3128  -47.0757 H         1 UNK         0.0600 
    129 H129        1.4779  -15.7319  -48.4115 H         1 UNK         0.0600 
    130 H130       -0.2916  -14.5999  -47.6609 H         1 UNK         0.3000 
    131 H131       -0.6263  -13.8427  -45.0113 H         1 UNK         0.0600 
    132 H132       -2.7938  -12.8846  -45.6936 H         1 UNK         0.0800 
    133 H133       -2.3087  -12.8650  -47.3676 H         1 UNK         0.0800 
    134 H134       -2.5767  -14.5832  -48.9370 H         1 UNK         0.0800 
    135 H135       -4.2595  -14.7269  -48.4839 H         1 UNK         0.0800 
    136 H136       -5.2780  -17.0306  -48.1816 H         1 UNK         0.1150 
    137 H137       -3.1831  -20.3162  -49.9618 H         1 UNK         0.1150 
    138 H138       -1.2584  -16.5070  -49.5782 H         1 UNK         0.1150 
    139 H139       -0.8990  -20.1482  -50.5090 H         1 UNK         0.0800 
    140 H140       -0.7087  -18.7020  -51.4663 H         1 UNK         0.0800 
    141 H141       -0.6834  -18.5755  -47.5152 H         1 UNK         0.0800 
    142 H142        1.0057  -18.4902  -47.2080 H         1 UNK         0.0800 
    143 H143        0.9677  -21.0689  -48.0959 H         1 UNK         0.0600 
    144 H144        1.0707  -19.8996  -45.5158 H         1 UNK         0.3000 
    145 H145        1.7030  -22.9230  -43.6961 H         1 UNK         0.0600 
    146 H146        3.6651  -21.5526  -43.0373 H         1 UNK         0.0600 
    147 H147        3.8719  -22.1867  -44.6634 H         1 UNK         0.0600 
    148 H148        3.4309  -20.5005  -44.4304 H         1 UNK         0.0600 
    149 H149        1.4760  -20.1694  -42.9112 H         1 UNK         0.3000 
    150 H150       -2.0186  -20.2704  -42.1556 H         1 UNK         0.0600 
    151 H151       -0.8982  -21.2876  -40.1626 H         1 UNK         0.0600 
    152 H152       -1.1856  -19.5694  -39.9304 H         1 UNK         0.0600 
    153 H153        0.4330  -20.1470  -40.3191 H         1 UNK         0.0600 
    154 H154       -0.1601  -18.1926  -41.7629 H         1 UNK         0.3000 
    155 H155       -0.4361  -16.6507  -45.0019 H         1 UNK         0.0600 
    156 H156       -1.4163  -16.1668  -42.1387 H         1 UNK         0.0600 
    157 H157       -2.1895  -15.7295  -43.6457 H         1 UNK         0.0600 
    158 H158       -0.7565  -14.8669  -43.1030 H         1 UNK         0.0600 
    159 H159        1.2740  -15.9430  -42.9246 H         1 UNK         0.3000 
    160 H160        4.0555  -18.1084  -43.6162 H         1 UNK         0.0600 
    161 H161        5.2001  -15.9275  -43.6393 H         1 UNK         0.0600 
    162 H162        3.6665  -15.0808  -43.8128 H         1 UNK         0.0600 
    163 H163        4.2538  -16.1099  -45.1093 H         1 UNK         0.0600 
    164 H164        3.4748  -16.1227  -41.6021 H         1 UNK         0.3000 
    165 H165        2.2093  -18.3816  -39.1612 H         1 UNK         0.0600 
    166 H166        4.0684  -17.3851  -37.8550 H         1 UNK         0.0600 
    167 H167        4.6953  -18.5700  -38.9899 H         1 UNK         0.0600 
    168 H168        4.8646  -16.8530  -39.3362 H         1 UNK         0.0600 
    169 H169        2.7586  -15.5593  -39.1780 H         1 UNK         0.3000 
    170 H170       -0.3810  -14.5002  -40.4711 H         1 UNK         0.0600 
    171 H171       -0.8855  -14.9839  -38.0737 H         1 UNK         0.0600 
    172 H172        0.6947  -14.3695  -37.6031 H         1 UNK         0.0600 
    173 H173       -0.5027  -13.2872  -38.3150 H         1 UNK         0.0600 
    174 H174        1.8234  -13.0560  -39.3807 H         1 UNK         0.3000 
    175 H175        2.9326  -11.6380  -40.9877 H         1 UNK         0.0600 
    176 H176        4.7892  -14.0694  -41.4041 H         1 UNK         0.0600 
    177 H177        5.3040  -12.4629  -40.9014 H         1 UNK         0.0600 
    178 H178        4.3203  -13.4352  -39.8308 H         1 UNK         0.0600 
    179 H179        2.8994  -12.8958  -43.5510 H         1 UNK         0.3000 
    180 H180        4.9565  -10.3703  -45.1604 H         1 UNK         0.0600 
    181 H181        4.6350  -13.4074  -45.2995 H         1 UNK         0.0600 
    182 H182        6.1302  -12.5440  -44.9768 H         1 UNK         0.0600 
    183 H183        5.3399  -12.3735  -46.5367 H         1 UNK         0.0600 
    184 H184        2.6544  -12.0444  -45.9013 H         1 UNK         0.3000 
    185 H185        0.4334   -9.3620  -46.2301 H         1 UNK         0.0600 
    186 H186        1.8549   -8.5713  -48.1154 H         1 UNK         0.0600 
    187 H187        2.1370  -10.2311  -48.6263 H         1 UNK         0.0600 
    188 H188        0.5159   -9.5399  -48.7086 H         1 UNK         0.0600 
    189 H189        0.7513  -11.9439  -47.5607 H         1 UNK         0.3000 
    190 H190       -1.6057  -20.3138  -45.7323 H         1 UNK         0.3000 
    191 H191       -3.7328  -21.4201  -47.3605 H         1 UNK         0.0600 
    192 H192       -3.7475  -20.3566  -44.4905 H         1 UNK         0.0600 
    193 H193       -5.1557  -20.6137  -45.5142 H         1 UNK         0.0600 
    194 H194       -3.9874  -19.3719  -45.9334 H         1 UNK         0.0600 
    195 H195       -1.4704  -23.2012  -46.0089 H         1 UNK         0.3000 
    196 H196       -2.8727  -25.1125  -44.3925 H         1 UNK         0.0600 
    197 H197       -0.8583  -26.5167  -44.8243 H         1 UNK         0.0600 
    198 H198       -0.3936  -24.8771  -44.3955 H         1 UNK         0.0600 
    199 H199       -0.3270  -25.4015  -46.0780 H         1 UNK         0.0600 
    200 H200       -2.9058  -24.4721  -47.7602 H         1 UNK         0.3000 
    201 H201       -4.8945  -26.4848  -48.2746 H         1 UNK         0.0600 
    202 H202       -3.7642  -27.3558  -50.3437 H         1 UNK         0.0600 
    203 H203       -2.7830  -27.7238  -48.9391 H         1 UNK         0.0600 
    204 H204       -2.3345  -26.3888  -49.9939 H         1 UNK         0.0600 
    205 H205       -5.4056  -25.9703  -50.8648 H         1 UNK         0.3000 
    206 H206       -6.1080  -23.1566  -51.0434 H         1 UNK         0.0600 
    207 H207       -7.6197  -24.9342  -51.8794 H         1 UNK         0.0600 
    208 H208       -7.1394  -23.8739  -53.1928 H         1 UNK         0.0600 
    209 H209       -6.4031  -25.4646  -53.0395 H         1 UNK         0.0600 
    210 H210       -3.6523  -22.8197  -50.6904 H         1 UNK         0.3000 
    211 H211       -1.6664  -22.0493  -51.2884 H         1 UNK         0.0600 
    212 H212       -2.9794  -21.3180  -53.9623 H         1 UNK         0.0600 
    213 H213       -1.4675  -20.6633  -53.3466 H         1 UNK         0.0600 
    214 H214       -2.9740  -20.3071  -52.5176 H         1 UNK         0.0600 
    215 H215       -1.4325  -24.5145  -51.1602 H         1 UNK         0.3000 
    216 H216       -0.4923  -26.4434  -51.7459 H         1 UNK         0.0600 
    217 H217        1.1284  -24.8319  -53.7864 H         1 UNK         0.0600 
    218 H218        1.5543  -26.3964  -53.1081 H         1 UNK         0.0600 
    219 H219        1.5180  -24.9792  -52.0732 H         1 UNK         0.0600 
    220 H220       -2.9408  -25.7323  -53.0104 H         1 UNK         0.3000 
    221 H221       -4.4906  -26.5021  -54.3465 H         1 UNK         0.0600 
    222 H222       -2.5666  -28.6419  -55.3846 H         1 UNK         0.0600 
    223 H223       -3.5500  -28.7921  -53.9280 H         1 UNK         0.0600 
    224 H224       -4.3186  -28.6497  -55.4991 H         1 UNK         0.0600 
    225 H225       -2.3076  -24.5098  -55.2973 H         1 UNK         0.3000 
    226 H226       -2.5916  -24.5976  -58.2068 H         1 UNK         0.0600 
    227 H227       -0.5666  -23.6327  -57.0346 H         1 UNK         0.0600 
    228 H228       -1.3349  -22.5052  -58.1423 H         1 UNK         0.0600 
    229 H229       -1.5822  -22.3309  -56.4130 H         1 UNK         0.0600 
    230 H230       -4.5100  -23.5019  -55.5600 H         1 UNK         0.3000 
    231 H231       -6.4667  -22.5734  -55.3311 H         1 UNK         0.0600 
    232 H232       -7.1985  -23.8329  -57.3746 H         1 UNK         0.0600 
    233 H233       -6.8148  -22.4251  -58.3661 H         1 UNK         0.0600 
    234 H234       -8.0757  -22.3291  -57.1490 H         1 UNK         0.0600 
    235 H235       -3.8874  -20.9715  -56.0150 H         1 UNK         0.3000 
    236 H236       -4.6920  -18.3559  -56.7906 H         1 UNK         0.0600 
    237 H237       -2.4392  -17.7045  -55.9847 H         1 UNK         0.0600 
    238 H238       -2.2495  -19.2471  -55.1684 H         1 UNK         0.0600 
    239 H239       -2.3489  -19.1833  -56.9268 H         1 UNK         0.0600 
    240 H240       -5.2655  -20.0017  -53.8769 H         1 UNK         0.3000 
    241 H241       -5.6323  -17.7831  -52.0804 H         1 UNK         0.0600 
    242 H242       -7.5878  -18.9321  -54.8622 H         1 UNK         0.3800 
    243 H243       -8.9498  -17.9087  -54.4899 H         1 UNK         0.3800 
    244 H244       -7.0363  -20.5023  -51.9942 H         1 UNK         0.0800 
    245 H245       -5.4027  -20.2691  -51.4504 H         1 UNK         0.0800 
    246 H246       -5.9096  -19.5595  -47.8185 H         1 UNK         0.0800 
    247 H247       -5.3222  -20.7106  -48.9911 H         1 UNK         0.0800 
@<TRIPOS>BOND
     1    1    2 1    
     2    1  127 1    
     3    1  128 1    
     4    1  129 1    
     5    2    3 2    
     6    2    4 am   BACKBONE|DICT|INTERRES
     7    4    5 1    
     8    4  130 1    
     9    5    6 1    
    10    5   65 1    
    11    5  131 1    
    12    6    7 1    
    13    6  132 1    
    14    6  133 1    
    15    7    8 1    
    16    8    9 1    
    17    8  134 1    
    18    8  135 1    
    19    9   10 ar   
    20    9   14 ar   
    21   10   11 ar   
    22   10  136 1    
    23   11   12 ar   
    24   11  126 1    
    25   12   13 ar   
    26   12  137 1    
    27   13   14 ar   
    28   13   15 1    
    29   14  138 1    
    30   15   16 1    
    31   15  139 1    
    32   15  140 1    
    33   16   17 1    
    34   17   18 1    
    35   17  141 1    
    36   17  142 1    
    37   18   19 1    
    38   18   67 1    
    39   18  143 1    
    40   19   20 am   BACKBONE|DICT|INTERRES
    41   19  144 1    
    42   20   21 2    
    43   20   22 1    
    44   22   23 1    
    45   22   24 1    
    46   22  145 1    
    47   23  146 1    
    48   23  147 1    
    49   23  148 1    
    50   24   25 am   BACKBONE|DICT|INTERRES
    51   24  149 1    
    52   25   26 2    
    53   25   27 1    
    54   27   28 1    
    55   27   29 1    
    56   27  150 1    
    57   28  151 1    
    58   28  152 1    
    59   28  153 1    
    60   29   30 am   BACKBONE|DICT|INTERRES
    61   29  154 1    
    62   30   31 2    
    63   30   32 1    
    64   32   33 1    
    65   32   34 1    
    66   32  155 1    
    67   33  156 1    
    68   33  157 1    
    69   33  158 1    
    70   34   35 am   BACKBONE|DICT|INTERRES
    71   34  159 1    
    72   35   36 2    
    73   35   37 1    
    74   37   38 1    
    75   37   39 1    
    76   37  160 1    
    77   38  161 1    
    78   38  162 1    
    79   38  163 1    
    80   39   40 am   BACKBONE|DICT|INTERRES
    81   39  164 1    
    82   40   41 2    
    83   40   42 1    
    84   42   43 1    
    85   42   44 1    
    86   42  165 1    
    87   43  166 1    
    88   43  167 1    
    89   43  168 1    
    90   44   45 am   BACKBONE|DICT|INTERRES
    91   44  169 1    
    92   45   46 2    
    93   45   47 1    
    94   47   48 1    
    95   47   49 1    
    96   47  170 1    
    97   48  171 1    
    98   48  172 1    
    99   48  173 1    
   100   49   50 am   BACKBONE|DICT|INTERRES
   101   49  174 1    
   102   50   51 2    
   103   50   52 1    
   104   52   53 1    
   105   52   54 1    
   106   52  175 1    
   107   53  176 1    
   108   53  177 1    
   109   53  178 1    
   110   54   55 am   BACKBONE|DICT|INTERRES
   111   54  179 1    
   112   55   56 2    
   113   55   57 1    
   114   57   58 1    
   115   57   59 1    
   116   57  180 1    
   117   58  181 1    
   118   58  182 1    
   119   58  183 1    
   120   59   60 am   BACKBONE|DICT|INTERRES
   121   59  184 1    
   122   60   61 2    
   123   60   62 1    
   124   62   63 1    
   125   62   64 1    
   126   62  185 1    
   127   63  186 1    
   128   63  187 1    
   129   63  188 1    
   130   64   65 am   BACKBONE|DICT|INTERRES
   131   64  189 1    
   132   65   66 2    
   133   67   68 2    
   134   67   69 am   BACKBONE|DICT|INTERRES
   135   69   70 1    
   136   69  190 1    
   137   70   71 1    
   138   70   72 1    
   139   70  191 1    
   140   71  192 1    
   141   71  193 1    
   142   71  194 1    
   143   72   73 2    
   144   72   74 am   BACKBONE|DICT|INTERRES
   145   74   75 1    
   146   74  195 1    
   147   75   76 1    
   148   75   77 1    
   149   75  196 1    
   150   76  197 1    
   151   76  198 1    
   152   76  199 1    
   153   77   78 2    
   154   77   79 am   BACKBONE|DICT|INTERRES
   155   79   80 1    
   156   79  200 1    
   157   80   81 1    
   158   80   82 1    
   159   80  201 1    
   160   81  202 1    
   161   81  203 1    
   162   81  204 1    
   163   82   83 2    
   164   82   84 am   BACKBONE|DICT|INTERRES
   165   84   85 1    
   166   84  205 1    
   167   85   86 1    
   168   85   87 1    
   169   85  206 1    
   170   86  207 1    
   171   86  208 1    
   172   86  209 1    
   173   87   88 2    
   174   87   89 am   BACKBONE|DICT|INTERRES
   175   89   90 1    
   176   89  210 1    
   177   90   91 1    
   178   90   92 1    
   179   90  211 1    
   180   91  212 1    
   181   91  213 1    
   182   91  214 1    
   183   92   93 2    
   184   92   94 am   BACKBONE|DICT|INTERRES
   185   94   95 1    
   186   94  215 1    
   187   95   96 1    
   188   95   97 1    
   189   95  216 1    
   190   96  217 1    
   191   96  218 1    
   192   96  219 1    
   193   97   98 2    
   194   97   99 am   BACKBONE|DICT|INTERRES
   195   99  100 1    
   196   99  220 1    
   197  100  101 1    
   198  100  102 1    
   199  100  221 1    
   200  101  222 1    
   201  101  223 1    
   202  101  224 1    
   203  102  103 2    
   204  102  104 am   BACKBONE|DICT|INTERRES
   205  104  105 1    
   206  104  225 1    
   207  105  106 1    
   208  105  107 1    
   209  105  226 1    
   210  106  227 1    
   211  106  228 1    
   212  106  229 1    
   213  107  108 2    
   214  107  109 am   BACKBONE|DICT|INTERRES
   215  109  110 1    
   216  109  230 1    
   217  110  111 1    
   218  110  112 1    
   219  110  231 1    
   220  111  232 1    
   221  111  233 1    
   222  111  234 1    
   223  112  113 2    
   224  112  114 am   BACKBONE|DICT|INTERRES
   225  114  115 1    
   226  114  235 1    
   227  115  116 1    
   228  115  117 1    
   229  115  236 1    
   230  116  237 1    
   231  116  238 1    
   232  116  239 1    
   233  117  118 2    
   234  117  119 am   BACKBONE|DICT|INTERRES
   235  119  120 1    
   236  119  240 1    
   237  120  121 1    
   238  120  124 1    
   239  120  241 1    
   240  121  122 am   BACKBONE|DICT|INTERRES
   241  121  123 2    
   242  122  242 1    
   243  122  243 1    
   244  124  125 1    
   245  124  244 1    
   246  124  245 1    
   247  125  126 1    
   248  126  246 1    
   249  126  247 1    
@<TRIPOS>SUBSTRUCTURE
     1 UNK         1 GROUP             0       ****    0 ROOT    
