@<TRIPOS>MOLECULE
3R540
247   249    1
SMALL
USER_CHARGES


@<TRIPOS>ATOM
      1 CA          3.7337  -10.3390  -48.4799 C.3       0 UNK        -0.1800 
      2 C           2.6453  -11.1958  -47.8359 C.2       0 UNK         0.5000 
      3 O           1.6679  -10.6474  -47.3321 O.2       0 UNK        -0.5000 
      4 N           2.7561  -12.5324  -47.8228 N.am      1 UNK        -0.5000 
      5 CA          3.8598  -13.3513  -48.3494 C.3       1 UNK         0.1400 
      6 C6          3.4668  -14.8469  -48.4560 C.3       23 UNK        -0.0398 
      7 S7          2.0317  -15.1215  -49.5515 S.3       23 UNK        -0.2404 
      8 C8          1.6600  -16.8642  -49.1890 C.3       23 UNK        -0.0205 
      9 C9          0.4978  -17.3794  -50.0222 C.ar      23 UNK        -0.0193 
     10 C10         0.7322  -18.0483  -51.2268 C.ar      23 UNK        -0.1150 
     11 C11        -0.3356  -18.5287  -51.9909 C.ar      23 UNK        -0.0193 
     12 C12        -1.6461  -18.3394  -51.5392 C.ar      23 UNK        -0.1150 
     13 C13        -1.8931  -17.6745  -50.3344 C.ar      23 UNK        -0.0193 
     14 C14        -0.8158  -17.1960  -49.5818 C.ar      23 UNK        -0.1150 
     15 C15        -3.3228  -17.4474  -49.8599 C.3       23 UNK        -0.0205 
     16 S16        -4.0524  -18.9268  -49.0854 S.3       23 UNK        -0.2404 
     17 C17        -2.9771  -19.1645  -47.6324 C.3       23 UNK        -0.0398 
     18 CA         -2.0364  -20.3834  -47.8022 C.3       11 UNK         0.1400 
     19 N          -0.7730  -20.2229  -47.0780 N.am      11 UNK        -0.5000 
     20 C           0.2789  -21.0467  -47.1876 C.2       10 UNK         0.5000 
     21 O           0.3097  -22.0152  -47.9438 O.2       10 UNK        -0.5000 
     22 CA          1.4774  -20.7917  -46.2574 C.3       10 UNK         0.1400 
     23 CB          2.3881  -19.6905  -46.8155 C.3       10 UNK        -0.1800 
     24 N           1.0698  -20.4571  -44.8936 N.am      10 UNK        -0.5000 
     25 C           0.4031  -21.2858  -44.0782 C.2       9 UNK         0.5000 
     26 O           0.1100  -22.4444  -44.3744 O.2       9 UNK        -0.5000 
     27 CA         -0.0565  -20.7088  -42.7267 C.3       9 UNK         0.1400 
     28 CB          1.0987  -20.6909  -41.7148 C.3       9 UNK        -0.1800 
     29 N          -0.6247  -19.3652  -42.8506 N.am      9 UNK        -0.5000 
     30 C          -1.7334  -19.0722  -43.5465 C.2       8 UNK         0.5000 
     31 O          -2.4192  -19.9120  -44.1303 O.2       8 UNK        -0.5000 
     32 CA         -2.1101  -17.5838  -43.6557 C.3       8 UNK         0.1400 
     33 CB         -2.7857  -17.0913  -42.3675 C.3       8 UNK        -0.1800 
     34 N          -0.9595  -16.7355  -43.9699 N.am      8 UNK        -0.5000 
     35 C          -0.2377  -16.8323  -45.0959 C.2       7 UNK         0.5000 
     36 O          -0.4926  -17.6151  -46.0075 O.2       7 UNK        -0.5000 
     37 CA          1.0114  -15.9486  -45.2070 C.3       7 UNK         0.1400 
     38 CB          0.6384  -14.5214  -45.6305 C.3       7 UNK        -0.1800 
     39 N           1.7781  -15.9171  -43.9676 N.am      7 UNK        -0.5000 
     40 C           2.3954  -16.9714  -43.4189 C.2       6 UNK         0.5000 
     41 O           2.4128  -18.0944  -43.9206 O.2       6 UNK        -0.5000 
     42 CA          3.0653  -16.7366  -42.0557 C.3       6 UNK         0.1400 
     43 CB          4.4361  -16.0636  -42.2258 C.3       6 UNK        -0.1800 
     44 N           2.2288  -15.9301  -41.1671 N.am      6 UNK        -0.5000 
     45 C           1.0560  -16.3314  -40.6571 C.2       5 UNK         0.5000 
     46 O           0.5601  -17.4394  -40.8648 O.2       5 UNK        -0.5000 
     47 CA          0.2974  -15.3046  -39.7973 C.3       5 UNK         0.1400 
     48 CB          0.8315  -15.3024  -38.3572 C.3       5 UNK        -0.1800 
     49 N           0.3704  -13.9485  -40.3459 N.am      5 UNK        -0.5000 
     50 C          -0.2349  -13.5640  -41.4778 C.2       4 UNK         0.5000 
     51 O          -0.9153  -14.3136  -42.1790 O.2       4 UNK        -0.5000 
     52 CA          0.0003  -12.1073  -41.9243 C.3       4 UNK         0.1400 
     53 CB         -0.8699  -11.1403  -41.1069 C.3       4 UNK        -0.1800 
     54 N           1.4035  -11.6769  -41.8623 N.am      4 UNK        -0.5000 
     55 C           2.4064  -12.2842  -42.5079 C.2       3 UNK         0.5000 
     56 O           2.2701  -13.3349  -43.1379 O.2       3 UNK        -0.5000 
     57 CA          3.7961  -11.6370  -42.4480 C.3       3 UNK         0.1400 
     58 CB          4.4917  -11.9376  -41.1090 C.3       3 UNK        -0.1800 
     59 N           4.5611  -12.2101  -43.5489 N.am      3 UNK        -0.5000 
     60 C           5.6403  -11.7009  -44.1475 C.2       2 UNK         0.5000 
     61 O           6.1890  -10.6516  -43.8113 O.2       2 UNK        -0.5000 
     62 CA          6.1594  -12.4943  -45.3550 C.3       2 UNK         0.1400 
     63 CB          6.8712  -13.7843  -44.9012 C.3       2 UNK        -0.1800 
     64 N           5.0486  -12.7944  -46.2615 N.am      2 UNK        -0.5000 
     65 C           5.1651  -13.1975  -47.5338 C.2       1 UNK         0.5000 
     66 O           6.2444  -13.4215  -48.0821 O.2       1 UNK        -0.5000 
     67 C          -2.7544  -21.6934  -47.4201 C.2       11 UNK         0.5000 
     68 O          -3.2236  -22.4126  -48.3022 O.2       11 UNK        -0.5000 
     69 N          -2.8040  -22.0037  -46.1173 N.am      12 UNK        -0.5000 
     70 CA         -3.3669  -23.2464  -45.5871 C.3       12 UNK         0.1400 
     71 CB         -3.3960  -23.1859  -44.0530 C.3       12 UNK        -0.1800 
     72 C          -2.6199  -24.5020  -46.0765 C.2       12 UNK         0.5000 
     73 O          -3.2604  -25.5154  -46.3546 O.2       12 UNK        -0.5000 
     74 N          -1.2897  -24.4042  -46.1887 N.am      13 UNK        -0.5000 
     75 CA         -0.4171  -25.4745  -46.6588 C.3       13 UNK         0.1400 
     76 CB          1.0129  -25.2202  -46.1532 C.3       13 UNK        -0.1800 
     77 C          -0.4429  -25.6404  -48.1897 C.2       13 UNK         0.5000 
     78 O          -0.7752  -26.7210  -48.6777 O.2       13 UNK        -0.5000 
     79 N          -0.0479  -24.5890  -48.9189 N.am      14 UNK        -0.5000 
     80 CA          0.2675  -24.6534  -50.3469 C.3       14 UNK         0.1400 
     81 CB          1.3485  -23.6108  -50.6714 C.3       14 UNK        -0.1800 
     82 C          -0.9543  -24.4544  -51.2552 C.2       14 UNK         0.5000 
     83 O          -1.0269  -25.0917  -52.3065 O.2       14 UNK        -0.5000 
     84 N          -1.8856  -23.5842  -50.8463 N.am      15 UNK        -0.5000 
     85 CA         -3.0914  -23.2566  -51.6113 C.3       15 UNK         0.1400 
     86 CB         -3.3118  -21.7355  -51.5838 C.3       15 UNK        -0.1800 
     87 C          -4.3368  -23.9909  -51.0897 C.2       15 UNK         0.5000 
     88 O          -5.4239  -23.7604  -51.6168 O.2       15 UNK        -0.5000 
     89 N          -4.1780  -24.8182  -50.0447 N.am      16 UNK        -0.5000 
     90 CA         -5.2325  -25.5453  -49.3284 C.3       16 UNK         0.1400 
     91 CB         -5.7837  -26.6929  -50.1984 C.3       16 UNK        -0.1800 
     92 C          -6.3337  -24.6093  -48.7806 C.2       16 UNK         0.5000 
     93 O          -7.5194  -24.9337  -48.8608 O.2       16 UNK        -0.5000 
     94 N          -5.9014  -23.4531  -48.2546 N.am      17 UNK        -0.5000 
     95 CA         -6.7098  -22.3326  -47.7681 C.3       17 UNK         0.1400 
     96 CB         -7.6106  -22.7486  -46.5860 C.3       17 UNK        -0.1800 
     97 C          -7.4661  -21.6351  -48.9164 C.2       17 UNK         0.5000 
     98 O          -8.6868  -21.4768  -48.8589 O.2       17 UNK        -0.5000 
     99 N          -6.6958  -21.2193  -49.9323 N.am      18 UNK        -0.5000 
    100 CA        -7.1091  -20.4449  -51.1077 C.3       18 UNK         0.1400 
    101 CB        -7.6144  -19.0453  -50.6967 C.3       18 UNK        -0.1800 
    102 C         -8.0936  -21.1901  -52.0331 C.2       18 UNK         0.5000 
    103 O         -9.0043  -20.5748  -52.5920 O.2       18 UNK        -0.5000 
    104 N         -7.8738  -22.4958  -52.2274 N.am      19 UNK        -0.5000 
    105 CA        -8.6248  -23.3465  -53.1500 C.3       19 UNK         0.1400 
    106 CB        -8.5353  -24.8045  -52.6671 C.3       19 UNK        -0.1800 
    107 C         -8.0976  -23.1612  -54.5877 C.2       19 UNK         0.5000 
    108 O         -7.4225  -24.0430  -55.1205 O.2       19 UNK        -0.5000 
    109 N         -8.3949  -21.9881  -55.1663 N.am      20 UNK        -0.5000 
    110 CA        -7.9275  -21.4894  -56.4672 C.3       20 UNK         0.1400 
    111 CB        -8.4033  -22.3911  -57.6265 C.3       20 UNK        -0.1800 
    112 C         -6.4078  -21.2093  -56.4890 C.2       20 UNK         0.5000 
    113 O         -5.7517  -21.4153  -57.5122 O.2       20 UNK        -0.5000 
    114 N         -5.8941  -20.7122  -55.3531 N.am      21 UNK        -0.5000 
    115 CA        -4.4986  -20.3505  -55.0806 C.3       21 UNK         0.1400 
    116 CB        -4.0563  -19.1721  -55.9773 C.3       21 UNK        -0.1800 
    117 C         -3.5312  -21.5560  -55.1322 C.2       21 UNK         0.5000 
    118 O         -3.9627  -22.7050  -55.0272 O.2       21 UNK        -0.5000 
    119 N         -2.2296  -21.2660  -55.2403 N.am      22 UNK        -0.5000 
    120 CA        -1.1344  -22.2529  -55.2598 C.3       22 UNK         0.1400 
    121 C         -0.9589  -22.9982  -56.6181 C.2       22 UNK         0.5000 
    122 N         -1.7079  -22.6745  -57.6653 N.am      22 UNK        -0.7600 
    123 O         -0.1273  -23.8954  -56.7245 O.2       22 UNK        -0.5000 
    124 C124        0.2062  -21.6221  -54.7946 C.3       23 UNK        -0.0398 
    125 S125        0.1498  -21.0235  -53.0714 S.3       23 UNK        -0.2404 
    126 C126       -0.0738  -19.2352  -53.3117 C.3       23 UNK        -0.0205 
    127 H127        4.6146  -10.2896  -47.8404 H         1 UNK         0.0600 
    128 H128        3.3743   -9.3205  -48.6282 H         1 UNK         0.0600 
    129 H129        4.0259  -10.7252  -49.4557 H         1 UNK         0.0600 
    130 H130        1.9880  -13.0610  -47.4375 H         1 UNK         0.3000 
    131 H131        4.0787  -13.0059  -49.3612 H         1 UNK         0.0600 
    132 H132        4.2989  -15.4335  -48.8507 H         1 UNK         0.0800 
    133 H133        3.2451  -15.2542  -47.4684 H         1 UNK         0.0800 
    134 H134        1.4104  -16.9619  -48.1349 H         1 UNK         0.0800 
    135 H135        2.5485  -17.4743  -49.3595 H         1 UNK         0.0800 
    136 H136        1.7463  -18.1930  -51.5722 H         1 UNK         0.1150 
    137 H137       -2.4761  -18.7066  -52.1260 H         1 UNK         0.1150 
    138 H138       -0.9962  -16.6761  -48.6513 H         1 UNK         0.1150 
    139 H139       -3.3658  -16.6144  -49.1564 H         1 UNK         0.0800 
    140 H140       -3.9426  -17.1568  -50.7092 H         1 UNK         0.0800 
    141 H141       -3.5941  -19.2482  -46.7357 H         1 UNK         0.0800 
    142 H142       -2.4022  -18.2522  -47.4938 H         1 UNK         0.0800 
    143 H143       -1.7618  -20.4602  -48.8570 H         1 UNK         0.0600 
    144 H144       -0.6955  -19.4071  -46.4756 H         1 UNK         0.3000 
    145 H145        2.0579  -21.7154  -46.2134 H         1 UNK         0.0600 
    146 H146        3.3144  -19.6212  -46.2451 H         1 UNK         0.0600 
    147 H147        2.6561  -19.8867  -47.8546 H         1 UNK         0.0600 
    148 H148        1.9018  -18.7182  -46.7746 H         1 UNK         0.0600 
    149 H149        1.3234  -19.5322  -44.5565 H         1 UNK         0.3000 
    150 H150       -0.8378  -21.3643  -42.3366 H         1 UNK         0.0600 
    151 H151        1.5258  -21.6869  -41.5919 H         1 UNK         0.0600 
    152 H152        0.7572  -20.3594  -40.7341 H         1 UNK         0.0600 
    153 H153        1.9020  -20.0248  -42.0302 H         1 UNK         0.0600 
    154 H154       -0.1328  -18.6169  -42.3726 H         1 UNK         0.3000 
    155 H155       -2.8275  -17.4845  -44.4729 H         1 UNK         0.0600 
    156 H156       -2.1055  -17.1234  -41.5162 H         1 UNK         0.0600 
    157 H157       -3.6517  -17.7067  -42.1205 H         1 UNK         0.0600 
    158 H158       -3.1365  -16.0648  -42.4755 H         1 UNK         0.0600 
    159 H159       -0.7085  -16.0327  -43.2822 H         1 UNK         0.3000 
    160 H160        1.6593  -16.3748  -45.9723 H         1 UNK         0.0600 
    161 H161       -0.0246  -14.0470  -44.9060 H         1 UNK         0.0600 
    162 H162        0.1303  -14.5206  -46.5958 H         1 UNK         0.0600 
    163 H163        1.5253  -13.8969  -45.7229 H         1 UNK         0.0600 
    164 H164        1.8456  -15.0124  -43.5044 H         1 UNK         0.3000 
    165 H165        3.2187  -17.7109  -41.5869 H         1 UNK         0.0600 
    166 H166        4.9443  -15.9564  -41.2674 H         1 UNK         0.0600 
    167 H167        5.0840  -16.6570  -42.8723 H         1 UNK         0.0600 
    168 H168        4.3494  -15.0727  -42.6707 H         1 UNK         0.0600 
    169 H169        2.5362  -14.9875  -40.9829 H         1 UNK         0.3000 
    170 H170       -0.7521  -15.6059  -39.7699 H         1 UNK         0.0600 
    171 H171        0.7742  -16.2997  -37.9189 H         1 UNK         0.0600 
    172 H172        1.8735  -14.9832  -38.3123 H         1 UNK         0.0600 
    173 H173        0.2482  -14.6356  -37.7219 H         1 UNK         0.0600 
    174 H174        0.9202  -13.2728  -39.8359 H         1 UNK         0.3000 
    175 H175       -0.3122  -12.0383  -42.9684 H         1 UNK         0.0600 
    176 H176       -0.5735  -11.1182  -40.0576 H         1 UNK         0.0600 
    177 H177       -0.8025  -10.1243  -41.4963 H         1 UNK         0.0600 
    178 H178       -1.9204  -11.4320  -41.1457 H         1 UNK         0.0600 
    179 H179        1.5915  -10.8257  -41.3525 H         1 UNK         0.3000 
    180 H180        3.6942  -10.5594  -42.5911 H         1 UNK         0.0600 
    181 H181        4.5999  -13.0103  -40.9439 H         1 UNK         0.0600 
    182 H182        3.9249  -11.5300  -40.2712 H         1 UNK         0.0600 
    183 H183        5.4864  -11.4932  -41.0724 H         1 UNK         0.0600 
    184 H184        4.1516  -13.0693  -43.8942 H         1 UNK         0.3000 
    185 H185        6.8777  -11.8619  -45.8812 H         1 UNK         0.0600 
    186 H186        7.6455  -13.5647  -44.1650 H         1 UNK         0.0600 
    187 H187        6.1761  -14.4910  -44.4470 H         1 UNK         0.0600 
    188 H188        7.3575  -14.2871  -45.7369 H         1 UNK         0.0600 
    189 H189        4.1252  -12.5735  -45.9155 H         1 UNK         0.3000 
    190 H190       -2.4385  -21.3419  -45.4377 H         1 UNK         0.3000 
    191 H191       -4.3981  -23.3199  -45.9339 H         1 UNK         0.0600 
    192 H192       -2.3947  -23.0923  -43.6330 H         1 UNK         0.0600 
    193 H193       -3.8445  -24.0881  -43.6354 H         1 UNK         0.0600 
    194 H194       -3.9851  -22.3378  -43.7037 H         1 UNK         0.0600 
    195 H195       -0.8402  -23.5457  -45.8897 H         1 UNK         0.3000 
    196 H196       -0.7571  -26.4148  -46.2193 H         1 UNK         0.0600 
    197 H197        1.6945  -25.9997  -46.4958 H         1 UNK         0.0600 
    198 H198        1.0472  -25.2137  -45.0636 H         1 UNK         0.0600 
    199 H199        1.4040  -24.2635  -46.5012 H         1 UNK         0.0600 
    200 H200        0.1506  -23.7025  -48.4557 H         1 UNK         0.3000 
    201 H201        0.6857  -25.6376  -50.5700 H         1 UNK         0.0600 
    202 H202        2.2447  -23.7704  -50.0719 H         1 UNK         0.0600 
    203 H203        0.9977  -22.5950  -50.4855 H         1 UNK         0.0600 
    204 H204        1.6427  -23.6666  -51.7203 H         1 UNK         0.0600 
    205 H205       -1.7779  -23.1215  -49.9527 H         1 UNK         0.3000 
    206 H206       -2.9693  -23.5525  -52.6542 H         1 UNK         0.0600 
    207 H207       -2.4646  -21.2053  -52.0109 H         1 UNK         0.0600 
    208 H208       -4.1892  -21.4590  -52.1658 H         1 UNK         0.0600 
    209 H209       -3.4613  -21.3606  -50.5753 H         1 UNK         0.0600 
    210 H210       -3.2464  -24.9066  -49.6649 H         1 UNK         0.3000 
    211 H211       -4.7591  -25.9989  -48.4580 H         1 UNK         0.0600 
    212 H212       -6.3009  -26.3193  -51.0808 H         1 UNK         0.0600 
    213 H213       -6.4915  -27.3045  -49.6379 H         1 UNK         0.0600 
    214 H214       -4.9824  -27.3510  -50.5341 H         1 UNK         0.0600 
    215 H215       -4.9008  -23.2719  -48.2925 H         1 UNK         0.3000 
    216 H216       -6.0016  -21.5969  -47.3836 H         1 UNK         0.0600 
    217 H217       -8.1002  -21.8777  -46.1491 H         1 UNK         0.0600 
    218 H218       -7.0301  -23.2248  -45.7960 H         1 UNK         0.0600 
    219 H219       -8.3955  -23.4411  -46.8903 H         1 UNK         0.0600 
    220 H220       -5.7104  -21.4333  -49.8833 H         1 UNK         0.3000 
    221 H221       -6.2054  -20.2937  -51.6982 H         1 UNK         0.0600 
    222 H222       -8.5606  -19.0975  -50.1575 H         1 UNK         0.0600 
    223 H223       -6.8941  -18.5342  -50.0588 H         1 UNK         0.0600 
    224 H224       -7.7727  -18.4140  -51.5718 H         1 UNK         0.0600 
    225 H225       -7.0506  -22.9261  -51.8087 H         1 UNK         0.3000 
    226 H226       -9.6779  -23.0578  -53.1343 H         1 UNK         0.0600 
    227 H227       -8.8935  -24.9050  -51.6421 H         1 UNK         0.0600 
    228 H228       -9.1417  -25.4600  -53.2929 H         1 UNK         0.0600 
    229 H229       -7.5111  -25.1753  -52.7002 H         1 UNK         0.0600 
    230 H230       -8.9288  -21.3284  -54.6108 H         1 UNK         0.3000 
    231 H231       -8.4069  -20.5187  -56.6014 H         1 UNK         0.0600 
    232 H232       -9.4774  -22.5687  -57.5738 H         1 UNK         0.0600 
    233 H233       -7.9013  -23.3588  -57.6240 H         1 UNK         0.0600 
    234 H234       -8.1998  -21.9239  -58.5907 H         1 UNK         0.0600 
    235 H235       -6.5267  -20.6175  -54.5737 H         1 UNK         0.3000 
    236 H236       -4.4825  -19.9952  -54.0497 H         1 UNK         0.0600 
    237 H237       -3.9128  -19.4806  -57.0134 H         1 UNK         0.0600 
    238 H238       -4.7986  -18.3738  -55.9694 H         1 UNK         0.0600 
    239 H239       -3.1206  -18.7331  -55.6301 H         1 UNK         0.0600 
    240 H240       -1.9540  -20.3020  -55.3433 H         1 UNK         0.3000 
    241 H241       -1.3859  -23.0338  -54.5393 H         1 UNK         0.0600 
    242 H242       -1.5847  -23.1693  -58.5348 H         1 UNK         0.3800 
    243 H243       -2.4170  -21.9628  -57.5902 H         1 UNK         0.3800 
    244 H244        0.5049  -20.8117  -55.4613 H         1 UNK         0.0800 
    245 H245        1.0097  -22.3593  -54.8401 H         1 UNK         0.0800 
    246 H246       -0.9034  -19.0530  -53.9948 H         1 UNK         0.0800 
    247 H247        0.8155  -18.8205  -53.7889 H         1 UNK         0.0800 
@<TRIPOS>BOND
     1    1    2 1    
     2    1  127 1    
     3    1  128 1    
     4    1  129 1    
     5    2    3 2    
     6    2    4 am   BACKBONE|DICT|INTERRES
     7    4    5 1    
     8    4  130 1    
     9    5    6 1    
    10    5   65 1    
    11    5  131 1    
    12    6    7 1    
    13    6  132 1    
    14    6  133 1    
    15    7    8 1    
    16    8    9 1    
    17    8  134 1    
    18    8  135 1    
    19    9   10 ar   
    20    9   14 ar   
    21   10   11 ar   
    22   10  136 1    
    23   11   12 ar   
    24   11  126 1    
    25   12   13 ar   
    26   12  137 1    
    27   13   14 ar   
    28   13   15 1    
    29   14  138 1    
    30   15   16 1    
    31   15  139 1    
    32   15  140 1    
    33   16   17 1    
    34   17   18 1    
    35   17  141 1    
    36   17  142 1    
    37   18   19 1    
    38   18   67 1    
    39   18  143 1    
    40   19   20 am   BACKBONE|DICT|INTERRES
    41   19  144 1    
    42   20   21 2    
    43   20   22 1    
    44   22   23 1    
    45   22   24 1    
    46   22  145 1    
    47   23  146 1    
    48   23  147 1    
    49   23  148 1    
    50   24   25 am   BACKBONE|DICT|INTERRES
    51   24  149 1    
    52   25   26 2    
    53   25   27 1    
    54   27   28 1    
    55   27   29 1    
    56   27  150 1    
    57   28  151 1    
    58   28  152 1    
    59   28  153 1    
    60   29   30 am   BACKBONE|DICT|INTERRES
    61   29  154 1    
    62   30   31 2    
    63   30   32 1    
    64   32   33 1    
    65   32   34 1    
    66   32  155 1    
    67   33  156 1    
    68   33  157 1    
    69   33  158 1    
    70   34   35 am   BACKBONE|DICT|INTERRES
    71   34  159 1    
    72   35   36 2    
    73   35   37 1    
    74   37   38 1    
    75   37   39 1    
    76   37  160 1    
    77   38  161 1    
    78   38  162 1    
    79   38  163 1    
    80   39   40 am   BACKBONE|DICT|INTERRES
    81   39  164 1    
    82   40   41 2    
    83   40   42 1    
    84   42   43 1    
    85   42   44 1    
    86   42  165 1    
    87   43  166 1    
    88   43  167 1    
    89   43  168 1    
    90   44   45 am   BACKBONE|DICT|INTERRES
    91   44  169 1    
    92   45   46 2    
    93   45   47 1    
    94   47   48 1    
    95   47   49 1    
    96   47  170 1    
    97   48  171 1    
    98   48  172 1    
    99   48  173 1    
   100   49   50 am   BACKBONE|DICT|INTERRES
   101   49  174 1    
   102   50   51 2    
   103   50   52 1    
   104   52   53 1    
   105   52   54 1    
   106   52  175 1    
   107   53  176 1    
   108   53  177 1    
   109   53  178 1    
   110   54   55 am   BACKBONE|DICT|INTERRES
   111   54  179 1    
   112   55   56 2    
   113   55   57 1    
   114   57   58 1    
   115   57   59 1    
   116   57  180 1    
   117   58  181 1    
   118   58  182 1    
   119   58  183 1    
   120   59   60 am   BACKBONE|DICT|INTERRES
   121   59  184 1    
   122   60   61 2    
   123   60   62 1    
   124   62   63 1    
   125   62   64 1    
   126   62  185 1    
   127   63  186 1    
   128   63  187 1    
   129   63  188 1    
   130   64   65 am   BACKBONE|DICT|INTERRES
   131   64  189 1    
   132   65   66 2    
   133   67   68 2    
   134   67   69 am   BACKBONE|DICT|INTERRES
   135   69   70 1    
   136   69  190 1    
   137   70   71 1    
   138   70   72 1    
   139   70  191 1    
   140   71  192 1    
   141   71  193 1    
   142   71  194 1    
   143   72   73 2    
   144   72   74 am   BACKBONE|DICT|INTERRES
   145   74   75 1    
   146   74  195 1    
   147   75   76 1    
   148   75   77 1    
   149   75  196 1    
   150   76  197 1    
   151   76  198 1    
   152   76  199 1    
   153   77   78 2    
   154   77   79 am   BACKBONE|DICT|INTERRES
   155   79   80 1    
   156   79  200 1    
   157   80   81 1    
   158   80   82 1    
   159   80  201 1    
   160   81  202 1    
   161   81  203 1    
   162   81  204 1    
   163   82   83 2    
   164   82   84 am   BACKBONE|DICT|INTERRES
   165   84   85 1    
   166   84  205 1    
   167   85   86 1    
   168   85   87 1    
   169   85  206 1    
   170   86  207 1    
   171   86  208 1    
   172   86  209 1    
   173   87   88 2    
   174   87   89 am   BACKBONE|DICT|INTERRES
   175   89   90 1    
   176   89  210 1    
   177   90   91 1    
   178   90   92 1    
   179   90  211 1    
   180   91  212 1    
   181   91  213 1    
   182   91  214 1    
   183   92   93 2    
   184   92   94 am   BACKBONE|DICT|INTERRES
   185   94   95 1    
   186   94  215 1    
   187   95   96 1    
   188   95   97 1    
   189   95  216 1    
   190   96  217 1    
   191   96  218 1    
   192   96  219 1    
   193   97   98 2    
   194   97   99 am   BACKBONE|DICT|INTERRES
   195   99  100 1    
   196   99  220 1    
   197  100  101 1    
   198  100  102 1    
   199  100  221 1    
   200  101  222 1    
   201  101  223 1    
   202  101  224 1    
   203  102  103 2    
   204  102  104 am   BACKBONE|DICT|INTERRES
   205  104  105 1    
   206  104  225 1    
   207  105  106 1    
   208  105  107 1    
   209  105  226 1    
   210  106  227 1    
   211  106  228 1    
   212  106  229 1    
   213  107  108 2    
   214  107  109 am   BACKBONE|DICT|INTERRES
   215  109  110 1    
   216  109  230 1    
   217  110  111 1    
   218  110  112 1    
   219  110  231 1    
   220  111  232 1    
   221  111  233 1    
   222  111  234 1    
   223  112  113 2    
   224  112  114 am   BACKBONE|DICT|INTERRES
   225  114  115 1    
   226  114  235 1    
   227  115  116 1    
   228  115  117 1    
   229  115  236 1    
   230  116  237 1    
   231  116  238 1    
   232  116  239 1    
   233  117  118 2    
   234  117  119 am   BACKBONE|DICT|INTERRES
   235  119  120 1    
   236  119  240 1    
   237  120  121 1    
   238  120  124 1    
   239  120  241 1    
   240  121  122 am   BACKBONE|DICT|INTERRES
   241  121  123 2    
   242  122  242 1    
   243  122  243 1    
   244  124  125 1    
   245  124  244 1    
   246  124  245 1    
   247  125  126 1    
   248  126  246 1    
   249  126  247 1    
@<TRIPOS>SUBSTRUCTURE
     1 UNK         1 GROUP             0       ****    0 ROOT    
