@<TRIPOS>MOLECULE
3R540
247   249    1
SMALL
USER_CHARGES


@<TRIPOS>ATOM
      1 CA         -2.8979  -12.9654  -46.2201 C.3       0 UNK        -0.1800 
      2 C          -1.8437  -12.5390  -47.2311 C.2       0 UNK         0.5000 
      3 O          -1.0677  -11.6231  -46.9569 O.2       0 UNK        -0.5000 
      4 N          -1.7970  -13.2073  -48.3928 N.am      1 UNK        -0.5000 
      5 CA         -0.8903  -12.9047  -49.5121 C.3       1 UNK         0.1400 
      6 C6         -1.2747  -13.6821  -50.7961 C.3       23 UNK        -0.0398 
      7 S7         -1.1267  -15.5007  -50.6595 S.3       23 UNK        -0.2404 
      8 C8          0.4190  -15.7695  -51.5818 C.3       23 UNK        -0.0205 
      9 C9          0.7495  -17.2468  -51.7020 C.ar      23 UNK        -0.0193 
     10 C10         0.4173  -17.9488  -52.8627 C.ar      23 UNK        -0.1150 
     11 C11         0.7357  -19.3040  -52.9908 C.ar      23 UNK        -0.0193 
     12 C12         1.3902  -19.9563  -51.9407 C.ar      23 UNK        -0.1150 
     13 C13         1.7447  -19.2622  -50.7779 C.ar      23 UNK        -0.0193 
     14 C14         1.4204  -17.9048  -50.6682 C.ar      23 UNK        -0.1150 
     15 C15         2.5292  -19.9792  -49.6802 C.3       23 UNK        -0.0205 
     16 S16         2.0006  -19.5643  -47.9836 S.3       23 UNK        -0.2404 
     17 C17         0.3276  -20.2809  -47.9440 C.3       23 UNK        -0.0398 
     18 CA          0.2782  -21.6446  -47.2148 C.3       11 UNK         0.1400 
     19 N           0.5575  -21.5538  -45.7772 N.am      11 UNK        -0.5000 
     20 C           0.6607  -22.6079  -44.9526 C.2       10 UNK         0.5000 
     21 O           0.6134  -23.7790  -45.3306 O.2       10 UNK        -0.5000 
     22 CA          0.7667  -22.3122  -43.4448 C.3       10 UNK         0.1400 
     23 CB          2.2072  -21.9639  -43.0420 C.3       10 UNK        -0.1800 
     24 N          -0.1494  -21.2525  -43.0183 N.am      10 UNK        -0.5000 
     25 C          -1.4863  -21.3545  -43.0598 C.2       9 UNK         0.5000 
     26 O          -2.0804  -22.3756  -43.4040 O.2       9 UNK        -0.5000 
     27 CA         -2.3007  -20.0979  -42.7036 C.3       9 UNK         0.1400 
     28 CB         -2.4515  -19.9584  -41.1818 C.3       9 UNK        -0.1800 
     29 N          -1.7234  -18.8752  -43.2623 N.am      9 UNK        -0.5000 
     30 C          -1.6069  -18.6215  -44.5738 C.2       8 UNK         0.5000 
     31 O          -2.0427  -19.3642  -45.4529 O.2       8 UNK        -0.5000 
     32 CA         -0.8187  -17.3611  -44.9752 C.3       8 UNK         0.1400 
     33 CB         -1.7083  -16.1121  -44.9373 C.3       8 UNK        -0.1800 
     34 N           0.3628  -17.1457  -44.1405 N.am      8 UNK        -0.5000 
     35 C           1.4049  -17.9865  -44.0776 C.2       7 UNK         0.5000 
     36 O           1.4848  -19.0210  -44.7358 O.2       7 UNK        -0.5000 
     37 CA          2.5104  -17.6497  -43.0645 C.3       7 UNK         0.1400 
     38 CB          3.4549  -16.5671  -43.6047 C.3       7 UNK        -0.1800 
     39 N           1.9513  -17.2253  -41.7831 N.am      7 UNK        -0.5000 
     40 C           1.3142  -18.0446  -40.9350 C.2       6 UNK         0.5000 
     41 O           1.1682  -19.2516  -41.1283 O.2       6 UNK        -0.5000 
     42 CA          0.7058  -17.3942  -39.6799 C.3       6 UNK         0.1400 
     43 CB          1.7612  -17.2610  -38.5720 C.3       6 UNK        -0.1800 
     44 N           0.1225  -16.0800  -39.9565 N.am      6 UNK        -0.5000 
     45 C          -0.9599  -15.8817  -40.7218 C.2       5 UNK         0.5000 
     46 O          -1.5900  -16.7878  -41.2642 O.2       5 UNK        -0.5000 
     47 CA         -1.3804  -14.4213  -40.9571 C.3       5 UNK         0.1400 
     48 CB         -2.2381  -13.9088  -39.7906 C.3       5 UNK        -0.1800 
     49 N          -0.2436  -13.5198  -41.1621 N.am      5 UNK        -0.5000 
     50 C           0.6013  -13.5948  -42.1974 C.2       4 UNK         0.5000 
     51 O           0.5546  -14.4731  -43.0632 O.2       4 UNK        -0.5000 
     52 CA          1.6861  -12.5180  -42.2824 C.3       4 UNK         0.1400 
     53 CB          3.0247  -13.0260  -41.7206 C.3       4 UNK        -0.1800 
     54 N           1.8234  -12.1557  -43.6857 N.am      4 UNK        -0.5000 
     55 C           2.2762  -10.9902  -44.1570 C.2       3 UNK         0.5000 
     56 O           2.7315  -10.1001  -43.4365 O.2       3 UNK        -0.5000 
     57 CA          2.1534  -10.7554  -45.6775 C.3       3 UNK         0.1400 
     58 CB          3.3311   -9.9431  -46.2565 C.3       3 UNK        -0.1800 
     59 N           1.8998  -11.9736  -46.4579 N.am      3 UNK        -0.5000 
     60 C           2.7473  -12.9833  -46.7169 C.2       2 UNK         0.5000 
     61 O           3.8982  -13.0370  -46.2834 O.2       2 UNK        -0.5000 
     62 CA          2.2279  -14.1418  -47.5994 C.3       2 UNK         0.1400 
     63 CB          2.1845  -15.4555  -46.8064 C.3       2 UNK        -0.1800 
     64 N           0.8967  -13.9039  -48.1551 N.am      2 UNK        -0.5000 
     65 C           0.6073  -13.0753  -49.1672 C.2       1 UNK         0.5000 
     66 O           1.4557  -12.4480  -49.8017 O.2       1 UNK        -0.5000 
     67 C          -1.0718  -22.3330  -47.4826 C.2       11 UNK         0.5000 
     68 O          -1.1204  -23.2579  -48.2907 O.2       11 UNK        -0.5000 
     69 N          -2.1324  -21.8979  -46.7868 N.am      12 UNK        -0.5000 
     70 CA         -3.4759  -22.4689  -46.8862 C.3       12 UNK         0.1400 
     71 CB         -4.4649  -21.6301  -46.0655 C.3       12 UNK        -0.1800 
     72 C          -3.5339  -23.9495  -46.4762 C.2       12 UNK         0.5000 
     73 O          -4.1951  -24.7312  -47.1578 O.2       12 UNK        -0.5000 
     74 N          -2.8159  -24.3197  -45.4081 N.am      13 UNK        -0.5000 
     75 CA         -2.6703  -25.7020  -44.9534 C.3       13 UNK         0.1400 
     76 CB         -1.9598  -25.7272  -43.5917 C.3       13 UNK        -0.1800 
     77 C          -1.9333  -26.5868  -45.9760 C.2       13 UNK         0.5000 
     78 O          -2.3865  -27.6983  -46.2504 O.2       13 UNK        -0.5000 
     79 N          -0.8319  -26.0707  -46.5395 N.am      14 UNK        -0.5000 
     80 CA         -0.0225  -26.7490  -47.5532 C.3       14 UNK         0.1400 
     81 CB          1.2994  -25.9892  -47.7428 C.3       14 UNK        -0.1800 
     82 C          -0.7532  -26.9118  -48.8991 C.2       14 UNK         0.5000 
     83 O          -0.6808  -27.9811  -49.5058 O.2       14 UNK        -0.5000 
     84 N          -1.4471  -25.8536  -49.3366 N.am      15 UNK        -0.5000 
     85 CA         -2.1866  -25.8015  -50.5986 C.3       15 UNK         0.1400 
     86 CB         -2.3562  -24.3297  -51.0087 C.3       15 UNK        -0.1800 
     87 C          -3.5607  -26.4957  -50.5419 C.2       15 UNK         0.5000 
     88 O          -4.1753  -26.6739  -51.5924 O.2       15 UNK        -0.5000 
     89 N          -4.0361  -26.8376  -49.3352 N.am      16 UNK        -0.5000 
     90 CA         -5.3665  -27.3753  -49.0272 C.3       16 UNK         0.1400 
     91 CB         -5.5651  -28.7736  -49.6489 C.3       16 UNK        -0.1800 
     92 C          -6.4794  -26.3713  -49.3962 C.2       16 UNK         0.5000 
     93 O          -7.4073  -26.6997  -50.1369 O.2       16 UNK        -0.5000 
     94 N          -6.3233  -25.1449  -48.8787 N.am      17 UNK        -0.5000 
     95 CA         -7.1797  -23.9626  -49.0313 C.3       17 UNK         0.1400 
     96 CB         -8.6147  -24.2412  -48.5385 C.3       17 UNK        -0.1800 
     97 C          -7.1541  -23.3199  -50.4351 C.2       17 UNK         0.5000 
     98 O          -7.9245  -22.3920  -50.6831 O.2       17 UNK        -0.5000 
     99 N          -6.2538  -23.7770  -51.3160 N.am      18 UNK        -0.5000 
    100 CA        -6.0746  -23.2629  -52.6782 C.3       18 UNK         0.1400 
    101 CB        -5.7228  -24.4365  -53.6083 C.3       18 UNK        -0.1800 
    102 C         -5.0199  -22.1378  -52.7711 C.2       18 UNK         0.5000 
    103 O         -4.6299  -21.7747  -53.8812 O.2       18 UNK        -0.5000 
    104 N         -4.5572  -21.6217  -51.6229 N.am      19 UNK        -0.5000 
    105 CA        -3.6043  -20.5140  -51.5248 C.3       19 UNK         0.1400 
    106 CB        -3.0915  -20.4185  -50.0801 C.3       19 UNK        -0.1800 
    107 C         -4.2083  -19.1706  -51.9817 C.2       19 UNK         0.5000 
    108 O         -5.4282  -18.9940  -51.9249 O.2       19 UNK        -0.5000 
    109 N         -3.3190  -18.2554  -52.3931 N.am      20 UNK        -0.5000 
    110 CA        -3.5631  -16.9689  -53.0580 C.3       20 UNK         0.1400 
    111 CB        -4.5335  -16.0684  -52.2683 C.3       20 UNK        -0.1800 
    112 C         -4.0019  -17.1448  -54.5251 C.2       20 UNK         0.5000 
    113 O         -4.5883  -18.1640  -54.8906 O.2       20 UNK        -0.5000 
    114 N         -3.6455  -16.1606  -55.3627 N.am      21 UNK        -0.5000 
    115 CA        -3.7888  -16.1063  -56.8295 C.3       21 UNK         0.1400 
    116 CB        -5.2605  -16.2410  -57.2678 C.3       21 UNK        -0.1800 
    117 C         -2.8748  -17.0830  -57.6063 C.2       21 UNK         0.5000 
    118 O         -2.5307  -16.7962  -58.7539 O.2       21 UNK        -0.5000 
    119 N         -2.4708  -18.1890  -56.9720 N.am      22 UNK        -0.5000 
    120 CA        -1.4162  -19.1171  -57.4014 C.3       22 UNK         0.1400 
    121 C         -0.0191  -18.4467  -57.5570 C.2       22 UNK         0.5000 
    122 N          0.8455  -18.9998  -58.3971 N.am      22 UNK        -0.7600 
    123 O          0.3046  -17.4572  -56.9030 O.2       22 UNK        -0.5000 
    124 C124       -1.3516  -20.3681  -56.4774 C.3       23 UNK        -0.0398 
    125 S125       -1.3488  -19.9988  -54.6845 S.3       23 UNK        -0.2404 
    126 C126        0.4264  -20.0387  -54.2886 C.3       23 UNK        -0.0205 
    127 H127       -3.6565  -12.1890  -46.1229 H         1 UNK         0.0600 
    128 H128       -2.4421  -13.1190  -45.2419 H         1 UNK         0.0600 
    129 H129       -3.3920  -13.8909  -46.5160 H         1 UNK         0.0600 
    130 H130       -2.4456  -13.9647  -48.5564 H         1 UNK         0.3000 
    131 H131       -1.0247  -11.8437  -49.7335 H         1 UNK         0.0600 
    132 H132       -0.6833  -13.3261  -51.6414 H         1 UNK         0.0800 
    133 H133       -2.3089  -13.4551  -51.0585 H         1 UNK         0.0800 
    134 H134        0.3321  -15.3256  -52.5748 H         1 UNK         0.0800 
    135 H135        1.2398  -15.2517  -51.0840 H         1 UNK         0.0800 
    136 H136       -0.0761  -17.4381  -53.6783 H         1 UNK         0.1150 
    137 H137        1.6529  -21.0000  -52.0421 H         1 UNK         0.1150 
    138 H138        1.6979  -17.3531  -49.7811 H         1 UNK         0.1150 
    139 H139        2.4667  -21.0612  -49.8068 H         1 UNK         0.0800 
    140 H140        3.5824  -19.7176  -49.7871 H         1 UNK         0.0800 
    141 H141       -0.0331  -20.3778  -48.9697 H         1 UNK         0.0800 
    142 H142       -0.3368  -19.5622  -47.4644 H         1 UNK         0.0800 
    143 H143        1.0489  -22.2845  -47.6500 H         1 UNK         0.0600 
    144 H144        0.6816  -20.6195  -45.3949 H         1 UNK         0.3000 
    145 H145        0.4852  -23.2228  -42.9118 H         1 UNK         0.0600 
    146 H146        2.2875  -21.8028  -41.9669 H         1 UNK         0.0600 
    147 H147        2.8889  -22.7745  -43.3018 H         1 UNK         0.0600 
    148 H148        2.5654  -21.0648  -43.5417 H         1 UNK         0.0600 
    149 H149        0.2695  -20.3904  -42.6889 H         1 UNK         0.3000 
    150 H150       -3.2982  -20.2182  -43.1305 H         1 UNK         0.0600 
    151 H151       -2.8909  -20.8579  -40.7488 H         1 UNK         0.0600 
    152 H152       -3.1033  -19.1230  -40.9260 H         1 UNK         0.0600 
    153 H153       -1.4906  -19.7944  -40.6941 H         1 UNK         0.0600 
    154 H154       -1.4006  -18.1791  -42.5964 H         1 UNK         0.3000 
    155 H155       -0.4753  -17.4990  -46.0026 H         1 UNK         0.0600 
    156 H156       -2.5786  -16.2322  -45.5833 H         1 UNK         0.0600 
    157 H157       -1.1607  -15.2356  -45.2827 H         1 UNK         0.0600 
    158 H158       -2.0699  -15.9051  -43.9298 H         1 UNK         0.0600 
    159 H159        0.3840  -16.2907  -43.5912 H         1 UNK         0.3000 
    160 H160        3.0983  -18.5547  -42.8964 H         1 UNK         0.0600 
    161 H161        2.9244  -15.6442  -43.8392 H         1 UNK         0.0600 
    162 H162        3.9463  -16.9064  -44.5169 H         1 UNK         0.0600 
    163 H163        4.2387  -16.3312  -42.8850 H         1 UNK         0.0600 
    164 H164        1.9878  -16.2400  -41.5714 H         1 UNK         0.3000 
    165 H165       -0.0890  -18.0497  -39.3175 H         1 UNK         0.0600 
    166 H166        1.3215  -16.8715  -37.6536 H         1 UNK         0.0600 
    167 H167        2.2012  -18.2305  -38.3345 H         1 UNK         0.0600 
    168 H168        2.5734  -16.5945  -38.8650 H         1 UNK         0.0600 
    169 H169        0.5821  -15.2780  -39.5513 H         1 UNK         0.3000 
    170 H170       -1.9913  -14.3978  -41.8621 H         1 UNK         0.0600 
    171 H171       -3.1016  -14.5553  -39.6280 H         1 UNK         0.0600 
    172 H172       -1.6735  -13.8741  -38.8581 H         1 UNK         0.0600 
    173 H173       -2.6179  -12.9068  -39.9910 H         1 UNK         0.0600 
    174 H174       -0.1353  -12.7729  -40.4910 H         1 UNK         0.3000 
    175 H175        1.3607  -11.6440  -41.7141 H         1 UNK         0.0600 
    176 H176        3.4067  -13.8720  -42.2912 H         1 UNK         0.0600 
    177 H177        3.7828  -12.2431  -41.7422 H         1 UNK         0.0600 
    178 H178        2.9190  -13.3464  -40.6835 H         1 UNK         0.0600 
    179 H179        1.4419  -12.8350  -44.3310 H         1 UNK         0.3000 
    180 H180        1.2566  -10.1469  -45.8022 H         1 UNK         0.0600 
    181 H181        4.2890  -10.4342  -46.0841 H         1 UNK         0.0600 
    182 H182        3.3873   -8.9557  -45.7971 H         1 UNK         0.0600 
    183 H183        3.2172   -9.7932  -47.3301 H         1 UNK         0.0600 
    184 H184        0.9603  -12.0362  -46.8363 H         1 UNK         0.3000 
    185 H185        2.9301  -14.2639  -48.4266 H         1 UNK         0.0600 
    186 H186        1.5411  -15.3679  -45.9310 H         1 UNK         0.0600 
    187 H187        1.8147  -16.2806  -47.4156 H         1 UNK         0.0600 
    188 H188        3.1806  -15.7322  -46.4617 H         1 UNK         0.0600 
    189 H189        0.1284  -14.3798  -47.7060 H         1 UNK         0.3000 
    190 H190       -2.0228  -21.0999  -46.1651 H         1 UNK         0.3000 
    191 H191       -3.7798  -22.4144  -47.9329 H         1 UNK         0.0600 
    192 H192       -4.2052  -21.6237  -45.0070 H         1 UNK         0.0600 
    193 H193       -5.4785  -22.0232  -46.1534 H         1 UNK         0.0600 
    194 H194       -4.4850  -20.5963  -46.4110 H         1 UNK         0.0600 
    195 H195       -2.3467  -23.6044  -44.8591 H         1 UNK         0.3000 
    196 H196       -3.6721  -26.1152  -44.8186 H         1 UNK         0.0600 
    197 H197       -1.8553  -26.7486  -43.2239 H         1 UNK         0.0600 
    198 H198       -2.5227  -25.1679  -42.8442 H         1 UNK         0.0600 
    199 H199       -0.9609  -25.2942  -43.6491 H         1 UNK         0.0600 
    200 H200       -0.5063  -25.1576  -46.2353 H         1 UNK         0.3000 
    201 H201        0.2133  -27.7482  -47.1811 H         1 UNK         0.0600 
    202 H202        1.8650  -25.9458  -46.8119 H         1 UNK         0.0600 
    203 H203        1.1309  -24.9650  -48.0778 H         1 UNK         0.0600 
    204 H204        1.9305  -26.4795  -48.4850 H         1 UNK         0.0600 
    205 H205       -1.4083  -24.9865  -48.8031 H         1 UNK         0.3000 
    206 H206       -1.5976  -26.3025  -51.3694 H         1 UNK         0.0600 
    207 H207       -1.3943  -23.8197  -51.0650 H         1 UNK         0.0600 
    208 H208       -2.8216  -24.2452  -51.9906 H         1 UNK         0.0600 
    209 H209       -2.9811  -23.7874  -50.2983 H         1 UNK         0.0600 
    210 H210       -3.4670  -26.6050  -48.5319 H         1 UNK         0.3000 
    211 H211       -5.4040  -27.4920  -47.9430 H         1 UNK         0.0600 
    212 H212       -5.5900  -28.7395  -50.7383 H         1 UNK         0.0600 
    213 H213       -6.5053  -29.2149  -49.3167 H         1 UNK         0.0600 
    214 H214       -4.7651  -29.4522  -49.3529 H         1 UNK         0.0600 
    215 H215       -5.5094  -25.0043  -48.2787 H         1 UNK         0.3000 
    216 H216       -6.7526  -23.2137  -48.3629 H         1 UNK         0.0600 
    217 H217       -9.1961  -23.3201  -48.4857 H         1 UNK         0.0600 
    218 H218       -8.6113  -24.6774  -47.5396 H         1 UNK         0.0600 
    219 H219       -9.1479  -24.9223  -49.2019 H         1 UNK         0.0600 
    220 H220       -5.6707  -24.5573  -51.0484 H         1 UNK         0.3000 
    221 H221       -7.0178  -22.8404  -53.0305 H         1 UNK         0.0600 
    222 H222       -4.7277  -24.8297  -53.4032 H         1 UNK         0.0600 
    223 H223       -6.4359  -25.2545  -53.5033 H         1 UNK         0.0600 
    224 H224       -5.7394  -24.1256  -54.6535 H         1 UNK         0.0600 
    225 H225       -4.9665  -21.9463  -50.7618 H         1 UNK         0.3000 
    226 H226       -2.7563  -20.7478  -52.1710 H         1 UNK         0.0600 
    227 H227       -2.5811  -21.3361  -49.7928 H         1 UNK         0.0600 
    228 H228       -2.3744  -19.6040  -49.9684 H         1 UNK         0.0600 
    229 H229       -3.9023  -20.2416  -49.3724 H         1 UNK         0.0600 
    230 H230       -2.3470  -18.5316  -52.3861 H         1 UNK         0.3000 
    231 H231       -2.5921  -16.4725  -53.0739 H         1 UNK         0.0600 
    232 H232       -4.2454  -16.0005  -51.2192 H         1 UNK         0.0600 
    233 H233       -5.5601  -16.4320  -52.3142 H         1 UNK         0.0600 
    234 H234       -4.5339  -15.0550  -52.6706 H         1 UNK         0.0600 
    235 H235       -3.1465  -15.3745  -54.9696 H         1 UNK         0.3000 
    236 H236       -3.4617  -15.1041  -57.1107 H         1 UNK         0.0600 
    237 H237       -5.3649  -16.0428  -58.3351 H         1 UNK         0.0600 
    238 H238       -5.6529  -17.2418  -57.0873 H         1 UNK         0.0600 
    239 H239       -5.8965  -15.5293  -56.7415 H         1 UNK         0.0600 
    240 H240       -2.8542  -18.3649  -56.0520 H         1 UNK         0.3000 
    241 H241       -1.7045  -19.4608  -58.3965 H         1 UNK         0.0600 
    242 H242        1.7583  -18.5840  -58.5009 H         1 UNK         0.3800 
    243 H243        0.6097  -19.8124  -58.9460 H         1 UNK         0.3800 
    244 H244       -2.2313  -20.9848  -56.6660 H         1 UNK         0.0800 
    245 H245       -0.4997  -21.0037  -56.7253 H         1 UNK         0.0800 
    246 H246        0.9987  -19.5703  -55.0892 H         1 UNK         0.0800 
    247 H247        0.7540  -21.0782  -54.2398 H         1 UNK         0.0800 
@<TRIPOS>BOND
     1    1    2 1    
     2    1  127 1    
     3    1  128 1    
     4    1  129 1    
     5    2    3 2    
     6    2    4 am   BACKBONE|DICT|INTERRES
     7    4    5 1    
     8    4  130 1    
     9    5    6 1    
    10    5   65 1    
    11    5  131 1    
    12    6    7 1    
    13    6  132 1    
    14    6  133 1    
    15    7    8 1    
    16    8    9 1    
    17    8  134 1    
    18    8  135 1    
    19    9   10 ar   
    20    9   14 ar   
    21   10   11 ar   
    22   10  136 1    
    23   11   12 ar   
    24   11  126 1    
    25   12   13 ar   
    26   12  137 1    
    27   13   14 ar   
    28   13   15 1    
    29   14  138 1    
    30   15   16 1    
    31   15  139 1    
    32   15  140 1    
    33   16   17 1    
    34   17   18 1    
    35   17  141 1    
    36   17  142 1    
    37   18   19 1    
    38   18   67 1    
    39   18  143 1    
    40   19   20 am   BACKBONE|DICT|INTERRES
    41   19  144 1    
    42   20   21 2    
    43   20   22 1    
    44   22   23 1    
    45   22   24 1    
    46   22  145 1    
    47   23  146 1    
    48   23  147 1    
    49   23  148 1    
    50   24   25 am   BACKBONE|DICT|INTERRES
    51   24  149 1    
    52   25   26 2    
    53   25   27 1    
    54   27   28 1    
    55   27   29 1    
    56   27  150 1    
    57   28  151 1    
    58   28  152 1    
    59   28  153 1    
    60   29   30 am   BACKBONE|DICT|INTERRES
    61   29  154 1    
    62   30   31 2    
    63   30   32 1    
    64   32   33 1    
    65   32   34 1    
    66   32  155 1    
    67   33  156 1    
    68   33  157 1    
    69   33  158 1    
    70   34   35 am   BACKBONE|DICT|INTERRES
    71   34  159 1    
    72   35   36 2    
    73   35   37 1    
    74   37   38 1    
    75   37   39 1    
    76   37  160 1    
    77   38  161 1    
    78   38  162 1    
    79   38  163 1    
    80   39   40 am   BACKBONE|DICT|INTERRES
    81   39  164 1    
    82   40   41 2    
    83   40   42 1    
    84   42   43 1    
    85   42   44 1    
    86   42  165 1    
    87   43  166 1    
    88   43  167 1    
    89   43  168 1    
    90   44   45 am   BACKBONE|DICT|INTERRES
    91   44  169 1    
    92   45   46 2    
    93   45   47 1    
    94   47   48 1    
    95   47   49 1    
    96   47  170 1    
    97   48  171 1    
    98   48  172 1    
    99   48  173 1    
   100   49   50 am   BACKBONE|DICT|INTERRES
   101   49  174 1    
   102   50   51 2    
   103   50   52 1    
   104   52   53 1    
   105   52   54 1    
   106   52  175 1    
   107   53  176 1    
   108   53  177 1    
   109   53  178 1    
   110   54   55 am   BACKBONE|DICT|INTERRES
   111   54  179 1    
   112   55   56 2    
   113   55   57 1    
   114   57   58 1    
   115   57   59 1    
   116   57  180 1    
   117   58  181 1    
   118   58  182 1    
   119   58  183 1    
   120   59   60 am   BACKBONE|DICT|INTERRES
   121   59  184 1    
   122   60   61 2    
   123   60   62 1    
   124   62   63 1    
   125   62   64 1    
   126   62  185 1    
   127   63  186 1    
   128   63  187 1    
   129   63  188 1    
   130   64   65 am   BACKBONE|DICT|INTERRES
   131   64  189 1    
   132   65   66 2    
   133   67   68 2    
   134   67   69 am   BACKBONE|DICT|INTERRES
   135   69   70 1    
   136   69  190 1    
   137   70   71 1    
   138   70   72 1    
   139   70  191 1    
   140   71  192 1    
   141   71  193 1    
   142   71  194 1    
   143   72   73 2    
   144   72   74 am   BACKBONE|DICT|INTERRES
   145   74   75 1    
   146   74  195 1    
   147   75   76 1    
   148   75   77 1    
   149   75  196 1    
   150   76  197 1    
   151   76  198 1    
   152   76  199 1    
   153   77   78 2    
   154   77   79 am   BACKBONE|DICT|INTERRES
   155   79   80 1    
   156   79  200 1    
   157   80   81 1    
   158   80   82 1    
   159   80  201 1    
   160   81  202 1    
   161   81  203 1    
   162   81  204 1    
   163   82   83 2    
   164   82   84 am   BACKBONE|DICT|INTERRES
   165   84   85 1    
   166   84  205 1    
   167   85   86 1    
   168   85   87 1    
   169   85  206 1    
   170   86  207 1    
   171   86  208 1    
   172   86  209 1    
   173   87   88 2    
   174   87   89 am   BACKBONE|DICT|INTERRES
   175   89   90 1    
   176   89  210 1    
   177   90   91 1    
   178   90   92 1    
   179   90  211 1    
   180   91  212 1    
   181   91  213 1    
   182   91  214 1    
   183   92   93 2    
   184   92   94 am   BACKBONE|DICT|INTERRES
   185   94   95 1    
   186   94  215 1    
   187   95   96 1    
   188   95   97 1    
   189   95  216 1    
   190   96  217 1    
   191   96  218 1    
   192   96  219 1    
   193   97   98 2    
   194   97   99 am   BACKBONE|DICT|INTERRES
   195   99  100 1    
   196   99  220 1    
   197  100  101 1    
   198  100  102 1    
   199  100  221 1    
   200  101  222 1    
   201  101  223 1    
   202  101  224 1    
   203  102  103 2    
   204  102  104 am   BACKBONE|DICT|INTERRES
   205  104  105 1    
   206  104  225 1    
   207  105  106 1    
   208  105  107 1    
   209  105  226 1    
   210  106  227 1    
   211  106  228 1    
   212  106  229 1    
   213  107  108 2    
   214  107  109 am   BACKBONE|DICT|INTERRES
   215  109  110 1    
   216  109  230 1    
   217  110  111 1    
   218  110  112 1    
   219  110  231 1    
   220  111  232 1    
   221  111  233 1    
   222  111  234 1    
   223  112  113 2    
   224  112  114 am   BACKBONE|DICT|INTERRES
   225  114  115 1    
   226  114  235 1    
   227  115  116 1    
   228  115  117 1    
   229  115  236 1    
   230  116  237 1    
   231  116  238 1    
   232  116  239 1    
   233  117  118 2    
   234  117  119 am   BACKBONE|DICT|INTERRES
   235  119  120 1    
   236  119  240 1    
   237  120  121 1    
   238  120  124 1    
   239  120  241 1    
   240  121  122 am   BACKBONE|DICT|INTERRES
   241  121  123 2    
   242  122  242 1    
   243  122  243 1    
   244  124  125 1    
   245  124  244 1    
   246  124  245 1    
   247  125  126 1    
   248  126  246 1    
   249  126  247 1    
@<TRIPOS>SUBSTRUCTURE
     1 UNK         1 GROUP             0       ****    0 ROOT    
