@<TRIPOS>MOLECULE
3R540
247   249    1
SMALL
USER_CHARGES


@<TRIPOS>ATOM
      1 CA         -3.0356  -16.0772  -44.4147 C.3       0 UNK        -0.1800 
      2 C          -1.8823  -15.1604  -44.7962 C.2       0 UNK         0.5000 
      3 O          -2.1180  -14.0523  -45.2776 O.2       0 UNK        -0.5000 
      4 N          -0.6377  -15.5962  -44.5613 N.am      1 UNK        -0.5000 
      5 CA          0.5948  -14.8534  -44.8702 C.3       1 UNK         0.1400 
      6 C6          1.8128  -15.7842  -45.1033 C.3       23 UNK        -0.0398 
      7 S7          1.4945  -17.1013  -46.3193 S.3       23 UNK        -0.2404 
      8 C8          2.0061  -16.3229  -47.8745 C.3       23 UNK        -0.0205 
      9 C9          1.4932  -17.1219  -49.0624 C.ar      23 UNK        -0.0193 
     10 C10         0.3906  -16.6700  -49.7926 C.ar      23 UNK        -0.1150 
     11 C11        -0.0710  -17.3865  -50.9007 C.ar      23 UNK        -0.0193 
     12 C12         0.5624  -18.5797  -51.2621 C.ar      23 UNK        -0.1150 
     13 C13         1.6653  -19.0439  -50.5369 C.ar      23 UNK        -0.0193 
     14 C14         2.1275  -18.3082  -49.4413 C.ar      23 UNK        -0.1150 
     15 C15         2.3940  -20.3106  -50.9619 C.3       23 UNK        -0.0205 
     16 S16         2.1449  -21.6846  -49.7938 S.3       23 UNK        -0.2404 
     17 C17         0.4295  -22.1830  -50.1618 C.3       23 UNK        -0.0398 
     18 CA         -0.4090  -22.4091  -48.8828 C.3       11 UNK         0.1400 
     19 N          -0.4575  -21.2172  -48.0210 N.am      11 UNK        -0.5000 
     20 C          -1.0310  -21.1553  -46.8115 C.2       10 UNK         0.5000 
     21 O          -1.6480  -22.0929  -46.2963 O.2       10 UNK        -0.5000 
     22 CA         -0.9368  -19.8130  -46.0784 C.3       10 UNK         0.1400 
     23 CB         -1.7464  -18.7214  -46.8028 C.3       10 UNK        -0.1800 
     24 N          -1.4319  -19.9881  -44.7171 N.am      10 UNK        -0.5000 
     25 C          -1.0249  -19.3064  -43.6434 C.2       9 UNK         0.5000 
     26 O          -0.2477  -18.3507  -43.6970 O.2       9 UNK        -0.5000 
     27 CA         -1.5824  -19.7807  -42.2857 C.3       9 UNK         0.1400 
     28 CB         -1.3158  -21.2809  -42.0591 C.3       9 UNK        -0.1800 
     29 N          -0.9718  -19.0381  -41.1853 N.am      9 UNK        -0.5000 
     30 C          -1.4119  -17.8767  -40.6840 C.2       8 UNK         0.5000 
     31 O          -2.4661  -17.3353  -41.0192 O.2       8 UNK        -0.5000 
     32 CA         -0.5085  -17.2071  -39.6288 C.3       8 UNK         0.1400 
     33 CB         -0.8953  -17.6689  -38.2154 C.3       8 UNK        -0.1800 
     34 N           0.9109  -17.4959  -39.8605 N.am      8 UNK        -0.5000 
     35 C           1.6457  -16.8794  -40.7940 C.2       7 UNK         0.5000 
     36 O           1.2457  -15.9204  -41.4562 O.2       7 UNK        -0.5000 
     37 CA          3.0494  -17.4415  -41.0531 C.3       7 UNK         0.1400 
     38 CB          2.9619  -18.7029  -41.9363 C.3       7 UNK        -0.1800 
     39 N           3.8353  -16.4067  -41.7175 N.am      7 UNK        -0.5000 
     40 C           5.1567  -16.4163  -41.9243 C.2       6 UNK         0.5000 
     41 O           5.9026  -17.3249  -41.5564 O.2       6 UNK        -0.5000 
     42 CA          5.7498  -15.2016  -42.6624 C.3       6 UNK         0.1400 
     43 CB          5.7842  -15.4518  -44.1777 C.3       6 UNK        -0.1800 
     44 N           5.0131  -13.9645  -42.3977 N.am      6 UNK        -0.5000 
     45 C           5.1488  -13.2286  -41.2851 C.2       5 UNK         0.5000 
     46 O           5.8953  -13.5380  -40.3544 O.2       5 UNK        -0.5000 
     47 CA          4.3053  -11.9389  -41.1991 C.3       5 UNK         0.1400 
     48 CB          4.9455  -10.8519  -40.3111 C.3       5 UNK        -0.1800 
     49 N           3.9389  -11.4049  -42.5146 N.am      5 UNK        -0.5000 
     50 C           4.7358  -10.8873  -43.4620 C.2       4 UNK         0.5000 
     51 O           5.9486  -10.7206  -43.3316 O.2       4 UNK        -0.5000 
     52 CA          4.0597  -10.5163  -44.7977 C.3       4 UNK         0.1400 
     53 CB          4.3793  -11.5751  -45.8662 C.3       4 UNK        -0.1800 
     54 N           2.6041  -10.4103  -44.6633 N.am      4 UNK        -0.5000 
     55 C           1.9447   -9.2866  -44.3469 C.2       3 UNK         0.5000 
     56 O           2.4831   -8.1843  -44.2362 O.2       3 UNK        -0.5000 
     57 CA          0.4301   -9.4217  -44.0847 C.3       3 UNK         0.1400 
     58 CB         -0.3610   -9.2582  -45.3916 C.3       3 UNK        -0.1800 
     59 N           0.0715  -10.6995  -43.4632 N.am      3 UNK        -0.5000 
     60 C           0.4157  -11.0703  -42.2211 C.2       2 UNK         0.5000 
     61 O           1.0007  -10.3341  -41.4273 O.2       2 UNK        -0.5000 
     62 CA          0.1011  -12.5211  -41.8060 C.3       2 UNK         0.1400 
     63 CB         -1.1827  -12.5805  -40.9649 C.3       2 UNK        -0.1800 
     64 N          -0.0266  -13.4535  -42.9270 N.am      2 UNK        -0.5000 
     65 C           0.9266  -13.7711  -43.8146 C.2       1 UNK         0.5000 
     66 O           2.0389  -13.2394  -43.8193 O.2       1 UNK        -0.5000 
     67 C          -1.8018  -22.9680  -49.2490 C.2       11 UNK         0.5000 
     68 O          -1.9186  -24.1601  -49.5288 O.2       11 UNK        -0.5000 
     69 N          -2.8425  -22.1269  -49.1725 N.am      12 UNK        -0.5000 
     70 CA         -4.2494  -22.5046  -49.3090 C.3       12 UNK         0.1400 
     71 CB         -5.1084  -21.2343  -49.2073 C.3       12 UNK        -0.1800 
     72 C          -4.7282  -23.5588  -48.2875 C.2       12 UNK         0.5000 
     73 O          -5.6728  -24.2926  -48.5767 O.2       12 UNK        -0.5000 
     74 N          -4.0669  -23.6347  -47.1237 N.am      13 UNK        -0.5000 
     75 CA         -4.3100  -24.6622  -46.1118 C.3       13 UNK         0.1400 
     76 CB         -3.8458  -24.1342  -44.7446 C.3       13 UNK        -0.1800 
     77 C          -3.6099  -25.9976  -46.4376 C.2       13 UNK         0.5000 
     78 O          -3.9924  -27.0232  -45.8726 O.2       13 UNK        -0.5000 
     79 N          -2.5921  -25.9713  -47.3109 N.am      14 UNK        -0.5000 
     80 CA         -1.7756  -27.1326  -47.6595 C.3       14 UNK         0.1400 
     81 CB         -0.3417  -26.6782  -47.9787 C.3       14 UNK        -0.1800 
     82 C          -2.3619  -27.9370  -48.8311 C.2       14 UNK         0.5000 
     83 O          -2.2471  -29.1639  -48.8219 O.2       14 UNK        -0.5000 
     84 N          -2.9727  -27.2600  -49.8138 N.am      15 UNK        -0.5000 
     85 CA         -3.5433  -27.8923  -51.0016 C.3       15 UNK         0.1400 
     86 CB         -2.4328  -28.1681  -52.0330 C.3       15 UNK        -0.1800 
     87 C          -4.6324  -27.0095  -51.6204 C.2       15 UNK         0.5000 
     88 O          -4.5137  -25.7828  -51.6058 O.2       15 UNK        -0.5000 
     89 N          -5.6406  -27.6550  -52.2217 N.am      16 UNK        -0.5000 
     90 CA         -6.7309  -27.0028  -52.9524 C.3       16 UNK         0.1400 
     91 CB         -7.8329  -28.0310  -53.2471 C.3       16 UNK        -0.1800 
     92 C          -6.2606  -26.3270  -54.2545 C.2       16 UNK         0.5000 
     93 O          -6.7994  -25.2857  -54.6278 O.2       16 UNK        -0.5000 
     94 N          -5.2361  -26.9016  -54.9016 N.am      17 UNK        -0.5000 
     95 CA         -4.5798  -26.3283  -56.0795 C.3       17 UNK         0.1400 
     96 CB         -3.6251  -27.3671  -56.6868 C.3       17 UNK        -0.1800 
     97 C          -3.8281  -25.0257  -55.7489 C.2       17 UNK         0.5000 
     98 O          -3.8538  -24.0837  -56.5414 O.2       17 UNK        -0.5000 
     99 N          -3.2110  -24.9823  -54.5600 N.am      18 UNK        -0.5000 
    100 CA        -2.5711  -23.7884  -54.0152 C.3       18 UNK         0.1400 
    101 CB        -1.6301  -24.1791  -52.8705 C.3       18 UNK        -0.1800 
    102 C         -3.6031  -22.7437  -53.5593 C.2       18 UNK         0.5000 
    103 O         -3.3706  -21.5531  -53.7552 O.2       18 UNK        -0.5000 
    104 N         -4.7431  -23.1936  -53.0135 N.am      19 UNK        -0.5000 
    105 CA        -5.8793  -22.3398  -52.6557 C.3       19 UNK         0.1400 
    106 CB        -6.9376  -23.1503  -51.8913 C.3       19 UNK        -0.1800 
    107 C         -6.5050  -21.6480  -53.8771 C.2       19 UNK         0.5000 
    108 O         -6.8060  -20.4571  -53.8065 O.2       19 UNK        -0.5000 
    109 N         -6.6426  -22.3883  -54.9853 N.am      20 UNK        -0.5000 
    110 CA        -7.1173  -21.8772  -56.2720 C.3       20 UNK         0.1400 
    111 CB        -7.3187  -23.0516  -57.2417 C.3       20 UNK        -0.1800 
    112 C         -6.1827  -20.8148  -56.8848 C.2       20 UNK         0.5000 
    113 O         -6.6682  -19.8798  -57.5227 O.2       20 UNK        -0.5000 
    114 N         -4.8688  -20.9661  -56.6686 N.am      21 UNK        -0.5000 
    115 CA        -3.8489  -20.0030  -57.0802 C.3       21 UNK         0.1400 
    116 CB        -2.4797  -20.6999  -57.1315 C.3       21 UNK        -0.1800 
    117 C         -3.8083  -18.7697  -56.1573 C.2       21 UNK         0.5000 
    118 O         -3.7665  -17.6423  -56.6524 O.2       21 UNK        -0.5000 
    119 N         -3.8075  -19.0069  -54.8392 N.am      22 UNK        -0.5000 
    120 CA        -3.7543  -17.9769  -53.7918 C.3       22 UNK         0.1400 
    121 C         -5.0570  -17.1327  -53.6670 C.2       22 UNK         0.5000 
    122 N         -6.2386  -17.7142  -53.8254 N.am      22 UNK        -0.7600 
    123 O         -4.9958  -15.9248  -53.4521 O.2       22 UNK        -0.5000 
    124 C124       -3.3034  -18.6009  -52.4411 C.3       23 UNK        -0.0398 
    125 S125       -2.8421  -17.3910  -51.1533 S.3       23 UNK        -0.2404 
    126 C126       -1.2120  -16.8309  -51.7385 C.3       23 UNK        -0.0205 
    127 H127       -3.5511  -16.4269  -45.3091 H         1 UNK         0.0600 
    128 H128       -3.7531  -15.5405  -43.7939 H         1 UNK         0.0600 
    129 H129       -2.6937  -16.9454  -43.8535 H         1 UNK         0.0600 
    130 H130       -0.4910  -16.5279  -44.1753 H         1 UNK         0.3000 
    131 H131        0.4294  -14.3127  -45.8043 H         1 UNK         0.0600 
    132 H132        2.6767  -15.2091  -45.4392 H         1 UNK         0.0800 
    133 H133        2.1035  -16.2656  -44.1683 H         1 UNK         0.0800 
    134 H134        1.6287  -15.3001  -47.9135 H         1 UNK         0.0800 
    135 H135        3.0943  -16.2569  -47.9095 H         1 UNK         0.0800 
    136 H136       -0.0991  -15.7483  -49.5103 H         1 UNK         0.1150 
    137 H137        0.2126  -19.1307  -52.1239 H         1 UNK         0.1150 
    138 H138        2.9840  -18.6593  -48.8824 H         1 UNK         0.1150 
    139 H139        2.0882  -20.6225  -51.9620 H         1 UNK         0.0800 
    140 H140        3.4620  -20.0976  -51.0260 H         1 UNK         0.0800 
    141 H141        0.4854  -23.1034  -50.7457 H         1 UNK         0.0800 
    142 H142       -0.0467  -21.4395  -50.8030 H         1 UNK         0.0800 
    143 H143        0.0835  -23.1909  -48.3002 H         1 UNK         0.0600 
    144 H144        0.0347  -20.4067  -48.3708 H         1 UNK         0.3000 
    145 H145        0.1187  -19.5424  -46.0468 H         1 UNK         0.0600 
    146 H146       -1.6255  -17.7585  -46.3108 H         1 UNK         0.0600 
    147 H147       -1.4104  -18.5903  -47.8325 H         1 UNK         0.0600 
    148 H148       -2.8110  -18.9566  -46.8273 H         1 UNK         0.0600 
    149 H149       -2.0209  -20.8036  -44.6043 H         1 UNK         0.3000 
    150 H150       -2.6616  -19.6130  -42.2871 H         1 UNK         0.0600 
    151 H151       -0.2526  -21.5156  -42.1285 H         1 UNK         0.0600 
    152 H152       -1.8377  -21.8967  -42.7922 H         1 UNK         0.0600 
    153 H153       -1.6636  -21.5974  -41.0753 H         1 UNK         0.0600 
    154 H154       -0.0709  -19.3699  -40.8782 H         1 UNK         0.3000 
    155 H155       -0.6684  -16.1279  -39.6884 H         1 UNK         0.0600 
    156 H156       -0.7542  -18.7431  -38.0877 H         1 UNK         0.0600 
    157 H157       -1.9432  -17.4485  -38.0069 H         1 UNK         0.0600 
    158 H158       -0.2999  -17.1590  -37.4579 H         1 UNK         0.0600 
    159 H159        1.3139  -18.2564  -39.3318 H         1 UNK         0.3000 
    160 H160        3.5156  -17.6847  -40.0964 H         1 UNK         0.0600 
    161 H161        2.5156  -18.4809  -42.9068 H         1 UNK         0.0600 
    162 H162        2.3510  -19.4736  -41.4651 H         1 UNK         0.0600 
    163 H163        3.9444  -19.1398  -42.1133 H         1 UNK         0.0600 
    164 H164        3.2862  -15.6085  -42.0119 H         1 UNK         0.3000 
    165 H165        6.7797  -15.0749  -42.3206 H         1 UNK         0.0600 
    166 H166        6.3833  -16.3326  -44.4123 H         1 UNK         0.0600 
    167 H167        4.7867  -15.6196  -44.5818 H         1 UNK         0.0600 
    168 H168        6.2252  -14.6075  -44.7085 H         1 UNK         0.0600 
    169 H169        4.3600  -13.6517  -43.1038 H         1 UNK         0.3000 
    170 H170        3.3670  -12.2314  -40.7262 H         1 UNK         0.0600 
    171 H171        5.0610  -11.2035  -39.2850 H         1 UNK         0.0600 
    172 H172        5.9341  -10.5631  -40.6689 H         1 UNK         0.0600 
    173 H173        4.3243   -9.9567  -40.2775 H         1 UNK         0.0600 
    174 H174        2.9712  -11.5414  -42.7728 H         1 UNK         0.3000 
    175 H175        4.4733   -9.5610  -45.1282 H         1 UNK         0.0600 
    176 H176        3.9353  -11.3117  -46.8265 H         1 UNK         0.0600 
    177 H177        5.4560  -11.6623  -46.0196 H         1 UNK         0.0600 
    178 H178        4.0084  -12.5615  -45.5848 H         1 UNK         0.0600 
    179 H179        2.0917  -11.2825  -44.7034 H         1 UNK         0.3000 
    180 H180        0.1376   -8.6189  -43.4046 H         1 UNK         0.0600 
    181 H181       -0.1276  -10.0488  -46.1060 H         1 UNK         0.0600 
    182 H182       -0.1317   -8.3048  -45.8700 H         1 UNK         0.0600 
    183 H183       -1.4355   -9.2781  -45.2075 H         1 UNK         0.0600 
    184 H184       -0.4211  -11.3664  -44.0400 H         1 UNK         0.3000 
    185 H185        0.9303  -12.8701  -41.1870 H         1 UNK         0.0600 
    186 H186       -1.1146  -11.9205  -40.0990 H         1 UNK         0.0600 
    187 H187       -2.0564  -12.2766  -41.5432 H         1 UNK         0.0600 
    188 H188       -1.3611  -13.5890  -40.5899 H         1 UNK         0.0600 
    189 H189       -0.9015  -13.9509  -42.9987 H         1 UNK         0.3000 
    190 H190       -2.6574  -21.1669  -48.9235 H         1 UNK         0.3000 
    191 H191       -4.3674  -22.9419  -50.2996 H         1 UNK         0.0600 
    192 H192       -4.8130  -20.4922  -49.9491 H         1 UNK         0.0600 
    193 H193       -6.1626  -21.4604  -49.3729 H         1 UNK         0.0600 
    194 H194       -5.0233  -20.7720  -48.2230 H         1 UNK         0.0600 
    195 H195       -3.2898  -23.0048  -46.9469 H         1 UNK         0.3000 
    196 H196       -5.3832  -24.8559  -46.0507 H         1 UNK         0.0600 
    197 H197       -4.0850  -24.8437  -43.9511 H         1 UNK         0.0600 
    198 H198       -4.3354  -23.1922  -44.4967 H         1 UNK         0.0600 
    199 H199       -2.7678  -23.9698  -44.7207 H         1 UNK         0.0600 
    200 H200       -2.3791  -25.1103  -47.8002 H         1 UNK         0.3000 
    201 H201       -1.7195  -27.7989  -46.7957 H         1 UNK         0.0600 
    202 H202        0.3103  -27.5390  -48.1327 H         1 UNK         0.0600 
    203 H203       -0.2951  -26.0730  -48.8840 H         1 UNK         0.0600 
    204 H204        0.0799  -26.0936  -47.1609 H         1 UNK         0.0600 
    205 H205       -3.0440  -26.2493  -49.7734 H         1 UNK         0.3000 
    206 H206       -4.0058  -28.8388  -50.7128 H         1 UNK         0.0600 
    207 H207       -1.6918  -28.8649  -51.6409 H         1 UNK         0.0600 
    208 H208       -2.8387  -28.6106  -52.9434 H         1 UNK         0.0600 
    209 H209       -1.9111  -27.2527  -52.3147 H         1 UNK         0.0600 
    210 H210       -5.6615  -28.6646  -52.1954 H         1 UNK         0.3000 
    211 H211       -7.1523  -26.2282  -52.3086 H         1 UNK         0.0600 
    212 H212       -7.4672  -28.8481  -53.8704 H         1 UNK         0.0600 
    213 H213       -8.6691  -27.5665  -53.7718 H         1 UNK         0.0600 
    214 H214       -8.2278  -28.4608  -52.3263 H         1 UNK         0.0600 
    215 H215       -4.8603  -27.7662  -54.5418 H         1 UNK         0.3000 
    216 H216       -5.3478  -26.0922  -56.8193 H         1 UNK         0.0600 
    217 H217       -3.1326  -26.9707  -57.5758 H         1 UNK         0.0600 
    218 H218       -4.1620  -28.2669  -56.9881 H         1 UNK         0.0600 
    219 H219       -2.8454  -27.6608  -55.9827 H         1 UNK         0.0600 
    220 H220       -3.2673  -25.7856  -53.9530 H         1 UNK         0.3000 
    221 H221       -1.9664  -23.3317  -54.8019 H         1 UNK         0.0600 
    222 H222       -2.1611  -24.6904  -52.0689 H         1 UNK         0.0600 
    223 H223       -0.8348  -24.8380  -53.2190 H         1 UNK         0.0600 
    224 H224       -1.1587  -23.2943  -52.4440 H         1 UNK         0.0600 
    225 H225       -4.8276  -24.1833  -52.8086 H         1 UNK         0.3000 
    226 H226       -5.5038  -21.5566  -51.9967 H         1 UNK         0.0600 
    227 H227       -7.6803  -22.4878  -51.4453 H         1 UNK         0.0600 
    228 H228       -7.4727  -23.8390  -52.5436 H         1 UNK         0.0600 
    229 H229       -6.4961  -23.7346  -51.0853 H         1 UNK         0.0600 
    230 H230       -6.4379  -23.3821  -54.9346 H         1 UNK         0.3000 
    231 H231       -8.0874  -21.4050  -56.1034 H         1 UNK         0.0600 
    232 H232       -6.3839  -23.5772  -57.4380 H         1 UNK         0.0600 
    233 H233       -7.7082  -22.7047  -58.1996 H         1 UNK         0.0600 
    234 H234       -8.0309  -23.7745  -56.8429 H         1 UNK         0.0600 
    235 H235       -4.5531  -21.7795  -56.1579 H         1 UNK         0.3000 
    236 H236       -4.0841  -19.6583  -58.0896 H         1 UNK         0.0600 
    237 H237       -2.4932  -21.5427  -57.8232 H         1 UNK         0.0600 
    238 H238       -1.7050  -20.0114  -57.4714 H         1 UNK         0.0600 
    239 H239       -2.1775  -21.0767  -56.1543 H         1 UNK         0.0600 
    240 H240       -3.8011  -19.9715  -54.5143 H         1 UNK         0.3000 
    241 H241       -2.9747  -17.2781  -54.0999 H         1 UNK         0.0600 
    242 H242       -6.3265  -18.7216  -53.9503 H         1 UNK         0.3800 
    243 H243       -7.0730  -17.1541  -53.7577 H         1 UNK         0.3800 
    244 H244       -2.4436  -19.2538  -52.5994 H         1 UNK         0.0800 
    245 H245       -4.0918  -19.2426  -52.0446 H         1 UNK         0.0800 
    246 H246       -1.1922  -15.7406  -51.7061 H         1 UNK         0.0800 
    247 H247       -1.0631  -17.0962  -52.7856 H         1 UNK         0.0800 
@<TRIPOS>BOND
     1    1    2 1    
     2    1  127 1    
     3    1  128 1    
     4    1  129 1    
     5    2    3 2    
     6    2    4 am   BACKBONE|DICT|INTERRES
     7    4    5 1    
     8    4  130 1    
     9    5    6 1    
    10    5   65 1    
    11    5  131 1    
    12    6    7 1    
    13    6  132 1    
    14    6  133 1    
    15    7    8 1    
    16    8    9 1    
    17    8  134 1    
    18    8  135 1    
    19    9   10 ar   
    20    9   14 ar   
    21   10   11 ar   
    22   10  136 1    
    23   11   12 ar   
    24   11  126 1    
    25   12   13 ar   
    26   12  137 1    
    27   13   14 ar   
    28   13   15 1    
    29   14  138 1    
    30   15   16 1    
    31   15  139 1    
    32   15  140 1    
    33   16   17 1    
    34   17   18 1    
    35   17  141 1    
    36   17  142 1    
    37   18   19 1    
    38   18   67 1    
    39   18  143 1    
    40   19   20 am   BACKBONE|DICT|INTERRES
    41   19  144 1    
    42   20   21 2    
    43   20   22 1    
    44   22   23 1    
    45   22   24 1    
    46   22  145 1    
    47   23  146 1    
    48   23  147 1    
    49   23  148 1    
    50   24   25 am   BACKBONE|DICT|INTERRES
    51   24  149 1    
    52   25   26 2    
    53   25   27 1    
    54   27   28 1    
    55   27   29 1    
    56   27  150 1    
    57   28  151 1    
    58   28  152 1    
    59   28  153 1    
    60   29   30 am   BACKBONE|DICT|INTERRES
    61   29  154 1    
    62   30   31 2    
    63   30   32 1    
    64   32   33 1    
    65   32   34 1    
    66   32  155 1    
    67   33  156 1    
    68   33  157 1    
    69   33  158 1    
    70   34   35 am   BACKBONE|DICT|INTERRES
    71   34  159 1    
    72   35   36 2    
    73   35   37 1    
    74   37   38 1    
    75   37   39 1    
    76   37  160 1    
    77   38  161 1    
    78   38  162 1    
    79   38  163 1    
    80   39   40 am   BACKBONE|DICT|INTERRES
    81   39  164 1    
    82   40   41 2    
    83   40   42 1    
    84   42   43 1    
    85   42   44 1    
    86   42  165 1    
    87   43  166 1    
    88   43  167 1    
    89   43  168 1    
    90   44   45 am   BACKBONE|DICT|INTERRES
    91   44  169 1    
    92   45   46 2    
    93   45   47 1    
    94   47   48 1    
    95   47   49 1    
    96   47  170 1    
    97   48  171 1    
    98   48  172 1    
    99   48  173 1    
   100   49   50 am   BACKBONE|DICT|INTERRES
   101   49  174 1    
   102   50   51 2    
   103   50   52 1    
   104   52   53 1    
   105   52   54 1    
   106   52  175 1    
   107   53  176 1    
   108   53  177 1    
   109   53  178 1    
   110   54   55 am   BACKBONE|DICT|INTERRES
   111   54  179 1    
   112   55   56 2    
   113   55   57 1    
   114   57   58 1    
   115   57   59 1    
   116   57  180 1    
   117   58  181 1    
   118   58  182 1    
   119   58  183 1    
   120   59   60 am   BACKBONE|DICT|INTERRES
   121   59  184 1    
   122   60   61 2    
   123   60   62 1    
   124   62   63 1    
   125   62   64 1    
   126   62  185 1    
   127   63  186 1    
   128   63  187 1    
   129   63  188 1    
   130   64   65 am   BACKBONE|DICT|INTERRES
   131   64  189 1    
   132   65   66 2    
   133   67   68 2    
   134   67   69 am   BACKBONE|DICT|INTERRES
   135   69   70 1    
   136   69  190 1    
   137   70   71 1    
   138   70   72 1    
   139   70  191 1    
   140   71  192 1    
   141   71  193 1    
   142   71  194 1    
   143   72   73 2    
   144   72   74 am   BACKBONE|DICT|INTERRES
   145   74   75 1    
   146   74  195 1    
   147   75   76 1    
   148   75   77 1    
   149   75  196 1    
   150   76  197 1    
   151   76  198 1    
   152   76  199 1    
   153   77   78 2    
   154   77   79 am   BACKBONE|DICT|INTERRES
   155   79   80 1    
   156   79  200 1    
   157   80   81 1    
   158   80   82 1    
   159   80  201 1    
   160   81  202 1    
   161   81  203 1    
   162   81  204 1    
   163   82   83 2    
   164   82   84 am   BACKBONE|DICT|INTERRES
   165   84   85 1    
   166   84  205 1    
   167   85   86 1    
   168   85   87 1    
   169   85  206 1    
   170   86  207 1    
   171   86  208 1    
   172   86  209 1    
   173   87   88 2    
   174   87   89 am   BACKBONE|DICT|INTERRES
   175   89   90 1    
   176   89  210 1    
   177   90   91 1    
   178   90   92 1    
   179   90  211 1    
   180   91  212 1    
   181   91  213 1    
   182   91  214 1    
   183   92   93 2    
   184   92   94 am   BACKBONE|DICT|INTERRES
   185   94   95 1    
   186   94  215 1    
   187   95   96 1    
   188   95   97 1    
   189   95  216 1    
   190   96  217 1    
   191   96  218 1    
   192   96  219 1    
   193   97   98 2    
   194   97   99 am   BACKBONE|DICT|INTERRES
   195   99  100 1    
   196   99  220 1    
   197  100  101 1    
   198  100  102 1    
   199  100  221 1    
   200  101  222 1    
   201  101  223 1    
   202  101  224 1    
   203  102  103 2    
   204  102  104 am   BACKBONE|DICT|INTERRES
   205  104  105 1    
   206  104  225 1    
   207  105  106 1    
   208  105  107 1    
   209  105  226 1    
   210  106  227 1    
   211  106  228 1    
   212  106  229 1    
   213  107  108 2    
   214  107  109 am   BACKBONE|DICT|INTERRES
   215  109  110 1    
   216  109  230 1    
   217  110  111 1    
   218  110  112 1    
   219  110  231 1    
   220  111  232 1    
   221  111  233 1    
   222  111  234 1    
   223  112  113 2    
   224  112  114 am   BACKBONE|DICT|INTERRES
   225  114  115 1    
   226  114  235 1    
   227  115  116 1    
   228  115  117 1    
   229  115  236 1    
   230  116  237 1    
   231  116  238 1    
   232  116  239 1    
   233  117  118 2    
   234  117  119 am   BACKBONE|DICT|INTERRES
   235  119  120 1    
   236  119  240 1    
   237  120  121 1    
   238  120  124 1    
   239  120  241 1    
   240  121  122 am   BACKBONE|DICT|INTERRES
   241  121  123 2    
   242  122  242 1    
   243  122  243 1    
   244  124  125 1    
   245  124  244 1    
   246  124  245 1    
   247  125  126 1    
   248  126  246 1    
   249  126  247 1    
@<TRIPOS>SUBSTRUCTURE
     1 UNK         1 GROUP             0       ****    0 ROOT    
