@<TRIPOS>MOLECULE
3R540
247   249    1
SMALL
USER_CHARGES


@<TRIPOS>ATOM
      1 CA          0.0464  -12.8682  -46.2729 C.3       0 UNK        -0.1800 
      2 C           1.1832  -12.3489  -47.1408 C.2       0 UNK         0.5000 
      3 O           1.1707  -11.1820  -47.5323 O.2       0 UNK        -0.5000 
      4 N           2.1707  -13.2064  -47.4322 N.am      1 UNK        -0.5000 
      5 CA          3.4163  -12.8297  -48.1200 C.3       1 UNK         0.1400 
      6 C6          4.1152  -14.0377  -48.7924 C.3       23 UNK        -0.0398 
      7 S7          3.0654  -14.8786  -50.0277 S.3       23 UNK        -0.2404 
      8 C8          2.5708  -16.3433  -49.0714 C.3       23 UNK        -0.0205 
      9 C9          1.6000  -17.2469  -49.8168 C.ar      23 UNK        -0.0193 
     10 C10         0.3404  -16.7763  -50.2005 C.ar      23 UNK        -0.1150 
     11 C11        -0.6004  -17.6437  -50.7634 C.ar      23 UNK        -0.0193 
     12 C12        -0.2735  -18.9922  -50.9310 C.ar      23 UNK        -0.1150 
     13 C13         0.9859  -19.4768  -50.5679 C.ar      23 UNK        -0.0193 
     14 C14         1.9262  -18.5880  -50.0330 C.ar      23 UNK        -0.1150 
     15 C15         1.2872  -20.9666  -50.7362 C.3       23 UNK        -0.0205 
     16 S16         2.3896  -21.6810  -49.4638 S.3       23 UNK        -0.2404 
     17 C17         1.5374  -21.2127  -47.9179 C.3       23 UNK        -0.0398 
     18 CA          0.7914  -22.3762  -47.2318 C.3       11 UNK         0.1400 
     19 N           0.4308  -22.0224  -45.8598 N.am      11 UNK        -0.5000 
     20 C          -0.0217  -22.8780  -44.9353 C.2       10 UNK         0.5000 
     21 O          -0.1522  -24.0876  -45.1230 O.2       10 UNK        -0.5000 
     22 CA         -0.4326  -22.2623  -43.5863 C.3       10 UNK         0.1400 
     23 CB          0.7864  -22.1213  -42.6632 C.3       10 UNK        -0.1800 
     24 N          -1.0842  -20.9590  -43.7450 N.am      10 UNK        -0.5000 
     25 C          -2.2959  -20.7998  -44.2979 C.2       9 UNK         0.5000 
     26 O          -2.9805  -21.7344  -44.7155 O.2       9 UNK        -0.5000 
     27 CA         -2.8188  -19.3593  -44.4465 C.3       9 UNK         0.1400 
     28 CB         -3.3715  -18.8396  -43.1121 C.3       9 UNK        -0.1800 
     29 N          -1.8274  -18.4173  -44.9714 N.am      9 UNK        -0.5000 
     30 C          -1.2449  -18.5240  -46.1742 C.2       8 UNK         0.5000 
     31 O          -1.4001  -19.4827  -46.9258 O.2       8 UNK        -0.5000 
     32 CA         -0.3209  -17.3821  -46.6105 C.3       8 UNK         0.1400 
     33 CB         -1.1326  -16.1702  -47.0905 C.3       8 UNK        -0.1800 
     34 N           0.5774  -16.9909  -45.5290 N.am      8 UNK        -0.5000 
     35 C           1.7623  -17.5739  -45.3013 C.2       7 UNK         0.5000 
     36 O           2.2631  -18.4200  -46.0408 O.2       7 UNK        -0.5000 
     37 CA          2.5122  -17.1539  -44.0238 C.3       7 UNK         0.1400 
     38 CB          3.4271  -15.9541  -44.3137 C.3       7 UNK        -0.1800 
     39 N           1.6239  -16.8176  -42.9106 N.am      7 UNK        -0.5000 
     40 C           0.7666  -17.6650  -42.3211 C.2       6 UNK         0.5000 
     41 O           0.6379  -18.8480  -42.6362 O.2       6 UNK        -0.5000 
     42 CA         -0.1451  -17.0720  -41.2306 C.3       6 UNK         0.1400 
     43 CB          0.5342  -17.1693  -39.8567 C.3       6 UNK        -0.1800 
     44 N          -0.5335  -15.6805  -41.4732 N.am      6 UNK        -0.5000 
     45 C          -1.1192  -15.1978  -42.5799 C.2       5 UNK         0.5000 
     46 O          -1.4223  -15.8919  -43.5519 O.2       5 UNK        -0.5000 
     47 CA         -1.3728  -13.6784  -42.6237 C.3       5 UNK         0.1400 
     48 CB         -2.8475  -13.3748  -42.3226 C.3       5 UNK        -0.1800 
     49 N          -0.5250  -12.9170  -41.6988 N.am      5 UNK        -0.5000 
     50 C           0.8013  -12.7703  -41.8196 C.2       4 UNK         0.5000 
     51 O           1.4662  -13.2530  -42.7405 O.2       4 UNK        -0.5000 
     52 CA          1.5070  -12.0263  -40.6756 C.3       4 UNK         0.1400 
     53 CB          2.1199  -13.0369  -39.6927 C.3       4 UNK        -0.1800 
     54 N           2.5720  -11.1859  -41.2120 N.am      4 UNK        -0.5000 
     55 C           2.4688   -9.8728  -41.4551 C.2       3 UNK         0.5000 
     56 O           1.4801   -9.1975  -41.1650 O.2       3 UNK        -0.5000 
     57 CA          3.6717   -9.1962  -42.1475 C.3       3 UNK         0.1400 
     58 CB          4.5938   -8.5431  -41.1063 C.3       3 UNK        -0.1800 
     59 N           4.4597  -10.1168  -42.9737 N.am      3 UNK        -0.5000 
     60 C           4.0077  -10.7003  -44.0917 C.2       2 UNK         0.5000 
     61 O           2.9024  -10.4538  -44.5807 O.2       2 UNK        -0.5000 
     62 CA          4.9354  -11.7441  -44.7440 C.3       2 UNK         0.1400 
     63 CB          5.3452  -12.8326  -43.7341 C.3       2 UNK        -0.1800 
     64 N           4.2401  -12.3946  -45.8499 N.am      2 UNK        -0.5000 
     65 C           4.3924  -12.1219  -47.1519 C.2       1 UNK         0.5000 
     66 O           5.2469  -11.3551  -47.5984 O.2       1 UNK        -0.5000 
     67 C          -0.4467  -22.8337  -48.0288 C.2       11 UNK         0.5000 
     68 O          -0.4021  -23.8867  -48.6628 O.2       11 UNK        -0.5000 
     69 N          -1.5440  -22.0699  -47.9343 N.am      12 UNK        -0.5000 
     70 CA         -2.8380  -22.3784  -48.5395 C.3       12 UNK         0.1400 
     71 CB         -3.8119  -21.2149  -48.3012 C.3       12 UNK        -0.1800 
     72 C          -3.4354  -23.6948  -48.0197 C.2       12 UNK         0.5000 
     73 O          -3.9434  -24.4801  -48.8188 O.2       12 UNK        -0.5000 
     74 N          -3.3295  -23.9337  -46.7045 N.am      13 UNK        -0.5000 
     75 CA         -3.7441  -25.1777  -46.0565 C.3       13 UNK         0.1400 
     76 CB         -3.6526  -25.0248  -44.5309 C.3       13 UNK        -0.1800 
     77 C          -2.9345  -26.3956  -46.5387 C.2       13 UNK         0.5000 
     78 O          -3.5273  -27.4314  -46.8413 O.2       13 UNK        -0.5000 
     79 N          -1.6062  -26.2405  -46.6385 N.am      14 UNK        -0.5000 
     80 CA         -0.6864  -27.2644  -47.1398 C.3       14 UNK         0.1400 
     81 CB          0.7616  -26.8295  -46.8668 C.3       14 UNK        -0.1800 
     82 C          -0.8897  -27.5781  -48.6347 C.2       14 UNK         0.5000 
     83 O          -0.8429  -28.7456  -49.0238 O.2       14 UNK        -0.5000 
     84 N          -1.1308  -26.5350  -49.4393 N.am      15 UNK        -0.5000 
     85 CA         -1.3923  -26.6231  -50.8775 C.3       15 UNK         0.1400 
     86 CB         -1.1523  -25.2412  -51.5029 C.3       15 UNK        -0.1800 
     87 C          -2.8085  -27.1258  -51.2260 C.2       15 UNK         0.5000 
     88 O          -3.0465  -27.4787  -52.3815 O.2       15 UNK        -0.5000 
     89 N          -3.7144  -27.1365  -50.2370 N.am      16 UNK        -0.5000 
     90 CA         -5.1433  -27.4502  -50.3354 C.3       16 UNK         0.1400 
     91 CB         -5.3706  -28.9157  -50.7626 C.3       16 UNK        -0.1800 
     92 C          -5.9075  -26.4269  -51.2034 C.2       16 UNK         0.5000 
     93 O          -6.7527  -26.8051  -52.0169 O.2       16 UNK        -0.5000 
     94 N          -5.5946  -25.1419  -50.9849 N.am      17 UNK        -0.5000 
     95 CA         -6.1560  -23.9532  -51.6254 C.3       17 UNK         0.1400 
     96 CB         -7.6074  -23.7218  -51.1490 C.3       17 UNK        -0.1800 
     97 C          -5.9775  -23.9652  -53.1585 C.2       17 UNK         0.5000 
     98 O          -4.8367  -23.9831  -53.6246 O.2       17 UNK        -0.5000 
     99 N          -7.0883  -23.9179  -53.9102 N.am      18 UNK        -0.5000 
    100 CA        -7.1639  -23.8371  -55.3725 C.3       18 UNK         0.1400 
    101 CB        -6.6722  -25.1531  -56.0175 C.3       18 UNK        -0.1800 
    102 C         -6.4560  -22.5681  -55.8908 C.2       18 UNK         0.5000 
    103 O         -6.8703  -21.4645  -55.5346 O.2       18 UNK        -0.5000 
    104 N         -5.3862  -22.7283  -56.6802 N.am      19 UNK        -0.5000 
    105 CA        -4.5427  -21.6350  -57.1720 C.3       19 UNK         0.1400 
    106 CB        -3.5851  -22.1886  -58.2382 C.3       19 UNK        -0.1800 
    107 C         -3.7518  -20.9143  -56.0590 C.2       19 UNK         0.5000 
    108 O         -3.3540  -19.7653  -56.2504 O.2       19 UNK        -0.5000 
    109 N         -3.5503  -21.5910  -54.9212 N.am      20 UNK        -0.5000 
    110 CA        -2.8403  -21.0934  -53.7451 C.3       20 UNK         0.1400 
    111 CB        -1.8295  -22.1655  -53.3056 C.3       20 UNK        -0.1800 
    112 C         -3.8118  -20.7219  -52.6064 C.2       20 UNK         0.5000 
    113 O         -3.4003  -20.7055  -51.4489 O.2       20 UNK        -0.5000 
    114 N         -5.0825  -20.4474  -52.9383 N.am      21 UNK        -0.5000 
    115 CA        -6.1348  -20.0285  -52.0091 C.3       21 UNK         0.1400 
    116 CB        -7.4667  -19.8587  -52.7552 C.3       21 UNK        -0.1800 
    117 C         -5.8135  -18.8059  -51.1143 C.2       21 UNK         0.5000 
    118 O         -6.0430  -18.9035  -49.9105 O.2       21 UNK        -0.5000 
    119 N         -5.2851  -17.6742  -51.6059 N.am      22 UNK        -0.5000 
    120 CA        -5.1163  -17.2252  -53.0010 C.3       22 UNK         0.1400 
    121 C         -6.3614  -16.4719  -53.5590 C.2       22 UNK         0.5000 
    122 N         -7.4078  -16.2333  -52.7770 N.am      22 UNK        -0.7600 
    123 O         -6.3879  -16.1128  -54.7325 O.2       22 UNK        -0.5000 
    124 C124       -3.8398  -16.3536  -53.1453 C.3       23 UNK        -0.0398 
    125 S125       -2.2899  -17.2952  -52.9360 S.3       23 UNK        -0.2404 
    126 C126       -1.9840  -17.1384  -51.1468 C.3       23 UNK        -0.0205 
    127 H127       -0.8548  -13.0061  -46.8699 H         1 UNK         0.0600 
    128 H128       -0.1720  -12.1479  -45.4844 H         1 UNK         0.0600 
    129 H129        0.3002  -13.8159  -45.7975 H         1 UNK         0.0600 
    130 H130        2.1073  -14.1634  -47.1221 H         1 UNK         0.3000 
    131 H131        3.1719  -12.1127  -48.9069 H         1 UNK         0.0600 
    132 H132        5.0163  -13.7058  -49.3115 H         1 UNK         0.0800 
    133 H133        4.4519  -14.7567  -48.0432 H         1 UNK         0.0800 
    134 H134        3.4663  -16.8976  -48.7853 H         1 UNK         0.0800 
    135 H135        2.0980  -16.0271  -48.1419 H         1 UNK         0.0800 
    136 H136        0.0858  -15.7394  -50.0317 H         1 UNK         0.1150 
    137 H137       -1.0112  -19.6663  -51.3408 H         1 UNK         0.1150 
    138 H138        2.8988  -18.9506  -49.7331 H         1 UNK         0.1150 
    139 H139        0.3575  -21.5370  -50.7248 H         1 UNK         0.0800 
    140 H140        1.7351  -21.1233  -51.7180 H         1 UNK         0.0800 
    141 H141        0.8672  -20.3684  -48.0783 H         1 UNK         0.0800 
    142 H142        2.3135  -20.8399  -47.2484 H         1 UNK         0.0800 
    143 H143        1.4750  -23.2260  -47.1730 H         1 UNK         0.0600 
    144 H144        0.4635  -21.0414  -45.6238 H         1 UNK         0.3000 
    145 H145       -1.1419  -22.9429  -43.1107 H         1 UNK         0.0600 
    146 H146        0.4988  -21.7275  -41.6882 H         1 UNK         0.0600 
    147 H147        1.2639  -23.0878  -42.4970 H         1 UNK         0.0600 
    148 H148        1.5367  -21.4518  -43.0857 H         1 UNK         0.0600 
    149 H149       -0.5655  -20.1451  -43.4247 H         1 UNK         0.3000 
    150 H150       -3.6438  -19.3847  -45.1614 H         1 UNK         0.0600 
    151 H151       -4.1933  -19.4659  -42.7627 H         1 UNK         0.0600 
    152 H152       -3.7537  -17.8231  -43.2081 H         1 UNK         0.0600 
    153 H153       -2.6090  -18.8417  -42.3351 H         1 UNK         0.0600 
    154 H154       -1.6560  -17.5814  -44.4200 H         1 UNK         0.3000 
    155 H155        0.2607  -17.7484  -47.4570 H         1 UNK         0.0600 
    156 H156       -1.6871  -15.7001  -46.2779 H         1 UNK         0.0600 
    157 H157       -1.8536  -16.4629  -47.8550 H         1 UNK         0.0600 
    158 H158       -0.4817  -15.4198  -47.5368 H         1 UNK         0.0600 
    159 H159        0.1986  -16.3628  -44.8312 H         1 UNK         0.3000 
    160 H160        3.1337  -17.9967  -43.7144 H         1 UNK         0.0600 
    161 H161        2.8529  -15.0620  -44.5664 H         1 UNK         0.0600 
    162 H162        4.0990  -16.1624  -45.1476 H         1 UNK         0.0600 
    163 H163        4.0481  -15.7193  -43.4493 H         1 UNK         0.0600 
    164 H164        1.6363  -15.8558  -42.6002 H         1 UNK         0.3000 
    165 H165       -1.0577  -17.6666  -41.1994 H         1 UNK         0.0600 
    166 H166       -0.1348  -16.8414  -39.0609 H         1 UNK         0.0600 
    167 H167        0.8205  -18.1983  -39.6344 H         1 UNK         0.0600 
    168 H168        1.4373  -16.5594  -39.8096 H         1 UNK         0.0600 
    169 H169       -0.3328  -15.0273  -40.7315 H         1 UNK         0.3000 
    170 H170       -1.1568  -13.3432  -43.6387 H         1 UNK         0.0600 
    171 H171       -3.5045  -13.9066  -43.0124 H         1 UNK         0.0600 
    172 H172       -3.1226  -13.6744  -41.3106 H         1 UNK         0.0600 
    173 H173       -3.0610  -12.3110  -42.4289 H         1 UNK         0.0600 
    174 H174       -0.9939  -12.4953  -40.9095 H         1 UNK         0.3000 
    175 H175        0.7788  -11.4173  -40.1356 H         1 UNK         0.0600 
    176 H176        2.8442  -13.6899  -40.1821 H         1 UNK         0.0600 
    177 H177        2.6288  -12.5286  -38.8734 H         1 UNK         0.0600 
    178 H178        1.3506  -13.6718  -39.2516 H         1 UNK         0.0600 
    179 H179        3.3945  -11.6690  -41.5408 H         1 UNK         0.3000 
    180 H180        3.2781   -8.4101  -42.7955 H         1 UNK         0.0600 
    181 H181        5.0337   -9.2836  -40.4370 H         1 UNK         0.0600 
    182 H182        4.0441   -7.8299  -40.4907 H         1 UNK         0.0600 
    183 H183        5.4066   -7.9971  -41.5857 H         1 UNK         0.0600 
    184 H184        5.3816  -10.3496  -42.6337 H         1 UNK         0.3000 
    185 H185        5.8315  -11.2334  -45.1020 H         1 UNK         0.0600 
    186 H186        5.9892  -12.4302  -42.9517 H         1 UNK         0.0600 
    187 H187        4.4757  -13.2781  -43.2489 H         1 UNK         0.0600 
    188 H188        5.9012  -13.6335  -44.2220 H         1 UNK         0.0600 
    189 H189        3.4477  -12.9596  -45.5847 H         1 UNK         0.3000 
    190 H190       -1.4899  -21.1875  -47.4274 H         1 UNK         0.3000 
    191 H191       -2.6815  -22.4860  -49.6142 H         1 UNK         0.0600 
    192 H192       -3.9955  -21.0500  -47.2393 H         1 UNK         0.0600 
    193 H193       -4.7733  -21.4068  -48.7792 H         1 UNK         0.0600 
    194 H194       -3.4248  -20.2860  -48.7208 H         1 UNK         0.0600 
    195 H195       -2.9477  -23.2100  -46.1036 H         1 UNK         0.3000 
    196 H196       -4.7904  -25.3525  -46.3154 H         1 UNK         0.0600 
    197 H197       -3.9748  -25.9367  -44.0268 H         1 UNK         0.0600 
    198 H198       -4.2913  -24.2150  -44.1778 H         1 UNK         0.0600 
    199 H199       -2.6341  -24.8119  -44.2060 H         1 UNK         0.0600 
    200 H200       -1.1898  -25.3651  -46.3377 H         1 UNK         0.3000 
    201 H201       -0.8734  -28.1838  -46.5810 H         1 UNK         0.0600 
    202 H202        0.9353  -26.6877  -45.8000 H         1 UNK         0.0600 
    203 H203        1.0034  -25.8933  -47.3709 H         1 UNK         0.0600 
    204 H204        1.4690  -27.5832  -47.2147 H         1 UNK         0.0600 
    205 H205       -1.0773  -25.5965  -49.0491 H         1 UNK         0.3000 
    206 H206       -0.6792  -27.3240  -51.3161 H         1 UNK         0.0600 
    207 H207       -0.1341  -24.8955  -51.3234 H         1 UNK         0.0600 
    208 H208       -1.3003  -25.2687  -52.5831 H         1 UNK         0.0600 
    209 H209       -1.8357  -24.4962  -51.0931 H         1 UNK         0.0600 
    210 H210       -3.4117  -26.7905  -49.3358 H         1 UNK         0.3000 
    211 H211       -5.5405  -27.3426  -49.3250 H         1 UNK         0.0600 
    212 H212       -5.0639  -29.0937  -51.7934 H         1 UNK         0.0600 
    213 H213       -6.4252  -29.1827  -50.6872 H         1 UNK         0.0600 
    214 H214       -4.8158  -29.6024  -50.1232 H         1 UNK         0.0600 
    215 H215       -4.8868  -24.9515  -50.2767 H         1 UNK         0.3000 
    216 H216       -5.5553  -23.1180  -51.2639 H         1 UNK         0.0600 
    217 H217       -8.0155  -22.7937  -51.5501 H         1 UNK         0.0600 
    218 H218       -7.6481  -23.6413  -50.0626 H         1 UNK         0.0600 
    219 H219       -8.2719  -24.5353  -51.4420 H         1 UNK         0.0600 
    220 H220       -7.9766  -23.8904  -53.4307 H         1 UNK         0.3000 
    221 H221       -8.2189  -23.7207  -55.6244 H         1 UNK         0.0600 
    222 H222       -5.6227  -25.3567  -55.8028 H         1 UNK         0.0600 
    223 H223       -7.2492  -26.0015  -55.6494 H         1 UNK         0.0600 
    224 H224       -6.7944  -25.1305  -57.1011 H         1 UNK         0.0600 
    225 H225       -5.0940  -23.6666  -56.9122 H         1 UNK         0.3000 
    226 H226       -5.1904  -20.8938  -57.6450 H         1 UNK         0.0600 
    227 H227       -4.1332  -22.6340  -59.0686 H         1 UNK         0.0600 
    228 H228       -2.9598  -21.3960  -58.6516 H         1 UNK         0.0600 
    229 H229       -2.9209  -22.9492  -57.8259 H         1 UNK         0.0600 
    230 H230       -3.9554  -22.5163  -54.8210 H         1 UNK         0.3000 
    231 H231       -2.2817  -20.1890  -53.9921 H         1 UNK         0.0600 
    232 H232       -1.2390  -21.8327  -52.4529 H         1 UNK         0.0600 
    233 H233       -1.1318  -22.4040  -54.1083 H         1 UNK         0.0600 
    234 H234       -2.3358  -23.0856  -53.0166 H         1 UNK         0.0600 
    235 H235       -5.3473  -20.5197  -53.9113 H         1 UNK         0.3000 
    236 H236       -6.2712  -20.8617  -51.3182 H         1 UNK         0.0600 
    237 H237       -7.3696  -19.2070  -53.6228 H         1 UNK         0.0600 
    238 H238       -7.8407  -20.8196  -53.1075 H         1 UNK         0.0600 
    239 H239       -8.2347  -19.4352  -52.1067 H         1 UNK         0.0600 
    240 H240       -5.0793  -16.9549  -50.9304 H         1 UNK         0.3000 
    241 H241       -4.9919  -18.0765  -53.6645 H         1 UNK         0.0600 
    242 H242       -8.2075  -15.7502  -53.1559 H         1 UNK         0.3800 
    243 H243       -7.4076  -16.5150  -51.8097 H         1 UNK         0.3800 
    244 H244       -3.7900  -15.9113  -54.1420 H         1 UNK         0.0800 
    245 H245       -3.8604  -15.5131  -52.4499 H         1 UNK         0.0800 
    246 H246       -2.7287  -17.7156  -50.5977 H         1 UNK         0.0800 
    247 H247       -2.1071  -16.0969  -50.8467 H         1 UNK         0.0800 
@<TRIPOS>BOND
     1    1    2 1    
     2    1  127 1    
     3    1  128 1    
     4    1  129 1    
     5    2    3 2    
     6    2    4 am   BACKBONE|DICT|INTERRES
     7    4    5 1    
     8    4  130 1    
     9    5    6 1    
    10    5   65 1    
    11    5  131 1    
    12    6    7 1    
    13    6  132 1    
    14    6  133 1    
    15    7    8 1    
    16    8    9 1    
    17    8  134 1    
    18    8  135 1    
    19    9   10 ar   
    20    9   14 ar   
    21   10   11 ar   
    22   10  136 1    
    23   11   12 ar   
    24   11  126 1    
    25   12   13 ar   
    26   12  137 1    
    27   13   14 ar   
    28   13   15 1    
    29   14  138 1    
    30   15   16 1    
    31   15  139 1    
    32   15  140 1    
    33   16   17 1    
    34   17   18 1    
    35   17  141 1    
    36   17  142 1    
    37   18   19 1    
    38   18   67 1    
    39   18  143 1    
    40   19   20 am   BACKBONE|DICT|INTERRES
    41   19  144 1    
    42   20   21 2    
    43   20   22 1    
    44   22   23 1    
    45   22   24 1    
    46   22  145 1    
    47   23  146 1    
    48   23  147 1    
    49   23  148 1    
    50   24   25 am   BACKBONE|DICT|INTERRES
    51   24  149 1    
    52   25   26 2    
    53   25   27 1    
    54   27   28 1    
    55   27   29 1    
    56   27  150 1    
    57   28  151 1    
    58   28  152 1    
    59   28  153 1    
    60   29   30 am   BACKBONE|DICT|INTERRES
    61   29  154 1    
    62   30   31 2    
    63   30   32 1    
    64   32   33 1    
    65   32   34 1    
    66   32  155 1    
    67   33  156 1    
    68   33  157 1    
    69   33  158 1    
    70   34   35 am   BACKBONE|DICT|INTERRES
    71   34  159 1    
    72   35   36 2    
    73   35   37 1    
    74   37   38 1    
    75   37   39 1    
    76   37  160 1    
    77   38  161 1    
    78   38  162 1    
    79   38  163 1    
    80   39   40 am   BACKBONE|DICT|INTERRES
    81   39  164 1    
    82   40   41 2    
    83   40   42 1    
    84   42   43 1    
    85   42   44 1    
    86   42  165 1    
    87   43  166 1    
    88   43  167 1    
    89   43  168 1    
    90   44   45 am   BACKBONE|DICT|INTERRES
    91   44  169 1    
    92   45   46 2    
    93   45   47 1    
    94   47   48 1    
    95   47   49 1    
    96   47  170 1    
    97   48  171 1    
    98   48  172 1    
    99   48  173 1    
   100   49   50 am   BACKBONE|DICT|INTERRES
   101   49  174 1    
   102   50   51 2    
   103   50   52 1    
   104   52   53 1    
   105   52   54 1    
   106   52  175 1    
   107   53  176 1    
   108   53  177 1    
   109   53  178 1    
   110   54   55 am   BACKBONE|DICT|INTERRES
   111   54  179 1    
   112   55   56 2    
   113   55   57 1    
   114   57   58 1    
   115   57   59 1    
   116   57  180 1    
   117   58  181 1    
   118   58  182 1    
   119   58  183 1    
   120   59   60 am   BACKBONE|DICT|INTERRES
   121   59  184 1    
   122   60   61 2    
   123   60   62 1    
   124   62   63 1    
   125   62   64 1    
   126   62  185 1    
   127   63  186 1    
   128   63  187 1    
   129   63  188 1    
   130   64   65 am   BACKBONE|DICT|INTERRES
   131   64  189 1    
   132   65   66 2    
   133   67   68 2    
   134   67   69 am   BACKBONE|DICT|INTERRES
   135   69   70 1    
   136   69  190 1    
   137   70   71 1    
   138   70   72 1    
   139   70  191 1    
   140   71  192 1    
   141   71  193 1    
   142   71  194 1    
   143   72   73 2    
   144   72   74 am   BACKBONE|DICT|INTERRES
   145   74   75 1    
   146   74  195 1    
   147   75   76 1    
   148   75   77 1    
   149   75  196 1    
   150   76  197 1    
   151   76  198 1    
   152   76  199 1    
   153   77   78 2    
   154   77   79 am   BACKBONE|DICT|INTERRES
   155   79   80 1    
   156   79  200 1    
   157   80   81 1    
   158   80   82 1    
   159   80  201 1    
   160   81  202 1    
   161   81  203 1    
   162   81  204 1    
   163   82   83 2    
   164   82   84 am   BACKBONE|DICT|INTERRES
   165   84   85 1    
   166   84  205 1    
   167   85   86 1    
   168   85   87 1    
   169   85  206 1    
   170   86  207 1    
   171   86  208 1    
   172   86  209 1    
   173   87   88 2    
   174   87   89 am   BACKBONE|DICT|INTERRES
   175   89   90 1    
   176   89  210 1    
   177   90   91 1    
   178   90   92 1    
   179   90  211 1    
   180   91  212 1    
   181   91  213 1    
   182   91  214 1    
   183   92   93 2    
   184   92   94 am   BACKBONE|DICT|INTERRES
   185   94   95 1    
   186   94  215 1    
   187   95   96 1    
   188   95   97 1    
   189   95  216 1    
   190   96  217 1    
   191   96  218 1    
   192   96  219 1    
   193   97   98 2    
   194   97   99 am   BACKBONE|DICT|INTERRES
   195   99  100 1    
   196   99  220 1    
   197  100  101 1    
   198  100  102 1    
   199  100  221 1    
   200  101  222 1    
   201  101  223 1    
   202  101  224 1    
   203  102  103 2    
   204  102  104 am   BACKBONE|DICT|INTERRES
   205  104  105 1    
   206  104  225 1    
   207  105  106 1    
   208  105  107 1    
   209  105  226 1    
   210  106  227 1    
   211  106  228 1    
   212  106  229 1    
   213  107  108 2    
   214  107  109 am   BACKBONE|DICT|INTERRES
   215  109  110 1    
   216  109  230 1    
   217  110  111 1    
   218  110  112 1    
   219  110  231 1    
   220  111  232 1    
   221  111  233 1    
   222  111  234 1    
   223  112  113 2    
   224  112  114 am   BACKBONE|DICT|INTERRES
   225  114  115 1    
   226  114  235 1    
   227  115  116 1    
   228  115  117 1    
   229  115  236 1    
   230  116  237 1    
   231  116  238 1    
   232  116  239 1    
   233  117  118 2    
   234  117  119 am   BACKBONE|DICT|INTERRES
   235  119  120 1    
   236  119  240 1    
   237  120  121 1    
   238  120  124 1    
   239  120  241 1    
   240  121  122 am   BACKBONE|DICT|INTERRES
   241  121  123 2    
   242  122  242 1    
   243  122  243 1    
   244  124  125 1    
   245  124  244 1    
   246  124  245 1    
   247  125  126 1    
   248  126  246 1    
   249  126  247 1    
@<TRIPOS>SUBSTRUCTURE
     1 UNK         1 GROUP             0       ****    0 ROOT    
