@<TRIPOS>MOLECULE
3R540
247   249    1
SMALL
USER_CHARGES


@<TRIPOS>ATOM
      1 CA         -0.3110   -9.8913  -51.4829 C.3       0 UNK        -0.1800 
      2 C          -0.1322  -10.7617  -50.2482 C.2       0 UNK         0.5000 
      3 O          -0.4033  -10.3090  -49.1372 O.2       0 UNK        -0.5000 
      4 N           0.3033  -12.0146  -50.4355 N.am      1 UNK        -0.5000 
      5 CA          0.5480  -12.9978  -49.3698 C.3       1 UNK         0.1400 
      6 C6          1.2210  -14.2773  -49.9343 C.3       23 UNK        -0.0398 
      7 S7          2.4549  -14.9951  -48.7989 S.3       23 UNK        -0.2404 
      8 C8          1.5624  -16.4170  -48.0981 C.3       23 UNK        -0.0205 
      9 C9          1.8234  -17.7115  -48.8545 C.ar      23 UNK        -0.0193 
     10 C10         1.2710  -17.9128  -50.1197 C.ar      23 UNK        -0.1150 
     11 C11         1.4881  -19.1030  -50.8164 C.ar      23 UNK        -0.0193 
     12 C12         2.2346  -20.1208  -50.2160 C.ar      23 UNK        -0.1150 
     13 C13         2.7796  -19.9466  -48.9395 C.ar      23 UNK        -0.0193 
     14 C14         2.5904  -18.7283  -48.2761 C.ar      23 UNK        -0.1150 
     15 C15         3.5866  -21.0734  -48.3005 C.3       23 UNK        -0.0205 
     16 S16         3.1229  -21.4237  -46.5701 S.3       23 UNK        -0.2404 
     17 C17         1.4204  -22.0695  -46.7266 C.3       23 UNK        -0.0398 
     18 CA          1.3017  -23.6048  -46.5215 C.3       11 UNK         0.1400 
     19 N           2.0316  -24.0960  -45.3488 N.am      11 UNK        -0.5000 
     20 C           2.3852  -25.3729  -45.1464 C.2       10 UNK         0.5000 
     21 O           2.1827  -26.2742  -45.9596 O.2       10 UNK        -0.5000 
     22 CA          3.0643  -25.7045  -43.8035 C.3       10 UNK         0.1400 
     23 CB          4.5869  -25.5353  -43.9166 C.3       10 UNK        -0.1800 
     24 N           2.5724  -24.8785  -42.7002 N.am      10 UNK        -0.5000 
     25 C           1.3492  -24.9756  -42.1593 C.2       9 UNK         0.5000 
     26 O           0.5226  -25.8282  -42.4823 O.2       9 UNK        -0.5000 
     27 CA          0.9755  -23.9135  -41.1041 C.3       9 UNK         0.1400 
     28 CB          1.3373  -24.4063  -39.6951 C.3       9 UNK        -0.1800 
     29 N           1.5998  -22.6042  -41.3322 N.am      9 UNK        -0.5000 
     30 C           1.4453  -21.8628  -42.4373 C.2       8 UNK         0.5000 
     31 O           0.7571  -22.2130  -43.3988 O.2       8 UNK        -0.5000 
     32 CA          2.2523  -20.5547  -42.5022 C.3       8 UNK         0.1400 
     33 CB          3.7499  -20.8574  -42.6777 C.3       8 UNK        -0.1800 
     34 N           1.8199  -19.7148  -43.6171 N.am      8 UNK        -0.5000 
     35 C           0.7161  -18.9595  -43.6233 C.2       7 UNK         0.5000 
     36 O          -0.0401  -18.8328  -42.6575 O.2       7 UNK        -0.5000 
     37 CA          0.4223  -18.1982  -44.9300 C.3       7 UNK         0.1400 
     38 CB         -0.9339  -18.6094  -45.5247 C.3       7 UNK        -0.1800 
     39 N           0.4422  -16.7479  -44.7333 N.am      7 UNK        -0.5000 
     40 C           1.5032  -16.0325  -44.3314 C.2       6 UNK         0.5000 
     41 O           2.6091  -16.5271  -44.1094 O.2       6 UNK        -0.5000 
     42 CA          1.3244  -14.5087  -44.1828 C.3       6 UNK         0.1400 
     43 CB          2.3041  -13.7385  -45.0830 C.3       6 UNK        -0.1800 
     44 N          -0.0278  -14.0404  -44.4846 N.am      6 UNK        -0.5000 
     45 C          -1.0298  -13.9678  -43.5999 C.2       5 UNK         0.5000 
     46 O          -0.9666  -14.4195  -42.4554 O.2       5 UNK        -0.5000 
     47 CA         -2.2917  -13.2266  -44.0880 C.3       5 UNK         0.1400 
     48 CB         -3.2947  -12.9132  -42.9591 C.3       5 UNK        -0.1800 
     49 N          -1.9484  -12.0122  -44.8363 N.am      5 UNK        -0.5000 
     50 C          -1.2486  -10.9493  -44.4063 C.2       4 UNK         0.5000 
     51 O          -0.8555  -10.8017  -43.2486 O.2       4 UNK        -0.5000 
     52 CA         -0.9034   -9.8741  -45.4564 C.3       4 UNK         0.1400 
     53 CB          0.5560  -10.0331  -45.9120 C.3       4 UNK        -0.1800 
     54 N          -1.7672   -9.9244  -46.6358 N.am      4 UNK        -0.5000 
     55 C          -3.0568   -9.5632  -46.6617 C.2       3 UNK         0.5000 
     56 O          -3.6460   -9.0475  -45.7114 O.2       3 UNK        -0.5000 
     57 CA         -3.8247   -9.8807  -47.9567 C.3       3 UNK         0.1400 
     58 CB         -3.6243   -8.7721  -49.0016 C.3       3 UNK        -0.1800 
     59 N          -3.4326  -11.1719  -48.5286 N.am      3 UNK        -0.5000 
     60 C          -3.7287  -12.3645  -47.9913 C.2       2 UNK         0.5000 
     61 O          -4.3722  -12.5066  -46.9524 O.2       2 UNK        -0.5000 
     62 CA         -3.2034  -13.6085  -48.7278 C.3       2 UNK         0.1400 
     63 CB         -4.1721  -13.9979  -49.8560 C.3       2 UNK        -0.1800 
     64 N          -1.8670  -13.4092  -49.2868 N.am      2 UNK        -0.5000 
     65 C          -0.7343  -13.3327  -48.5717 C.2       1 UNK         0.5000 
     66 O          -0.6833  -13.4700  -47.3468 O.2       1 UNK        -0.5000 
     67 C          -0.1773  -24.0223  -46.4097 C.2       11 UNK         0.5000 
     68 O          -0.7301  -24.6044  -47.3425 O.2       11 UNK        -0.5000 
     69 N          -0.7627  -23.7692  -45.2291 N.am      12 UNK        -0.5000 
     70 CA         -2.1522  -24.0347  -44.8430 C.3       12 UNK         0.1400 
     71 CB         -2.4343  -23.3100  -43.5172 C.3       12 UNK        -0.1800 
     72 C          -2.5480  -25.5247  -44.7586 C.2       12 UNK         0.5000 
     73 O          -3.6939  -25.8242  -44.4198 O.2       12 UNK        -0.5000 
     74 N          -1.6220  -26.4356  -45.0844 N.am      13 UNK        -0.5000 
     75 CA         -1.9018  -27.8449  -45.3532 C.3       13 UNK         0.1400 
     76 CB         -0.5715  -28.6082  -45.4358 C.3       13 UNK        -0.1800 
     77 C          -2.7254  -28.0388  -46.6454 C.2       13 UNK         0.5000 
     78 O          -3.4762  -29.0106  -46.7428 O.2       13 UNK        -0.5000 
     79 N          -2.5844  -27.1077  -47.5995 N.am      14 UNK        -0.5000 
     80 CA         -3.4004  -27.0114  -48.8077 C.3       14 UNK         0.1400 
     81 CB         -2.5108  -26.4919  -49.9498 C.3       14 UNK        -0.1800 
     82 C          -4.6023  -26.0724  -48.5818 C.2       14 UNK         0.5000 
     83 O          -4.6672  -25.3713  -47.5690 O.2       14 UNK        -0.5000 
     84 N          -5.5272  -26.0516  -49.5500 N.am      15 UNK        -0.5000 
     85 CA         -6.6281  -25.0866  -49.6200 C.3       15 UNK         0.1400 
     86 CB         -7.6284  -25.5551  -50.6878 C.3       15 UNK        -0.1800 
     87 C          -6.1111  -23.6759  -49.9607 C.2       15 UNK         0.5000 
     88 O          -5.0704  -23.5570  -50.6111 O.2       15 UNK        -0.5000 
     89 N          -6.8619  -22.6378  -49.5606 N.am      16 UNK        -0.5000 
     90 CA         -6.5273  -21.2086  -49.6917 C.3       16 UNK         0.1400 
     91 CB         -7.7171  -20.3669  -49.2090 C.3       16 UNK        -0.1800 
     92 C          -6.0954  -20.7557  -51.1006 C.2       16 UNK         0.5000 
     93 O          -5.2282  -19.8872  -51.2240 O.2       16 UNK        -0.5000 
     94 N          -6.6644  -21.3976  -52.1299 N.am      17 UNK        -0.5000 
     95 CA         -6.3201  -21.2205  -53.5403 C.3       17 UNK         0.1400 
     96 CB         -7.2175  -22.1301  -54.3921 C.3       17 UNK        -0.1800 
     97 C          -4.8349  -21.4884  -53.8563 C.2       17 UNK         0.5000 
     98 O          -4.2773  -20.8184  -54.7236 O.2       17 UNK        -0.5000 
     99 N          -4.2198  -22.4346  -53.1369 N.am      18 UNK        -0.5000 
    100 CA        -2.8064  -22.7870  -53.2539 C.3       18 UNK         0.1400 
    101 CB        -2.6879  -24.3116  -53.3930 C.3       18 UNK        -0.1800 
    102 C         -1.9956  -22.2985  -52.0420 C.2       18 UNK         0.5000 
    103 O         -0.8295  -21.9483  -52.2073 O.2       18 UNK        -0.5000 
    104 N         -2.6119  -22.2870  -50.8531 N.am      19 UNK        -0.5000 
    105 CA        -1.9702  -21.9570  -49.5807 C.3       19 UNK         0.1400 
    106 CB        -2.8285  -22.5019  -48.4330 C.3       19 UNK        -0.1800 
    107 C         -1.7321  -20.4576  -49.3530 C.2       19 UNK         0.5000 
    108 O         -0.8663  -20.1197  -48.5483 O.2       19 UNK        -0.5000 
    109 N         -2.5211  -19.5954  -50.0059 N.am      20 UNK        -0.5000 
    110 CA        -2.4775  -18.1483  -49.8043 C.3       20 UNK         0.1400 
    111 CB        -3.6451  -17.7245  -48.8990 C.3       20 UNK        -0.1800 
    112 C         -2.4935  -17.3898  -51.1371 C.2       20 UNK         0.5000 
    113 O         -1.7198  -16.4459  -51.2961 O.2       20 UNK        -0.5000 
    114 N         -3.3624  -17.8010  -52.0721 N.am      21 UNK        -0.5000 
    115 CA        -3.4900  -17.1593  -53.3855 C.3       21 UNK         0.1400 
    116 CB        -4.9083  -17.3849  -53.9259 C.3       21 UNK        -0.1800 
    117 C         -2.4236  -17.6196  -54.4019 C.2       21 UNK         0.5000 
    118 O         -2.1852  -16.9082  -55.3788 O.2       21 UNK        -0.5000 
    119 N         -1.7943  -18.7756  -54.1474 N.am      22 UNK        -0.5000 
    120 CA        -0.6927  -19.3658  -54.9330 C.3       22 UNK         0.1400 
    121 C         -1.0954  -19.8338  -56.3672 C.2       22 UNK         0.5000 
    122 N         -2.3454  -20.1965  -56.6188 N.am      22 UNK        -0.7600 
    123 O         -0.2630  -19.8946  -57.2688 O.2       22 UNK        -0.5000 
    124 C124        0.5936  -18.4828  -54.9490 C.3       23 UNK        -0.0398 
    125 S125        1.2728  -17.9386  -53.3385 S.3       23 UNK        -0.2404 
    126 C126        0.8786  -19.3033  -52.1957 C.3       23 UNK        -0.0205 
    127 H127        0.3124   -9.0007  -51.4055 H         1 UNK         0.0600 
    128 H128       -1.3501   -9.5741  -51.5704 H         1 UNK         0.0600 
    129 H129       -0.0377  -10.4204  -52.3959 H         1 UNK         0.0600 
    130 H130        0.5046  -12.3245  -51.3756 H         1 UNK         0.3000 
    131 H131        1.2381  -12.5171  -48.6726 H         1 UNK         0.0600 
    132 H132        0.4800  -15.0176  -50.2343 H         1 UNK         0.0800 
    133 H133        1.7713  -14.0423  -50.8465 H         1 UNK         0.0800 
    134 H134        1.9010  -16.5278  -47.0708 H         1 UNK         0.0800 
    135 H135        0.4910  -16.2173  -48.0482 H         1 UNK         0.0800 
    136 H136        0.6693  -17.1436  -50.5751 H         1 UNK         0.1150 
    137 H137        2.3842  -21.0536  -50.7412 H         1 UNK         0.1150 
    138 H138        3.0248  -18.5818  -47.2976 H         1 UNK         0.1150 
    139 H139        3.4922  -21.9946  -48.8776 H         1 UNK         0.0800 
    140 H140        4.6417  -20.7994  -48.3289 H         1 UNK         0.0800 
    141 H141        1.0200  -21.7963  -47.7036 H         1 UNK         0.0800 
    142 H142        0.8122  -21.5296  -45.9994 H         1 UNK         0.0800 
    143 H143        1.7203  -24.0884  -47.4069 H         1 UNK         0.0600 
    144 H144        2.1835  -23.4226  -44.6116 H         1 UNK         0.3000 
    145 H145        2.8513  -26.7503  -43.5714 H         1 UNK         0.0600 
    146 H146        5.0866  -25.8313  -42.9940 H         1 UNK         0.0600 
    147 H147        4.9899  -26.1570  -44.7172 H         1 UNK         0.0600 
    148 H148        4.8630  -24.5022  -44.1327 H         1 UNK         0.0600 
    149 H149        3.1899  -24.1564  -42.3609 H         1 UNK         0.3000 
    150 H150       -0.1057  -23.7743  -41.1459 H         1 UNK         0.0600 
    151 H151        2.4141  -24.5333  -39.5767 H         1 UNK         0.0600 
    152 H152        0.8681  -25.3687  -39.4855 H         1 UNK         0.0600 
    153 H153        0.9947  -23.7072  -38.9320 H         1 UNK         0.0600 
    154 H154        2.1893  -22.2564  -40.5896 H         1 UNK         0.3000 
    155 H155        2.1072  -20.0091  -41.5675 H         1 UNK         0.0600 
    156 H156        3.9419  -21.4437  -43.5772 H         1 UNK         0.0600 
    157 H157        4.1436  -21.4194  -41.8301 H         1 UNK         0.0600 
    158 H158        4.3309  -19.9377  -42.7491 H         1 UNK         0.0600 
    159 H159        2.3761  -19.7761  -44.4574 H         1 UNK         0.3000 
    160 H160        1.1935  -18.4481  -45.6603 H         1 UNK         0.0600 
    161 H161       -1.7623  -18.3399  -44.8687 H         1 UNK         0.0600 
    162 H162       -0.9783  -19.6876  -45.6841 H         1 UNK         0.0600 
    163 H163       -1.1003  -18.1346  -46.4921 H         1 UNK         0.0600 
    164 H164       -0.4297  -16.2594  -44.8673 H         1 UNK         0.3000 
    165 H165        1.5645  -14.2640  -43.1460 H         1 UNK         0.0600 
    166 H166        3.3342  -14.0568  -44.9185 H         1 UNK         0.0600 
    167 H167        2.0761  -13.8860  -46.1376 H         1 UNK         0.0600 
    168 H168        2.2609  -12.6680  -44.8816 H         1 UNK         0.0600 
    169 H169       -0.1860  -13.6893  -45.4252 H         1 UNK         0.3000 
    170 H170       -2.7866  -13.8936  -44.7953 H         1 UNK         0.0600 
    171 H171       -3.6427  -13.8297  -42.4815 H         1 UNK         0.0600 
    172 H172       -2.8526  -12.2879  -42.1831 H         1 UNK         0.0600 
    173 H173       -4.1724  -12.3962  -43.3473 H         1 UNK         0.0600 
    174 H174       -2.2056  -12.0246  -45.8132 H         1 UNK         0.3000 
    175 H175       -1.0158   -8.8962  -44.9840 H         1 UNK         0.0600 
    176 H176        0.8379   -9.2478  -46.6136 H         1 UNK         0.0600 
    177 H177        1.2410   -9.9749  -45.0652 H         1 UNK         0.0600 
    178 H178        0.7199  -10.9936  -46.4026 H         1 UNK         0.0600 
    179 H179       -1.3407  -10.2631  -47.4951 H         1 UNK         0.3000 
    180 H180       -4.8879   -9.9264  -47.7112 H         1 UNK         0.0600 
    181 H181       -2.5779   -8.6700  -49.2903 H         1 UNK         0.0600 
    182 H182       -3.9507   -7.8074  -48.6112 H         1 UNK         0.0600 
    183 H183       -4.2039   -8.9701  -49.9033 H         1 UNK         0.0600 
    184 H184       -2.8627  -11.1434  -49.3605 H         1 UNK         0.3000 
    185 H185       -3.1553  -14.4284  -48.0086 H         1 UNK         0.0600 
    186 H186       -5.1644  -14.2162  -49.4592 H         1 UNK         0.0600 
    187 H187       -4.2808  -13.1981  -50.5896 H         1 UNK         0.0600 
    188 H188       -3.8337  -14.8865  -50.3858 H         1 UNK         0.0600 
    189 H189       -1.8089  -13.2919  -50.2878 H         1 UNK         0.3000 
    190 H190       -0.2042  -23.2925  -44.5234 H         1 UNK         0.3000 
    191 H191       -2.7947  -23.5951  -45.6068 H         1 UNK         0.0600 
    192 H192       -2.1952  -22.2484  -43.5865 H         1 UNK         0.0600 
    193 H193       -3.4863  -23.3873  -43.2405 H         1 UNK         0.0600 
    194 H194       -1.8485  -23.7341  -42.7025 H         1 UNK         0.0600 
    195 H195       -0.6989  -26.1044  -45.3237 H         1 UNK         0.3000 
    196 H196       -2.4809  -28.2475  -44.5197 H         1 UNK         0.0600 
    197 H197       -0.7416  -29.6730  -45.5997 H         1 UNK         0.0600 
    198 H198       -0.0010  -28.5069  -44.5121 H         1 UNK         0.0600 
    199 H199        0.0506  -28.2438  -46.2545 H         1 UNK         0.0600 
    200 H200       -1.9823  -26.3127  -47.4143 H         1 UNK         0.3000 
    201 H201       -3.7793  -27.9980  -49.0822 H         1 UNK         0.0600 
    202 H202       -3.0518  -26.4882  -50.8956 H         1 UNK         0.0600 
    203 H203       -2.1625  -25.4751  -49.7642 H         1 UNK         0.0600 
    204 H204       -1.6334  -27.1245  -50.0847 H         1 UNK         0.0600 
    205 H205       -5.3911  -26.6292  -50.3662 H         1 UNK         0.3000 
    206 H206       -7.1300  -25.0549  -48.6507 H         1 UNK         0.0600 
    207 H207       -8.0158  -26.5476  -50.4566 H         1 UNK         0.0600 
    208 H208       -8.4837  -24.8809  -50.7482 H         1 UNK         0.0600 
    209 H209       -7.1718  -25.5951  -51.6778 H         1 UNK         0.0600 
    210 H210       -7.7145  -22.8374  -49.0574 H         1 UNK         0.3000 
    211 H211       -5.6906  -21.0049  -49.0239 H         1 UNK         0.0600 
    212 H212       -8.6105  -20.5532  -49.8064 H         1 UNK         0.0600 
    213 H213       -7.4947  -19.3006  -49.2740 H         1 UNK         0.0600 
    214 H214       -7.9574  -20.5826  -48.1678 H         1 UNK         0.0600 
    215 H215       -7.3554  -22.1026  -51.9208 H         1 UNK         0.3000 
    216 H216       -6.5397  -20.1854  -53.8040 H         1 UNK         0.0600 
    217 H217       -7.0022  -22.0070  -55.4545 H         1 UNK         0.0600 
    218 H218       -8.2717  -21.8938  -54.2464 H         1 UNK         0.0600 
    219 H219       -7.0714  -23.1830  -54.1471 H         1 UNK         0.0600 
    220 H220       -4.7397  -22.9053  -52.4029 H         1 UNK         0.3000 
    221 H221       -2.3682  -22.3337  -54.1455 H         1 UNK         0.0600 
    222 H222       -3.1475  -24.8255  -52.5491 H         1 UNK         0.0600 
    223 H223       -3.1770  -24.6609  -54.3024 H         1 UNK         0.0600 
    224 H224       -1.6438  -24.6234  -53.4434 H         1 UNK         0.0600 
    225 H225       -3.5582  -22.6565  -50.7918 H         1 UNK         0.3000 
    226 H226       -0.9981  -22.4537  -49.5442 H         1 UNK         0.0600 
    227 H227       -2.3849  -22.2586  -47.4679 H         1 UNK         0.0600 
    228 H228       -3.8326  -22.0846  -48.4389 H         1 UNK         0.0600 
    229 H229       -2.9167  -23.5844  -48.4899 H         1 UNK         0.0600 
    230 H230       -3.2481  -19.9529  -50.6135 H         1 UNK         0.3000 
    231 H231       -1.5502  -17.8647  -49.3020 H         1 UNK         0.0600 
    232 H232       -4.6120  -17.9454  -49.3522 H         1 UNK         0.0600 
    233 H233       -3.6126  -16.6559  -48.6941 H         1 UNK         0.0600 
    234 H234       -3.6014  -18.2376  -47.9381 H         1 UNK         0.0600 
    235 H235       -4.0217  -18.5433  -51.8548 H         1 UNK         0.3000 
    236 H236       -3.3631  -16.0818  -53.2590 H         1 UNK         0.0600 
    237 H237       -5.0541  -16.8603  -54.8708 H         1 UNK         0.0600 
    238 H238       -5.1037  -18.4384  -54.1056 H         1 UNK         0.0600 
    239 H239       -5.6611  -17.0171  -53.2284 H         1 UNK         0.0600 
    240 H240       -2.0882  -19.2967  -53.3367 H         1 UNK         0.3000 
    241 H241       -0.4383  -20.2951  -54.4249 H         1 UNK         0.0600 
    242 H242       -3.0446  -20.2416  -55.8783 H         1 UNK         0.3800 
    243 H243       -2.5918  -20.4983  -57.5472 H         1 UNK         0.3800 
    244 H244        0.4235  -17.5885  -55.5500 H         1 UNK         0.0800 
    245 H245        1.4002  -19.0206  -55.4499 H         1 UNK         0.0800 
    246 H246       -0.2001  -19.3799  -52.0713 H         1 UNK         0.0800 
    247 H247        1.2230  -20.2417  -52.6324 H         1 UNK         0.0800 
@<TRIPOS>BOND
     1    1    2 1    
     2    1  127 1    
     3    1  128 1    
     4    1  129 1    
     5    2    3 2    
     6    2    4 am   BACKBONE|DICT|INTERRES
     7    4    5 1    
     8    4  130 1    
     9    5    6 1    
    10    5   65 1    
    11    5  131 1    
    12    6    7 1    
    13    6  132 1    
    14    6  133 1    
    15    7    8 1    
    16    8    9 1    
    17    8  134 1    
    18    8  135 1    
    19    9   10 ar   
    20    9   14 ar   
    21   10   11 ar   
    22   10  136 1    
    23   11   12 ar   
    24   11  126 1    
    25   12   13 ar   
    26   12  137 1    
    27   13   14 ar   
    28   13   15 1    
    29   14  138 1    
    30   15   16 1    
    31   15  139 1    
    32   15  140 1    
    33   16   17 1    
    34   17   18 1    
    35   17  141 1    
    36   17  142 1    
    37   18   19 1    
    38   18   67 1    
    39   18  143 1    
    40   19   20 am   BACKBONE|DICT|INTERRES
    41   19  144 1    
    42   20   21 2    
    43   20   22 1    
    44   22   23 1    
    45   22   24 1    
    46   22  145 1    
    47   23  146 1    
    48   23  147 1    
    49   23  148 1    
    50   24   25 am   BACKBONE|DICT|INTERRES
    51   24  149 1    
    52   25   26 2    
    53   25   27 1    
    54   27   28 1    
    55   27   29 1    
    56   27  150 1    
    57   28  151 1    
    58   28  152 1    
    59   28  153 1    
    60   29   30 am   BACKBONE|DICT|INTERRES
    61   29  154 1    
    62   30   31 2    
    63   30   32 1    
    64   32   33 1    
    65   32   34 1    
    66   32  155 1    
    67   33  156 1    
    68   33  157 1    
    69   33  158 1    
    70   34   35 am   BACKBONE|DICT|INTERRES
    71   34  159 1    
    72   35   36 2    
    73   35   37 1    
    74   37   38 1    
    75   37   39 1    
    76   37  160 1    
    77   38  161 1    
    78   38  162 1    
    79   38  163 1    
    80   39   40 am   BACKBONE|DICT|INTERRES
    81   39  164 1    
    82   40   41 2    
    83   40   42 1    
    84   42   43 1    
    85   42   44 1    
    86   42  165 1    
    87   43  166 1    
    88   43  167 1    
    89   43  168 1    
    90   44   45 am   BACKBONE|DICT|INTERRES
    91   44  169 1    
    92   45   46 2    
    93   45   47 1    
    94   47   48 1    
    95   47   49 1    
    96   47  170 1    
    97   48  171 1    
    98   48  172 1    
    99   48  173 1    
   100   49   50 am   BACKBONE|DICT|INTERRES
   101   49  174 1    
   102   50   51 2    
   103   50   52 1    
   104   52   53 1    
   105   52   54 1    
   106   52  175 1    
   107   53  176 1    
   108   53  177 1    
   109   53  178 1    
   110   54   55 am   BACKBONE|DICT|INTERRES
   111   54  179 1    
   112   55   56 2    
   113   55   57 1    
   114   57   58 1    
   115   57   59 1    
   116   57  180 1    
   117   58  181 1    
   118   58  182 1    
   119   58  183 1    
   120   59   60 am   BACKBONE|DICT|INTERRES
   121   59  184 1    
   122   60   61 2    
   123   60   62 1    
   124   62   63 1    
   125   62   64 1    
   126   62  185 1    
   127   63  186 1    
   128   63  187 1    
   129   63  188 1    
   130   64   65 am   BACKBONE|DICT|INTERRES
   131   64  189 1    
   132   65   66 2    
   133   67   68 2    
   134   67   69 am   BACKBONE|DICT|INTERRES
   135   69   70 1    
   136   69  190 1    
   137   70   71 1    
   138   70   72 1    
   139   70  191 1    
   140   71  192 1    
   141   71  193 1    
   142   71  194 1    
   143   72   73 2    
   144   72   74 am   BACKBONE|DICT|INTERRES
   145   74   75 1    
   146   74  195 1    
   147   75   76 1    
   148   75   77 1    
   149   75  196 1    
   150   76  197 1    
   151   76  198 1    
   152   76  199 1    
   153   77   78 2    
   154   77   79 am   BACKBONE|DICT|INTERRES
   155   79   80 1    
   156   79  200 1    
   157   80   81 1    
   158   80   82 1    
   159   80  201 1    
   160   81  202 1    
   161   81  203 1    
   162   81  204 1    
   163   82   83 2    
   164   82   84 am   BACKBONE|DICT|INTERRES
   165   84   85 1    
   166   84  205 1    
   167   85   86 1    
   168   85   87 1    
   169   85  206 1    
   170   86  207 1    
   171   86  208 1    
   172   86  209 1    
   173   87   88 2    
   174   87   89 am   BACKBONE|DICT|INTERRES
   175   89   90 1    
   176   89  210 1    
   177   90   91 1    
   178   90   92 1    
   179   90  211 1    
   180   91  212 1    
   181   91  213 1    
   182   91  214 1    
   183   92   93 2    
   184   92   94 am   BACKBONE|DICT|INTERRES
   185   94   95 1    
   186   94  215 1    
   187   95   96 1    
   188   95   97 1    
   189   95  216 1    
   190   96  217 1    
   191   96  218 1    
   192   96  219 1    
   193   97   98 2    
   194   97   99 am   BACKBONE|DICT|INTERRES
   195   99  100 1    
   196   99  220 1    
   197  100  101 1    
   198  100  102 1    
   199  100  221 1    
   200  101  222 1    
   201  101  223 1    
   202  101  224 1    
   203  102  103 2    
   204  102  104 am   BACKBONE|DICT|INTERRES
   205  104  105 1    
   206  104  225 1    
   207  105  106 1    
   208  105  107 1    
   209  105  226 1    
   210  106  227 1    
   211  106  228 1    
   212  106  229 1    
   213  107  108 2    
   214  107  109 am   BACKBONE|DICT|INTERRES
   215  109  110 1    
   216  109  230 1    
   217  110  111 1    
   218  110  112 1    
   219  110  231 1    
   220  111  232 1    
   221  111  233 1    
   222  111  234 1    
   223  112  113 2    
   224  112  114 am   BACKBONE|DICT|INTERRES
   225  114  115 1    
   226  114  235 1    
   227  115  116 1    
   228  115  117 1    
   229  115  236 1    
   230  116  237 1    
   231  116  238 1    
   232  116  239 1    
   233  117  118 2    
   234  117  119 am   BACKBONE|DICT|INTERRES
   235  119  120 1    
   236  119  240 1    
   237  120  121 1    
   238  120  124 1    
   239  120  241 1    
   240  121  122 am   BACKBONE|DICT|INTERRES
   241  121  123 2    
   242  122  242 1    
   243  122  243 1    
   244  124  125 1    
   245  124  244 1    
   246  124  245 1    
   247  125  126 1    
   248  126  246 1    
   249  126  247 1    
@<TRIPOS>SUBSTRUCTURE
     1 UNK         1 GROUP             0       ****    0 ROOT    
