@<TRIPOS>MOLECULE
3R540
247   249    1
SMALL
USER_CHARGES


@<TRIPOS>ATOM
      1 CA         -3.7633  -14.5691  -48.7200 C.3       0 UNK        -0.1800 
      2 C          -2.9704  -15.0741  -47.5240 C.2       0 UNK         0.5000 
      3 O          -3.0111  -14.4529  -46.4634 O.2       0 UNK        -0.5000 
      4 N          -2.2533  -16.1932  -47.6943 N.am      1 UNK        -0.5000 
      5 CA         -1.3020  -16.7703  -46.7335 C.3       1 UNK         0.1400 
      6 C6         -0.5946  -18.0318  -47.2998 C.3       23 UNK        -0.0398 
      7 S7         -1.7211  -19.4172  -47.7144 S.3       23 UNK        -0.2404 
      8 C8         -1.8805  -19.2843  -49.5212 C.3       23 UNK        -0.0205 
      9 C9         -0.6434  -19.7960  -50.2420 C.ar      23 UNK        -0.0193 
     10 C10         0.1536  -18.9286  -50.9934 C.ar      23 UNK        -0.1150 
     11 C11         1.2963  -19.4002  -51.6461 C.ar      23 UNK        -0.0193 
     12 C12         1.6629  -20.7430  -51.5056 C.ar      23 UNK        -0.1150 
     13 C13         0.8742  -21.6203  -50.7561 C.ar      23 UNK        -0.0193 
     14 C14        -0.2932  -21.1450  -50.1528 C.ar      23 UNK        -0.1150 
     15 C15         1.2861  -23.0770  -50.5929 C.3       23 UNK        -0.0205 
     16 S16         2.2299  -23.3516  -49.0544 S.3       23 UNK        -0.2404 
     17 C17         0.9149  -23.1597  -47.8045 C.3       23 UNK        -0.0398 
     18 CA          1.2263  -23.8393  -46.4463 C.3       11 UNK         0.1400 
     19 N           2.4280  -23.2861  -45.8122 N.am      11 UNK        -0.5000 
     20 C           3.2312  -23.9387  -44.9588 C.2       10 UNK         0.5000 
     21 O           3.0533  -25.1130  -44.6336 O.2       10 UNK        -0.5000 
     22 CA          4.3928  -23.1509  -44.3188 C.3       10 UNK         0.1400 
     23 CB          5.6957  -23.3945  -45.0949 C.3       10 UNK        -0.1800 
     24 N           4.1455  -21.7112  -44.2477 N.am      10 UNK        -0.5000 
     25 C           3.1944  -21.1184  -43.5109 C.2       9 UNK         0.5000 
     26 O           2.4907  -21.7157  -42.6963 O.2       9 UNK        -0.5000 
     27 CA          2.9680  -19.6107  -43.7515 C.3       9 UNK         0.1400 
     28 CB          3.5737  -18.7753  -42.6138 C.3       9 UNK        -0.1800 
     29 N           3.4985  -19.1265  -45.0304 N.am      9 UNK        -0.5000 
     30 C           3.0811  -19.5112  -46.2433 C.2       8 UNK         0.5000 
     31 O           2.2067  -20.3609  -46.4108 O.2       8 UNK        -0.5000 
     32 CA          3.7681  -18.8453  -47.4555 C.3       8 UNK         0.1400 
     33 CB          3.1883  -19.3283  -48.7926 C.3       8 UNK        -0.1800 
     34 N           3.6703  -17.3867  -47.4035 N.am      8 UNK        -0.5000 
     35 C           4.3989  -16.5869  -46.6164 C.2       7 UNK         0.5000 
     36 O           5.2993  -16.9980  -45.8810 O.2       7 UNK        -0.5000 
     37 CA          4.0383  -15.0893  -46.5882 C.3       7 UNK         0.1400 
     38 CB          3.0419  -14.6470  -47.6862 C.3       7 UNK        -0.1800 
     39 N           3.5570  -14.7097  -45.2561 N.am      7 UNK        -0.5000 
     40 C           2.4749  -15.1892  -44.6249 C.2       6 UNK         0.5000 
     41 O           1.6883  -15.9970  -45.1252 O.2       6 UNK        -0.5000 
     42 CA          2.2408  -14.6795  -43.1933 C.3       6 UNK         0.1400 
     43 CB          2.2775  -13.1387  -43.1131 C.3       6 UNK        -0.1800 
     44 N           0.9482  -15.1576  -42.7170 N.am      6 UNK        -0.5000 
     45 C           0.5695  -15.2623  -41.4387 C.2       5 UNK         0.5000 
     46 O           1.3250  -15.0831  -40.4813 O.2       5 UNK        -0.5000 
     47 CA         -0.9283  -15.5604  -41.2181 C.3       5 UNK         0.1400 
     48 CB         -1.3676  -15.4809  -39.7415 C.3       5 UNK        -0.1800 
     49 N          -1.7578  -14.7005  -42.0705 N.am      5 UNK        -0.5000 
     50 C          -1.8190  -13.3586  -42.0625 C.2       4 UNK         0.5000 
     51 O          -1.2981  -12.6437  -41.2058 O.2       4 UNK        -0.5000 
     52 CA         -2.5620  -12.6960  -43.2370 C.3       4 UNK         0.1400 
     53 CB         -1.5639  -12.3162  -44.3423 C.3       4 UNK        -0.1800 
     54 N          -3.5954  -13.5563  -43.8105 N.am      4 UNK        -0.5000 
     55 C          -4.7896  -13.7849  -43.2481 C.2       3 UNK         0.5000 
     56 O          -5.1733  -13.2496  -42.2075 O.2       3 UNK        -0.5000 
     57 CA         -5.6920  -14.8076  -43.9571 C.3       3 UNK         0.1400 
     58 CB         -6.3617  -14.1938  -45.1969 C.3       3 UNK        -0.1800 
     59 N          -4.9392  -16.0004  -44.3430 N.am      3 UNK        -0.5000 
     60 C          -4.5764  -16.9727  -43.4944 C.2       2 UNK         0.5000 
     61 O          -4.8800  -16.9865  -42.3017 O.2       2 UNK        -0.5000 
     62 CA         -3.7306  -18.1251  -44.0670 C.3       2 UNK         0.1400 
     63 CB         -4.6066  -19.3547  -44.3551 C.3       2 UNK        -0.1800 
     64 N          -3.0155  -17.7606  -45.2889 N.am      2 UNK        -0.5000 
     65 C          -1.9063  -17.0124  -45.3320 C.2       1 UNK         0.5000 
     66 O          -1.3971  -16.4898  -44.3400 O.2       1 UNK        -0.5000 
     67 C           0.0160  -23.7636  -45.4839 C.2       11 UNK         0.5000 
     68 O          -1.0682  -23.3436  -45.8860 O.2       11 UNK        -0.5000 
     69 N           0.2054  -24.1753  -44.2228 N.am      12 UNK        -0.5000 
     70 CA         -0.7897  -24.1010  -43.1480 C.3       12 UNK         0.1400 
     71 CB         -0.1144  -24.4829  -41.8222 C.3       12 UNK        -0.1800 
     72 C          -2.0436  -24.9669  -43.3875 C.2       12 UNK         0.5000 
     73 O          -3.1046  -24.6639  -42.8410 O.2       12 UNK        -0.5000 
     74 N          -1.9002  -26.0210  -44.2011 N.am      13 UNK        -0.5000 
     75 CA         -2.9844  -26.9080  -44.6198 C.3       13 UNK         0.1400 
     76 CB         -2.3798  -28.2672  -45.0069 C.3       13 UNK        -0.1800 
     77 C          -3.8226  -26.3421  -45.7850 C.2       13 UNK         0.5000 
     78 O          -4.9138  -26.8571  -46.0348 O.2       13 UNK        -0.5000 
     79 N          -3.3100  -25.3259  -46.4937 N.am      14 UNK        -0.5000 
     80 CA         -3.9887  -24.6885  -47.6206 C.3       14 UNK         0.1400 
     81 CB         -2.9384  -24.1174  -48.5887 C.3       14 UNK        -0.1800 
     82 C          -4.9271  -23.5696  -47.1413 C.2       14 UNK         0.5000 
     83 O          -4.7189  -22.9911  -46.0717 O.2       14 UNK        -0.5000 
     84 N          -5.9231  -23.2551  -47.9755 N.am      15 UNK        -0.5000 
     85 CA         -6.7396  -22.0509  -47.8517 C.3       15 UNK         0.1400 
     86 CB         -8.0473  -22.2553  -48.6325 C.3       15 UNK        -0.1800 
     87 C          -5.9728  -20.8402  -48.4097 C.2       15 UNK         0.5000 
     88 O          -5.1418  -21.0036  -49.3063 O.2       15 UNK        -0.5000 
     89 N          -6.3122  -19.6386  -47.9234 N.am      16 UNK        -0.5000 
     90 CA         -5.7282  -18.3612  -48.3516 C.3       16 UNK         0.1400 
     91 CB         -6.3732  -17.2262  -47.5434 C.3       16 UNK        -0.1800 
     92 C          -5.8640  -18.0892  -49.8636 C.2       16 UNK         0.5000 
     93 O          -4.9698  -17.4889  -50.4594 O.2       16 UNK        -0.5000 
     94 N          -6.9526  -18.5965  -50.4595 N.am      17 UNK        -0.5000 
     95 CA         -7.2607  -18.5465  -51.8894 C.3       17 UNK         0.1400 
     96 CB         -8.6544  -19.1529  -52.1129 C.3       17 UNK        -0.1800 
     97 C          -6.2236  -19.2398  -52.7971 C.2       17 UNK         0.5000 
     98 O          -6.1698  -18.9231  -53.9865 O.2       17 UNK        -0.5000 
     99 N          -5.3930  -20.1372  -52.2389 N.am      18 UNK        -0.5000 
    100 CA        -4.2973  -20.7993  -52.9529 C.3       18 UNK         0.1400 
    101 CB        -3.7172  -21.9359  -52.0977 C.3       18 UNK        -0.1800 
    102 C         -3.1892  -19.8339  -53.4204 C.2       18 UNK         0.5000 
    103 O         -2.4459  -20.1880  -54.3347 O.2       18 UNK        -0.5000 
    104 N         -3.1392  -18.6130  -52.8601 N.am      19 UNK        -0.5000 
    105 CA        -2.2587  -17.5132  -53.2751 C.3       19 UNK         0.1400 
    106 CB        -2.4725  -16.3149  -52.3362 C.3       19 UNK        -0.1800 
    107 C         -2.4257  -17.0673  -54.7433 C.2       19 UNK         0.5000 
    108 O         -1.5372  -16.4028  -55.2765 O.2       19 UNK        -0.5000 
    109 N         -3.5417  -17.4491  -55.3800 N.am      20 UNK        -0.5000 
    110 CA        -3.7992  -17.2582  -56.8062 C.3       20 UNK         0.1400 
    111 CB        -5.2763  -17.5772  -57.0839 C.3       20 UNK        -0.1800 
    112 C         -2.8857  -18.0996  -57.7248 C.2       20 UNK         0.5000 
    113 O         -2.7669  -17.7630  -58.9041 O.2       20 UNK        -0.5000 
    114 N         -2.2725  -19.1686  -57.1941 N.am      21 UNK        -0.5000 
    115 CA        -1.4016  -20.0783  -57.9427 C.3       21 UNK         0.1400 
    116 CB        -2.1888  -21.3497  -58.3007 C.3       21 UNK        -0.1800 
    117 C         -0.1120  -20.4362  -57.1845 C.2       21 UNK         0.5000 
    118 O          0.9260  -20.6073  -57.8248 O.2       21 UNK        -0.5000 
    119 N         -0.1932  -20.5613  -55.8530 N.am      22 UNK        -0.5000 
    120 CA         0.8859  -20.9802  -54.9396 C.3       22 UNK         0.1400 
    121 C          1.3623  -22.4558  -55.1197 C.2       22 UNK         0.5000 
    122 N          0.5997  -23.3218  -55.7765 N.am      22 UNK        -0.7600 
    123 O          2.4213  -22.8389  -54.6299 O.2       22 UNK        -0.5000 
    124 C124        2.0648  -19.9670  -54.8689 C.3       23 UNK        -0.0398 
    125 S125        1.5558  -18.3448  -54.2031 S.3       23 UNK        -0.2404 
    126 C126        2.1446  -18.4514  -52.4804 C.3       23 UNK        -0.0205 
    127 H127       -3.2992  -13.6662  -49.1161 H         1 UNK         0.0600 
    128 H128       -4.7827  -14.3218  -48.4259 H         1 UNK         0.0600 
    129 H129       -3.8059  -15.3069  -49.5203 H         1 UNK         0.0600 
    130 H130       -2.2940  -16.6574  -48.5881 H         1 UNK         0.3000 
    131 H131       -0.5294  -16.0112  -46.5980 H         1 UNK         0.0600 
    132 H132       -0.0179  -17.7630  -48.1852 H         1 UNK         0.0800 
    133 H133        0.1410  -18.3991  -46.5818 H         1 UNK         0.0800 
    134 H134       -2.7459  -19.8663  -49.8329 H         1 UNK         0.0800 
    135 H135       -2.1002  -18.2542  -49.7937 H         1 UNK         0.0800 
    136 H136       -0.1124  -17.8847  -51.0723 H         1 UNK         0.1150 
    137 H137        2.5624  -21.1082  -51.9803 H         1 UNK         0.1150 
    138 H138       -0.9161  -21.8152  -49.5786 H         1 UNK         0.1150 
    139 H139        0.4061  -23.7217  -50.6109 H         1 UNK         0.0800 
    140 H140        1.9012  -23.3838  -51.4405 H         1 UNK         0.0800 
    141 H141        0.0060  -23.5884  -48.2269 H         1 UNK         0.0800 
    142 H142        0.7172  -22.0958  -47.6650 H         1 UNK         0.0800 
    143 H143        1.3945  -24.8994  -46.6467 H         1 UNK         0.0600 
    144 H144        2.5898  -22.3001  -45.9895 H         1 UNK         0.3000 
    145 H145        4.5227  -23.5222  -43.3002 H         1 UNK         0.0600 
    146 H146        6.5404  -22.9004  -44.6144 H         1 UNK         0.0600 
    147 H147        5.9281  -24.4592  -45.1429 H         1 UNK         0.0600 
    148 H148        5.6282  -23.0269  -46.1197 H         1 UNK         0.0600 
    149 H149        4.6798  -21.1308  -44.8765 H         1 UNK         0.3000 
    150 H150        1.8887  -19.4447  -43.7591 H         1 UNK         0.0600 
    151 H151        4.6597  -18.8702  -42.5800 H         1 UNK         0.0600 
    152 H152        3.1846  -19.0916  -41.6451 H         1 UNK         0.0600 
    153 H153        3.3312  -17.7189  -42.7297 H         1 UNK         0.0600 
    154 H154        4.2205  -18.4143  -44.9906 H         1 UNK         0.3000 
    155 H155        4.8219  -19.1298  -47.4287 H         1 UNK         0.0600 
    156 H156        2.1232  -19.1079  -48.8655 H         1 UNK         0.0600 
    157 H157        3.3057  -20.4068  -48.9043 H         1 UNK         0.0600 
    158 H158        3.6900  -18.8589  -49.6387 H         1 UNK         0.0600 
    159 H159        2.9182  -16.9715  -47.9323 H         1 UNK         0.3000 
    160 H160        4.9707  -14.5470  -46.7517 H         1 UNK         0.0600 
    161 H161        2.0703  -15.1331  -47.5945 H         1 UNK         0.0600 
    162 H162        3.4316  -14.8679  -48.6807 H         1 UNK         0.0600 
    163 H163        2.8728  -13.5711  -47.6424 H         1 UNK         0.0600 
    164 H164        4.1571  -14.0725  -44.7519 H         1 UNK         0.3000 
    165 H165        3.0290  -15.0964  -42.5634 H         1 UNK         0.0600 
    166 H166        3.2601  -12.7456  -43.3747 H         1 UNK         0.0600 
    167 H167        1.5500  -12.6874  -43.7887 H         1 UNK         0.0600 
    168 H168        2.0556  -12.7863  -42.1056 H         1 UNK         0.0600 
    169 H169        0.2975  -15.4256  -43.4500 H         1 UNK         0.3000 
    170 H170       -1.0938  -16.5844  -41.5560 H         1 UNK         0.0600 
    171 H171       -0.8299  -16.2125  -39.1375 H         1 UNK         0.0600 
    172 H172       -1.1760  -14.4987  -39.3089 H         1 UNK         0.0600 
    173 H173       -2.4319  -15.6919  -39.6369 H         1 UNK         0.0600 
    174 H174       -2.1624  -15.1725  -42.8700 H         1 UNK         0.3000 
    175 H175       -3.0304  -11.7813  -42.8676 H         1 UNK         0.0600 
    176 H176       -2.0644  -11.8151  -45.1710 H         1 UNK         0.0600 
    177 H177       -0.8005  -11.6360  -43.9629 H         1 UNK         0.0600 
    178 H178       -1.0540  -13.1944  -44.7420 H         1 UNK         0.0600 
    179 H179       -3.3733  -13.9971  -44.7010 H         1 UNK         0.3000 
    180 H180       -6.4811  -15.1002  -43.2609 H         1 UNK         0.0600 
    181 H181       -5.6318  -13.8919  -45.9481 H         1 UNK         0.0600 
    182 H182       -6.9386  -13.3083  -44.9278 H         1 UNK         0.0600 
    183 H183       -7.0501  -14.8992  -45.6621 H         1 UNK         0.0600 
    184 H184       -4.5941  -16.0360  -45.2904 H         1 UNK         0.3000 
    185 H185       -2.9964  -18.4021  -43.3073 H         1 UNK         0.0600 
    186 H186       -4.0067  -20.1933  -44.7106 H         1 UNK         0.0600 
    187 H187       -5.1231  -19.6862  -43.4535 H         1 UNK         0.0600 
    188 H188       -5.3655  -19.1454  -45.1085 H         1 UNK         0.0600 
    189 H189       -3.3384  -18.1784  -46.1492 H         1 UNK         0.3000 
    190 H190        1.1217  -24.5289  -43.9748 H         1 UNK         0.3000 
    191 H191       -1.1214  -23.0631  -43.0764 H         1 UNK         0.0600 
    192 H192        0.2659  -25.5049  -41.8447 H         1 UNK         0.0600 
    193 H193       -0.8159  -24.4107  -40.9900 H         1 UNK         0.0600 
    194 H194        0.7209  -23.8181  -41.6002 H         1 UNK         0.0600 
    195 H195       -0.9880  -26.1996  -44.5944 H         1 UNK         0.3000 
    196 H196       -3.6600  -27.0658  -43.7763 H         1 UNK         0.0600 
    197 H197       -3.1588  -28.9753  -45.2929 H         1 UNK         0.0600 
    198 H198       -1.8334  -28.7081  -44.1729 H         1 UNK         0.0600 
    199 H199       -1.6930  -28.1772  -45.8495 H         1 UNK         0.0600 
    200 H200       -2.4693  -24.8645  -46.1663 H         1 UNK         0.3000 
    201 H201       -4.5753  -25.4369  -48.1580 H         1 UNK         0.0600 
    202 H202       -3.4088  -23.7552  -49.5036 H         1 UNK         0.0600 
    203 H203       -2.4050  -23.2739  -48.1500 H         1 UNK         0.0600 
    204 H204       -2.2060  -24.8719  -48.8758 H         1 UNK         0.0600 
    205 H205       -5.9934  -23.7463  -48.8545 H         1 UNK         0.3000 
    206 H206       -6.9766  -21.8745  -46.8002 H         1 UNK         0.0600 
    207 H207       -8.5983  -23.1186  -48.2585 H         1 UNK         0.0600 
    208 H208       -8.7018  -21.3882  -48.5365 H         1 UNK         0.0600 
    209 H209       -7.8629  -22.4107  -49.6966 H         1 UNK         0.0600 
    210 H210       -7.0238  -19.5873  -47.2088 H         1 UNK         0.3000 
    211 H211       -4.6621  -18.3900  -48.1200 H         1 UNK         0.0600 
    212 H212       -7.4470  -17.1647  -47.7243 H         1 UNK         0.0600 
    213 H213       -5.9448  -16.2609  -47.8085 H         1 UNK         0.0600 
    214 H214       -6.2251  -17.3644  -46.4737 H         1 UNK         0.0600 
    215 H215       -7.6171  -19.0859  -49.8792 H         1 UNK         0.3000 
    216 H216       -7.2914  -17.4951  -52.1822 H         1 UNK         0.0600 
    217 H217       -8.9371  -19.1084  -53.1656 H         1 UNK         0.0600 
    218 H218       -9.4160  -18.6115  -51.5514 H         1 UNK         0.0600 
    219 H219       -8.6904  -20.1994  -51.8071 H         1 UNK         0.0600 
    220 H220       -5.4709  -20.3395  -51.2476 H         1 UNK         0.3000 
    221 H221       -4.7211  -21.2493  -53.8530 H         1 UNK         0.0600 
    222 H222       -3.2583  -21.5667  -51.1829 H         1 UNK         0.0600 
    223 H223       -4.4894  -22.6522  -51.8169 H         1 UNK         0.0600 
    224 H224       -2.9493  -22.4833  -52.6458 H         1 UNK         0.0600 
    225 H225       -3.8053  -18.3950  -52.1286 H         1 UNK         0.3000 
    226 H226       -1.2309  -17.8601  -53.1720 H         1 UNK         0.0600 
    227 H227       -1.8191  -15.4838  -52.6049 H         1 UNK         0.0600 
    228 H228       -3.5002  -15.9520  -52.3795 H         1 UNK         0.0600 
    229 H229       -2.2537  -16.5699  -51.3016 H         1 UNK         0.0600 
    230 H230       -4.2374  -17.9733  -54.8641 H         1 UNK         0.3000 
    231 H231       -3.6250  -16.2069  -57.0445 H         1 UNK         0.0600 
    232 H232       -5.5122  -18.6167  -56.8516 H         1 UNK         0.0600 
    233 H233       -5.5237  -17.4099  -58.1330 H         1 UNK         0.0600 
    234 H234       -5.9358  -16.9442  -56.4898 H         1 UNK         0.0600 
    235 H235       -2.4088  -19.3706  -56.2104 H         1 UNK         0.3000 
    236 H236       -1.0824  -19.6062  -58.8743 H         1 UNK         0.0600 
    237 H237       -1.5648  -22.0572  -58.8483 H         1 UNK         0.0600 
    238 H238       -2.5601  -21.8563  -57.4091 H         1 UNK         0.0600 
    239 H239       -3.0454  -21.1157  -58.9332 H         1 UNK         0.0600 
    240 H240       -1.0890  -20.4229  -55.3894 H         1 UNK         0.3000 
    241 H241        0.4126  -20.9886  -53.9583 H         1 UNK         0.0600 
    242 H242       -0.2810  -23.0343  -56.1705 H         1 UNK         0.3800 
    243 H243        0.9093  -24.2754  -55.8793 H         1 UNK         0.3800 
    244 H244        2.5013  -19.8155  -55.8563 H         1 UNK         0.0800 
    245 H245        2.8774  -20.3480  -54.2499 H         1 UNK         0.0800 
    246 H246        3.1917  -18.7572  -52.4626 H         1 UNK         0.0800 
    247 H247        2.1164  -17.4539  -52.0397 H         1 UNK         0.0800 
@<TRIPOS>BOND
     1    1    2 1    
     2    1  127 1    
     3    1  128 1    
     4    1  129 1    
     5    2    3 2    
     6    2    4 am   BACKBONE|DICT|INTERRES
     7    4    5 1    
     8    4  130 1    
     9    5    6 1    
    10    5   65 1    
    11    5  131 1    
    12    6    7 1    
    13    6  132 1    
    14    6  133 1    
    15    7    8 1    
    16    8    9 1    
    17    8  134 1    
    18    8  135 1    
    19    9   10 ar   
    20    9   14 ar   
    21   10   11 ar   
    22   10  136 1    
    23   11   12 ar   
    24   11  126 1    
    25   12   13 ar   
    26   12  137 1    
    27   13   14 ar   
    28   13   15 1    
    29   14  138 1    
    30   15   16 1    
    31   15  139 1    
    32   15  140 1    
    33   16   17 1    
    34   17   18 1    
    35   17  141 1    
    36   17  142 1    
    37   18   19 1    
    38   18   67 1    
    39   18  143 1    
    40   19   20 am   BACKBONE|DICT|INTERRES
    41   19  144 1    
    42   20   21 2    
    43   20   22 1    
    44   22   23 1    
    45   22   24 1    
    46   22  145 1    
    47   23  146 1    
    48   23  147 1    
    49   23  148 1    
    50   24   25 am   BACKBONE|DICT|INTERRES
    51   24  149 1    
    52   25   26 2    
    53   25   27 1    
    54   27   28 1    
    55   27   29 1    
    56   27  150 1    
    57   28  151 1    
    58   28  152 1    
    59   28  153 1    
    60   29   30 am   BACKBONE|DICT|INTERRES
    61   29  154 1    
    62   30   31 2    
    63   30   32 1    
    64   32   33 1    
    65   32   34 1    
    66   32  155 1    
    67   33  156 1    
    68   33  157 1    
    69   33  158 1    
    70   34   35 am   BACKBONE|DICT|INTERRES
    71   34  159 1    
    72   35   36 2    
    73   35   37 1    
    74   37   38 1    
    75   37   39 1    
    76   37  160 1    
    77   38  161 1    
    78   38  162 1    
    79   38  163 1    
    80   39   40 am   BACKBONE|DICT|INTERRES
    81   39  164 1    
    82   40   41 2    
    83   40   42 1    
    84   42   43 1    
    85   42   44 1    
    86   42  165 1    
    87   43  166 1    
    88   43  167 1    
    89   43  168 1    
    90   44   45 am   BACKBONE|DICT|INTERRES
    91   44  169 1    
    92   45   46 2    
    93   45   47 1    
    94   47   48 1    
    95   47   49 1    
    96   47  170 1    
    97   48  171 1    
    98   48  172 1    
    99   48  173 1    
   100   49   50 am   BACKBONE|DICT|INTERRES
   101   49  174 1    
   102   50   51 2    
   103   50   52 1    
   104   52   53 1    
   105   52   54 1    
   106   52  175 1    
   107   53  176 1    
   108   53  177 1    
   109   53  178 1    
   110   54   55 am   BACKBONE|DICT|INTERRES
   111   54  179 1    
   112   55   56 2    
   113   55   57 1    
   114   57   58 1    
   115   57   59 1    
   116   57  180 1    
   117   58  181 1    
   118   58  182 1    
   119   58  183 1    
   120   59   60 am   BACKBONE|DICT|INTERRES
   121   59  184 1    
   122   60   61 2    
   123   60   62 1    
   124   62   63 1    
   125   62   64 1    
   126   62  185 1    
   127   63  186 1    
   128   63  187 1    
   129   63  188 1    
   130   64   65 am   BACKBONE|DICT|INTERRES
   131   64  189 1    
   132   65   66 2    
   133   67   68 2    
   134   67   69 am   BACKBONE|DICT|INTERRES
   135   69   70 1    
   136   69  190 1    
   137   70   71 1    
   138   70   72 1    
   139   70  191 1    
   140   71  192 1    
   141   71  193 1    
   142   71  194 1    
   143   72   73 2    
   144   72   74 am   BACKBONE|DICT|INTERRES
   145   74   75 1    
   146   74  195 1    
   147   75   76 1    
   148   75   77 1    
   149   75  196 1    
   150   76  197 1    
   151   76  198 1    
   152   76  199 1    
   153   77   78 2    
   154   77   79 am   BACKBONE|DICT|INTERRES
   155   79   80 1    
   156   79  200 1    
   157   80   81 1    
   158   80   82 1    
   159   80  201 1    
   160   81  202 1    
   161   81  203 1    
   162   81  204 1    
   163   82   83 2    
   164   82   84 am   BACKBONE|DICT|INTERRES
   165   84   85 1    
   166   84  205 1    
   167   85   86 1    
   168   85   87 1    
   169   85  206 1    
   170   86  207 1    
   171   86  208 1    
   172   86  209 1    
   173   87   88 2    
   174   87   89 am   BACKBONE|DICT|INTERRES
   175   89   90 1    
   176   89  210 1    
   177   90   91 1    
   178   90   92 1    
   179   90  211 1    
   180   91  212 1    
   181   91  213 1    
   182   91  214 1    
   183   92   93 2    
   184   92   94 am   BACKBONE|DICT|INTERRES
   185   94   95 1    
   186   94  215 1    
   187   95   96 1    
   188   95   97 1    
   189   95  216 1    
   190   96  217 1    
   191   96  218 1    
   192   96  219 1    
   193   97   98 2    
   194   97   99 am   BACKBONE|DICT|INTERRES
   195   99  100 1    
   196   99  220 1    
   197  100  101 1    
   198  100  102 1    
   199  100  221 1    
   200  101  222 1    
   201  101  223 1    
   202  101  224 1    
   203  102  103 2    
   204  102  104 am   BACKBONE|DICT|INTERRES
   205  104  105 1    
   206  104  225 1    
   207  105  106 1    
   208  105  107 1    
   209  105  226 1    
   210  106  227 1    
   211  106  228 1    
   212  106  229 1    
   213  107  108 2    
   214  107  109 am   BACKBONE|DICT|INTERRES
   215  109  110 1    
   216  109  230 1    
   217  110  111 1    
   218  110  112 1    
   219  110  231 1    
   220  111  232 1    
   221  111  233 1    
   222  111  234 1    
   223  112  113 2    
   224  112  114 am   BACKBONE|DICT|INTERRES
   225  114  115 1    
   226  114  235 1    
   227  115  116 1    
   228  115  117 1    
   229  115  236 1    
   230  116  237 1    
   231  116  238 1    
   232  116  239 1    
   233  117  118 2    
   234  117  119 am   BACKBONE|DICT|INTERRES
   235  119  120 1    
   236  119  240 1    
   237  120  121 1    
   238  120  124 1    
   239  120  241 1    
   240  121  122 am   BACKBONE|DICT|INTERRES
   241  121  123 2    
   242  122  242 1    
   243  122  243 1    
   244  124  125 1    
   245  124  244 1    
   246  124  245 1    
   247  125  126 1    
   248  126  246 1    
   249  126  247 1    
@<TRIPOS>SUBSTRUCTURE
     1 UNK         1 GROUP             0       ****    0 ROOT    
