@<TRIPOS>MOLECULE
3R540
247   249    1
SMALL
USER_CHARGES


@<TRIPOS>ATOM
      1 CA         -2.0212  -14.9142  -49.7778 C.3       0 UNK        -0.1800 
      2 C          -0.6480  -14.5136  -49.2582 C.2       0 UNK         0.5000 
      3 O           0.0265  -15.3198  -48.6148 O.2       0 UNK        -0.5000 
      4 N          -0.2389  -13.2707  -49.5456 N.am      1 UNK        -0.5000 
      5 CA          1.0639  -12.6774  -49.2144 C.3       1 UNK         0.1400 
      6 C6          2.2478  -13.3662  -49.9591 C.3       23 UNK        -0.0398 
      7 S7          2.0351  -13.4327  -51.7723 S.3       23 UNK        -0.2404 
      8 C8          3.2402  -14.7304  -52.2185 C.3       23 UNK        -0.0205 
      9 C9          2.6183  -16.1075  -52.4425 C.ar      23 UNK        -0.0193 
     10 C10         2.9902  -16.8589  -53.5619 C.ar      23 UNK        -0.1150 
     11 C11         2.4673  -18.1387  -53.7736 C.ar      23 UNK        -0.0193 
     12 C12         1.5586  -18.6701  -52.8520 C.ar      23 UNK        -0.1150 
     13 C13         1.1620  -17.9243  -51.7391 C.ar      23 UNK        -0.0193 
     14 C14         1.7064  -16.6539  -51.5338 C.ar      23 UNK        -0.1150 
     15 C15         0.1260  -18.4666  -50.7684 C.3       23 UNK        -0.0205 
     16 S16         0.9080  -19.2444  -49.3229 S.3       23 UNK        -0.2404 
     17 C17        -0.4305  -19.1151  -48.0903 C.3       23 UNK        -0.0398 
     18 CA         -1.2270  -20.4310  -47.9472 C.3       11 UNK         0.1400 
     19 N          -0.3719  -21.5343  -47.4998 N.am      11 UNK        -0.5000 
     20 C          -0.7599  -22.7836  -47.2108 C.2       10 UNK         0.5000 
     21 O          -1.9095  -23.1983  -47.3610 O.2       10 UNK        -0.5000 
     22 CA          0.2984  -23.7081  -46.5809 C.3       10 UNK         0.1400 
     23 CB          0.9450  -24.5822  -47.6646 C.3       10 UNK        -0.1800 
     24 N           1.3519  -23.0153  -45.8251 N.am      10 UNK        -0.5000 
     25 C           1.1707  -22.1415  -44.8232 C.2       9 UNK         0.5000 
     26 O           0.0643  -21.7421  -44.4476 O.2       9 UNK        -0.5000 
     27 CA          2.4476  -21.5613  -44.1943 C.3       9 UNK         0.1400 
     28 CB          2.9290  -20.3557  -45.0116 C.3       9 UNK        -0.1800 
     29 N           2.2199  -21.1393  -42.8134 N.am      9 UNK        -0.5000 
     30 C           2.1330  -21.9799  -41.7741 C.2       8 UNK         0.5000 
     31 O           2.2806  -23.1992  -41.8711 O.2       8 UNK        -0.5000 
     32 CA          1.8620  -21.3650  -40.3877 C.3       8 UNK         0.1400 
     33 CB          3.1755  -21.2120  -39.6051 C.3       8 UNK        -0.1800 
     34 N           1.1926  -20.0647  -40.4345 N.am      8 UNK        -0.5000 
     35 C          -0.0956  -19.8709  -40.7368 C.2       7 UNK         0.5000 
     36 O          -0.8596  -20.7828  -41.0519 O.2       7 UNK        -0.5000 
     37 CA         -0.6392  -18.4286  -40.6718 C.3       7 UNK         0.1400 
     38 CB         -1.3525  -18.1704  -39.3315 C.3       7 UNK        -0.1800 
     39 N           0.3274  -17.3625  -40.9681 N.am      7 UNK        -0.5000 
     40 C           1.3911  -16.9498  -40.2633 C.2       6 UNK         0.5000 
     41 O           1.8051  -17.5191  -39.2533 O.2       6 UNK        -0.5000 
     42 CA          2.1306  -15.6966  -40.7752 C.3       6 UNK         0.1400 
     43 CB          3.4597  -16.0909  -41.4382 C.3       6 UNK        -0.1800 
     44 N           1.3429  -14.8995  -41.7189 N.am      6 UNK        -0.5000 
     45 C           0.2728  -14.1566  -41.4014 C.2       5 UNK         0.5000 
     46 O          -0.1310  -13.9976  -40.2490 O.2       5 UNK        -0.5000 
     47 CA         -0.4991  -13.5152  -42.5721 C.3       5 UNK         0.1400 
     48 CB          0.0867  -12.1408  -42.9289 C.3       5 UNK        -0.1800 
     49 N          -0.5280  -14.3651  -43.7665 N.am      5 UNK        -0.5000 
     50 C          -1.1848  -15.5320  -43.8470 C.2       4 UNK         0.5000 
     51 O          -1.8639  -15.9965  -42.9322 O.2       4 UNK        -0.5000 
     52 CA         -1.0290  -16.3381  -45.1498 C.3       4 UNK         0.1400 
     53 CB         -2.1132  -15.9448  -46.1605 C.3       4 UNK        -0.1800 
     54 N           0.2986  -16.1989  -45.7513 N.am      4 UNK        -0.5000 
     55 C           1.4121  -16.6886  -45.1858 C.2       3 UNK         0.5000 
     56 O           1.4134  -17.3290  -44.1340 O.2       3 UNK        -0.5000 
     57 CA          2.7488  -16.3662  -45.8768 C.3       3 UNK         0.1400 
     58 CB          2.9232  -17.1798  -47.1671 C.3       3 UNK        -0.1800 
     59 N           2.8918  -14.9472  -46.1928 N.am      3 UNK        -0.5000 
     60 C           2.8905  -13.9424  -45.3052 C.2       2 UNK         0.5000 
     61 O           2.7990  -14.1079  -44.0907 O.2       2 UNK        -0.5000 
     62 CA          2.9860  -12.5098  -45.8692 C.3       2 UNK         0.1400 
     63 CB          4.4228  -11.9809  -45.7497 C.3       2 UNK        -0.1800 
     64 N           2.5575  -12.4236  -47.2675 N.am      2 UNK        -0.5000 
     65 C           1.2929  -12.5886  -47.6821 C.2       1 UNK         0.5000 
     66 O           0.3437  -12.6814  -46.8978 O.2       1 UNK        -0.5000 
     67 C          -2.4595  -20.2175  -47.0430 C.2       11 UNK         0.5000 
     68 O          -3.5394  -19.9415  -47.5653 O.2       11 UNK        -0.5000 
     69 N          -2.2847  -20.4011  -45.7276 N.am      12 UNK        -0.5000 
     70 CA         -3.3585  -20.3756  -44.7388 C.3       12 UNK         0.1400 
     71 CB         -2.9870  -19.4019  -43.6143 C.3       12 UNK        -0.1800 
     72 C          -3.6286  -21.7775  -44.1714 C.2       12 UNK         0.5000 
     73 O          -4.7925  -22.1605  -44.0603 O.2       12 UNK        -0.5000 
     74 N          -2.5681  -22.5302  -43.8422 N.am      13 UNK        -0.5000 
     75 CA         -2.6452  -23.8233  -43.1529 C.3       13 UNK         0.1400 
     76 CB         -1.2390  -24.2483  -42.7039 C.3       13 UNK        -0.1800 
     77 C          -3.3181  -24.9427  -43.9707 C.2       13 UNK         0.5000 
     78 O          -3.9507  -25.8196  -43.3813 O.2       13 UNK        -0.5000 
     79 N          -3.1936  -24.8803  -45.3019 N.am      14 UNK        -0.5000 
     80 CA         -3.8808  -25.7518  -46.2585 C.3       14 UNK         0.1400 
     81 CB         -2.8265  -26.4898  -47.1029 C.3       14 UNK        -0.1800 
     82 C          -4.8476  -24.9430  -47.1484 C.2       14 UNK         0.5000 
     83 O          -5.3841  -25.4908  -48.1118 O.2       14 UNK        -0.5000 
     84 N          -5.0361  -23.6539  -46.8205 N.am      15 UNK        -0.5000 
     85 CA         -5.8319  -22.6441  -47.5243 C.3       15 UNK         0.1400 
     86 CB         -7.3352  -22.9714  -47.4171 C.3       15 UNK        -0.1800 
     87 C          -5.3891  -22.3975  -48.9821 C.2       15 UNK         0.5000 
     88 O          -6.2041  -21.9562  -49.7944 O.2       15 UNK        -0.5000 
     89 N          -4.1130  -22.6640  -49.3047 N.am      16 UNK        -0.5000 
     90 CA         -3.5662  -22.6311  -50.6664 C.3       16 UNK         0.1400 
     91 CB         -2.1505  -23.2288  -50.6736 C.3       16 UNK        -0.1800 
     92 C          -3.5960  -21.2493  -51.3519 C.2       16 UNK         0.5000 
     93 O          -3.4484  -21.1892  -52.5698 O.2       16 UNK        -0.5000 
     94 N          -3.8349  -20.1718  -50.5898 N.am      17 UNK        -0.5000 
     95 CA         -4.1156  -18.8367  -51.1202 C.3       17 UNK         0.1400 
     96 CB         -4.1006  -17.8251  -49.9654 C.3       17 UNK        -0.1800 
     97 C          -5.4522  -18.7477  -51.8887 C.2       17 UNK         0.5000 
     98 O          -5.5930  -17.8681  -52.7388 O.2       17 UNK        -0.5000 
     99 N          -6.4026  -19.6390  -51.5729 N.am      18 UNK        -0.5000 
    100 CA        -7.7195  -19.7232  -52.2050 C.3       18 UNK         0.1400 
    101 CB        -8.7997  -19.4919  -51.1363 C.3       18 UNK        -0.1800 
    102 C         -7.9336  -21.0811  -52.8944 C.2       18 UNK         0.5000 
    103 O         -8.5489  -21.1277  -53.9599 O.2       18 UNK        -0.5000 
    104 N         -7.4350  -22.1628  -52.2806 N.am      19 UNK        -0.5000 
    105 CA        -7.5983  -23.5422  -52.7442 C.3       19 UNK         0.1400 
    106 CB        -7.3975  -24.4892  -51.5491 C.3       19 UNK        -0.1800 
    107 C         -6.6585  -23.9301  -53.9028 C.2       19 UNK         0.5000 
    108 O         -6.8521  -24.9916  -54.4974 O.2       19 UNK        -0.5000 
    109 N         -5.6605  -23.0917  -54.2008 N.am      20 UNK        -0.5000 
    110 CA        -4.6828  -23.2863  -55.2659 C.3       20 UNK         0.1400 
    111 CB        -3.4484  -24.0131  -54.6961 C.3       20 UNK        -0.1800 
    112 C         -4.3277  -21.9309  -55.9018 C.2       20 UNK         0.5000 
    113 O         -4.9110  -20.9024  -55.5471 O.2       20 UNK        -0.5000 
    114 N         -3.3897  -21.9629  -56.8558 N.am      21 UNK        -0.5000 
    115 CA        -2.8205  -20.7890  -57.5182 C.3       21 UNK         0.1400 
    116 CB        -2.0473  -21.2633  -58.7606 C.3       21 UNK        -0.1800 
    117 C         -1.9009  -19.9745  -56.5842 C.2       21 UNK         0.5000 
    118 O         -1.5137  -20.4626  -55.5206 O.2       21 UNK        -0.5000 
    119 N         -1.5694  -18.7529  -57.0243 N.am      22 UNK        -0.5000 
    120 CA        -0.6746  -17.7359  -56.4266 C.3       22 UNK         0.1400 
    121 C         -0.9626  -17.2596  -54.9705 C.2       22 UNK         0.5000 
    122 N         -1.6760  -18.0072  -54.1435 N.am      22 UNK        -0.7600 
    123 O         -0.5776  -16.1524  -54.6066 O.2       22 UNK        -0.5000 
    124 C124        0.8402  -17.9835  -56.6965 C.3       23 UNK        -0.0398 
    125 S125        1.5362  -19.5336  -56.0206 S.3       23 UNK        -0.2404 
    126 C126        2.9157  -18.9512  -54.9820 C.3       23 UNK        -0.0205 
    127 H127       -2.6530  -15.2590  -48.9609 H         1 UNK         0.0600 
    128 H128       -1.9244  -15.7195  -50.5047 H         1 UNK         0.0600 
    129 H129       -2.5282  -14.0812  -50.2652 H         1 UNK         0.0600 
    130 H130       -0.8634  -12.6610  -50.0532 H         1 UNK         0.3000 
    131 H131        1.0142  -11.6444  -49.5612 H         1 UNK         0.0600 
    132 H132        3.1811  -12.8293  -49.7860 H         1 UNK         0.0800 
    133 H133        2.4016  -14.3759  -49.5770 H         1 UNK         0.0800 
    134 H134        4.0123  -14.8084  -51.4522 H         1 UNK         0.0800 
    135 H135        3.7501  -14.4018  -53.1253 H         1 UNK         0.0800 
    136 H136        3.7008  -16.4504  -54.2666 H         1 UNK         0.1150 
    137 H137        1.1451  -19.6557  -53.0137 H         1 UNK         0.1150 
    138 H138        1.4079  -16.0908  -50.6644 H         1 UNK         0.1150 
    139 H139       -0.5148  -17.6447  -50.4498 H         1 UNK         0.0800 
    140 H140       -0.5238  -19.1911  -51.2622 H         1 UNK         0.0800 
    141 H141       -1.0852  -18.2861  -48.3588 H         1 UNK         0.0800 
    142 H142        0.0188  -18.8381  -47.1352 H         1 UNK         0.0800 
    143 H143       -1.6056  -20.6977  -48.9330 H         1 UNK         0.0600 
    144 H144        0.6003  -21.3033  -47.3604 H         1 UNK         0.3000 
    145 H145       -0.2249  -24.3656  -45.8855 H         1 UNK         0.0600 
    146 H146        0.1890  -25.1247  -48.2342 H         1 UNK         0.0600 
    147 H147        1.6128  -25.3246  -47.2272 H         1 UNK         0.0600 
    148 H148        1.5218  -23.9849  -48.3719 H         1 UNK         0.0600 
    149 H149        2.2989  -23.2596  -46.0777 H         1 UNK         0.3000 
    150 H150        3.2287  -22.3245  -44.2029 H         1 UNK         0.0600 
    151 H151        2.1379  -19.6152  -45.1180 H         1 UNK         0.0600 
    152 H152        3.2309  -20.6569  -46.0153 H         1 UNK         0.0600 
    153 H153        3.7867  -19.8706  -44.5451 H         1 UNK         0.0600 
    154 H154        2.0337  -20.1594  -42.6591 H         1 UNK         0.3000 
    155 H155        1.2196  -22.0600  -39.8427 H         1 UNK         0.0600 
    156 H156        3.8537  -20.5104  -40.0925 H         1 UNK         0.0600 
    157 H157        3.6950  -22.1674  -39.5202 H         1 UNK         0.0600 
    158 H158        2.9915  -20.8520  -38.5926 H         1 UNK         0.0600 
    159 H159        1.7201  -19.2589  -40.1147 H         1 UNK         0.3000 
    160 H160       -1.3949  -18.3463  -41.4514 H         1 UNK         0.0600 
    161 H161       -0.6715  -18.2530  -38.4840 H         1 UNK         0.0600 
    162 H162       -2.1557  -18.8913  -39.1740 H         1 UNK         0.0600 
    163 H163       -1.7993  -17.1763  -39.3091 H         1 UNK         0.0600 
    164 H164        0.1230  -16.8405  -41.8100 H         1 UNK         0.3000 
    165 H165        2.3545  -15.0734  -39.9072 H         1 UNK         0.0600 
    166 H166        4.0234  -15.2096  -41.7450 H         1 UNK         0.0600 
    167 H167        4.0897  -16.6554  -40.7496 H         1 UNK         0.0600 
    168 H168        3.3020  -16.7102  -42.3214 H         1 UNK         0.0600 
    169 H169        1.6600  -14.9036  -42.6836 H         1 UNK         0.3000 
    170 H170       -1.5307  -13.3660  -42.2461 H         1 UNK         0.0600 
    171 H171       -0.4465  -11.6859  -43.7640 H         1 UNK         0.0600 
    172 H172        1.1402  -12.2072  -43.1976 H         1 UNK         0.0600 
    173 H173        0.0110  -11.4572  -42.0825 H         1 UNK         0.0600 
    174 H174        0.0070  -14.0548  -44.5655 H         1 UNK         0.3000 
    175 H175       -1.1675  -17.3923  -44.9041 H         1 UNK         0.0600 
    176 H176       -3.1088  -16.0520  -45.7282 H         1 UNK         0.0600 
    177 H177       -2.0027  -14.9086  -46.4824 H         1 UNK         0.0600 
    178 H178       -2.0762  -16.5817  -47.0428 H         1 UNK         0.0600 
    179 H179        0.3559  -15.7060  -46.6381 H         1 UNK         0.3000 
    180 H180        3.5508  -16.6395  -45.1879 H         1 UNK         0.0600 
    181 H181        2.1981  -16.8883  -47.9277 H         1 UNK         0.0600 
    182 H182        2.7955  -18.2463  -46.9856 H         1 UNK         0.0600 
    183 H183        3.9191  -17.0421  -47.5882 H         1 UNK         0.0600 
    184 H184        2.9620  -14.7140  -47.1704 H         1 UNK         0.3000 
    185 H185        2.3355  -11.8707  -45.2693 H         1 UNK         0.0600 
    186 H186        4.7624  -12.0062  -44.7133 H         1 UNK         0.0600 
    187 H187        5.1224  -12.5755  -46.3386 H         1 UNK         0.0600 
    188 H188        4.4922  -10.9466  -46.0872 H         1 UNK         0.0600 
    189 H189        3.2918  -12.3001  -47.9492 H         1 UNK         0.3000 
    190 H190       -1.3723  -20.6931  -45.3922 H         1 UNK         0.3000 
    191 H191       -4.2911  -20.0248  -45.1860 H         1 UNK         0.0600 
    192 H192       -3.0553  -18.3697  -43.9545 H         1 UNK         0.0600 
    193 H193       -3.6556  -19.5022  -42.7581 H         1 UNK         0.0600 
    194 H194       -1.9699  -19.5792  -43.2669 H         1 UNK         0.0600 
    195 H195       -1.6311  -22.1526  -43.9673 H         1 UNK         0.3000 
    196 H196       -3.2486  -23.6743  -42.2550 H         1 UNK         0.0600 
    197 H197       -1.2757  -25.1720  -42.1253 H         1 UNK         0.0600 
    198 H198       -0.7808  -23.4874  -42.0713 H         1 UNK         0.0600 
    199 H199       -0.5763  -24.4196  -43.5512 H         1 UNK         0.0600 
    200 H200       -2.6585  -24.1254  -45.7162 H         1 UNK         0.3000 
    201 H201       -4.4837  -26.4980  -45.7377 H         1 UNK         0.0600 
    202 H202       -3.2961  -27.2158  -47.7675 H         1 UNK         0.0600 
    203 H203       -2.1265  -27.0357  -46.4704 H         1 UNK         0.0600 
    204 H204       -2.2519  -25.8034  -47.7246 H         1 UNK         0.0600 
    205 H205       -4.5921  -23.3284  -45.9727 H         1 UNK         0.3000 
    206 H206       -5.6613  -21.7045  -46.9975 H         1 UNK         0.0600 
    207 H207       -7.6309  -23.1289  -46.3799 H         1 UNK         0.0600 
    208 H208       -7.9443  -22.1542  -47.8053 H         1 UNK         0.0600 
    209 H209       -7.5944  -23.8679  -47.9811 H         1 UNK         0.0600 
    210 H210       -3.4842  -22.9824  -48.5737 H         1 UNK         0.3000 
    211 H211       -4.1958  -23.2852  -51.2728 H         1 UNK         0.0600 
    212 H212       -1.4374  -22.6036  -50.1400 H         1 UNK         0.0600 
    213 H213       -1.7808  -23.3380  -51.6938 H         1 UNK         0.0600 
    214 H214       -2.1366  -24.2187  -50.2169 H         1 UNK         0.0600 
    215 H215       -3.9467  -20.2926  -49.5893 H         1 UNK         0.3000 
    216 H216       -3.3173  -18.5741  -51.8159 H         1 UNK         0.0600 
    217 H217       -4.3026  -16.8160  -50.3265 H         1 UNK         0.0600 
    218 H218       -3.1315  -17.8061  -49.4694 H         1 UNK         0.0600 
    219 H219       -4.8563  -18.0612  -49.2151 H         1 UNK         0.0600 
    220 H220       -6.1998  -20.3353  -50.8626 H         1 UNK         0.3000 
    221 H221       -7.8299  -18.9526  -52.9706 H         1 UNK         0.0600 
    222 H222       -8.7393  -20.2307  -50.3359 H         1 UNK         0.0600 
    223 H223       -8.7014  -18.5036  -50.6869 H         1 UNK         0.0600 
    224 H224       -9.7989  -19.5548  -51.5692 H         1 UNK         0.0600 
    225 H225       -6.9723  -22.0527  -51.3805 H         1 UNK         0.3000 
    226 H226       -8.6223  -23.6661  -53.1026 H         1 UNK         0.0600 
    227 H227       -7.5965  -25.5237  -51.8310 H         1 UNK         0.0600 
    228 H228       -6.3776  -24.4463  -51.1661 H         1 UNK         0.0600 
    229 H229       -8.0722  -24.2414  -50.7294 H         1 UNK         0.0600 
    230 H230       -5.5969  -22.2006  -53.7251 H         1 UNK         0.3000 
    231 H231       -5.1214  -23.8987  -56.0565 H         1 UNK         0.0600 
    232 H232       -2.9139  -23.3918  -53.9776 H         1 UNK         0.0600 
    233 H233       -2.7443  -24.2812  -55.4839 H         1 UNK         0.0600 
    234 H234       -3.7306  -24.9378  -54.1924 H         1 UNK         0.0600 
    235 H235       -2.9464  -22.8446  -57.0659 H         1 UNK         0.3000 
    236 H236       -3.6410  -20.1437  -57.8393 H         1 UNK         0.0600 
    237 H237       -1.2057  -21.9022  -58.4894 H         1 UNK         0.0600 
    238 H238       -2.6921  -21.8257  -59.4363 H         1 UNK         0.0600 
    239 H239       -1.6482  -20.4202  -59.3256 H         1 UNK         0.0600 
    240 H240       -1.9788  -18.4628  -57.9005 H         1 UNK         0.3000 
    241 H241       -0.9181  -16.8494  -57.0141 H         1 UNK         0.0600 
    242 H242       -1.8682  -17.6716  -53.2171 H         1 UNK         0.3800 
    243 H243       -1.8989  -18.9603  -54.4160 H         1 UNK         0.3800 
    244 H244        1.4280  -17.1363  -56.3392 H         1 UNK         0.0800 
    245 H245        1.0051  -18.0072  -57.7742 H         1 UNK         0.0800 
    246 H246        3.6064  -18.3799  -55.6043 H         1 UNK         0.0800 
    247 H247        3.4725  -19.8189  -54.6264 H         1 UNK         0.0800 
@<TRIPOS>BOND
     1    1    2 1    
     2    1  127 1    
     3    1  128 1    
     4    1  129 1    
     5    2    3 2    
     6    2    4 am   BACKBONE|DICT|INTERRES
     7    4    5 1    
     8    4  130 1    
     9    5    6 1    
    10    5   65 1    
    11    5  131 1    
    12    6    7 1    
    13    6  132 1    
    14    6  133 1    
    15    7    8 1    
    16    8    9 1    
    17    8  134 1    
    18    8  135 1    
    19    9   10 ar   
    20    9   14 ar   
    21   10   11 ar   
    22   10  136 1    
    23   11   12 ar   
    24   11  126 1    
    25   12   13 ar   
    26   12  137 1    
    27   13   14 ar   
    28   13   15 1    
    29   14  138 1    
    30   15   16 1    
    31   15  139 1    
    32   15  140 1    
    33   16   17 1    
    34   17   18 1    
    35   17  141 1    
    36   17  142 1    
    37   18   19 1    
    38   18   67 1    
    39   18  143 1    
    40   19   20 am   BACKBONE|DICT|INTERRES
    41   19  144 1    
    42   20   21 2    
    43   20   22 1    
    44   22   23 1    
    45   22   24 1    
    46   22  145 1    
    47   23  146 1    
    48   23  147 1    
    49   23  148 1    
    50   24   25 am   BACKBONE|DICT|INTERRES
    51   24  149 1    
    52   25   26 2    
    53   25   27 1    
    54   27   28 1    
    55   27   29 1    
    56   27  150 1    
    57   28  151 1    
    58   28  152 1    
    59   28  153 1    
    60   29   30 am   BACKBONE|DICT|INTERRES
    61   29  154 1    
    62   30   31 2    
    63   30   32 1    
    64   32   33 1    
    65   32   34 1    
    66   32  155 1    
    67   33  156 1    
    68   33  157 1    
    69   33  158 1    
    70   34   35 am   BACKBONE|DICT|INTERRES
    71   34  159 1    
    72   35   36 2    
    73   35   37 1    
    74   37   38 1    
    75   37   39 1    
    76   37  160 1    
    77   38  161 1    
    78   38  162 1    
    79   38  163 1    
    80   39   40 am   BACKBONE|DICT|INTERRES
    81   39  164 1    
    82   40   41 2    
    83   40   42 1    
    84   42   43 1    
    85   42   44 1    
    86   42  165 1    
    87   43  166 1    
    88   43  167 1    
    89   43  168 1    
    90   44   45 am   BACKBONE|DICT|INTERRES
    91   44  169 1    
    92   45   46 2    
    93   45   47 1    
    94   47   48 1    
    95   47   49 1    
    96   47  170 1    
    97   48  171 1    
    98   48  172 1    
    99   48  173 1    
   100   49   50 am   BACKBONE|DICT|INTERRES
   101   49  174 1    
   102   50   51 2    
   103   50   52 1    
   104   52   53 1    
   105   52   54 1    
   106   52  175 1    
   107   53  176 1    
   108   53  177 1    
   109   53  178 1    
   110   54   55 am   BACKBONE|DICT|INTERRES
   111   54  179 1    
   112   55   56 2    
   113   55   57 1    
   114   57   58 1    
   115   57   59 1    
   116   57  180 1    
   117   58  181 1    
   118   58  182 1    
   119   58  183 1    
   120   59   60 am   BACKBONE|DICT|INTERRES
   121   59  184 1    
   122   60   61 2    
   123   60   62 1    
   124   62   63 1    
   125   62   64 1    
   126   62  185 1    
   127   63  186 1    
   128   63  187 1    
   129   63  188 1    
   130   64   65 am   BACKBONE|DICT|INTERRES
   131   64  189 1    
   132   65   66 2    
   133   67   68 2    
   134   67   69 am   BACKBONE|DICT|INTERRES
   135   69   70 1    
   136   69  190 1    
   137   70   71 1    
   138   70   72 1    
   139   70  191 1    
   140   71  192 1    
   141   71  193 1    
   142   71  194 1    
   143   72   73 2    
   144   72   74 am   BACKBONE|DICT|INTERRES
   145   74   75 1    
   146   74  195 1    
   147   75   76 1    
   148   75   77 1    
   149   75  196 1    
   150   76  197 1    
   151   76  198 1    
   152   76  199 1    
   153   77   78 2    
   154   77   79 am   BACKBONE|DICT|INTERRES
   155   79   80 1    
   156   79  200 1    
   157   80   81 1    
   158   80   82 1    
   159   80  201 1    
   160   81  202 1    
   161   81  203 1    
   162   81  204 1    
   163   82   83 2    
   164   82   84 am   BACKBONE|DICT|INTERRES
   165   84   85 1    
   166   84  205 1    
   167   85   86 1    
   168   85   87 1    
   169   85  206 1    
   170   86  207 1    
   171   86  208 1    
   172   86  209 1    
   173   87   88 2    
   174   87   89 am   BACKBONE|DICT|INTERRES
   175   89   90 1    
   176   89  210 1    
   177   90   91 1    
   178   90   92 1    
   179   90  211 1    
   180   91  212 1    
   181   91  213 1    
   182   91  214 1    
   183   92   93 2    
   184   92   94 am   BACKBONE|DICT|INTERRES
   185   94   95 1    
   186   94  215 1    
   187   95   96 1    
   188   95   97 1    
   189   95  216 1    
   190   96  217 1    
   191   96  218 1    
   192   96  219 1    
   193   97   98 2    
   194   97   99 am   BACKBONE|DICT|INTERRES
   195   99  100 1    
   196   99  220 1    
   197  100  101 1    
   198  100  102 1    
   199  100  221 1    
   200  101  222 1    
   201  101  223 1    
   202  101  224 1    
   203  102  103 2    
   204  102  104 am   BACKBONE|DICT|INTERRES
   205  104  105 1    
   206  104  225 1    
   207  105  106 1    
   208  105  107 1    
   209  105  226 1    
   210  106  227 1    
   211  106  228 1    
   212  106  229 1    
   213  107  108 2    
   214  107  109 am   BACKBONE|DICT|INTERRES
   215  109  110 1    
   216  109  230 1    
   217  110  111 1    
   218  110  112 1    
   219  110  231 1    
   220  111  232 1    
   221  111  233 1    
   222  111  234 1    
   223  112  113 2    
   224  112  114 am   BACKBONE|DICT|INTERRES
   225  114  115 1    
   226  114  235 1    
   227  115  116 1    
   228  115  117 1    
   229  115  236 1    
   230  116  237 1    
   231  116  238 1    
   232  116  239 1    
   233  117  118 2    
   234  117  119 am   BACKBONE|DICT|INTERRES
   235  119  120 1    
   236  119  240 1    
   237  120  121 1    
   238  120  124 1    
   239  120  241 1    
   240  121  122 am   BACKBONE|DICT|INTERRES
   241  121  123 2    
   242  122  242 1    
   243  122  243 1    
   244  124  125 1    
   245  124  244 1    
   246  124  245 1    
   247  125  126 1    
   248  126  246 1    
   249  126  247 1    
@<TRIPOS>SUBSTRUCTURE
     1 UNK         1 GROUP             0       ****    0 ROOT    
