@<TRIPOS>MOLECULE
3R540
247   249    1
SMALL
USER_CHARGES


@<TRIPOS>ATOM
      1 CA          3.1629  -15.8054  -47.3350 C.3       0 UNK        -0.1800 
      2 C           1.6979  -15.4689  -47.1005 C.2       0 UNK         0.5000 
      3 O           1.3820  -14.7972  -46.1220 O.2       0 UNK        -0.5000 
      4 N           0.8034  -15.9138  -47.9947 N.am      1 UNK        -0.5000 
      5 CA         -0.6608  -15.8371  -47.8699 C.3       1 UNK         0.1400 
      6 C6         -1.3702  -16.6311  -49.0011 C.3       23 UNK        -0.0398 
      7 S7         -1.5600  -15.7754  -50.6114 S.3       23 UNK        -0.2404 
      8 C8          0.0913  -15.8665  -51.3755 C.3       23 UNK        -0.0205 
      9 C9          0.6157  -17.2887  -51.5060 C.ar      23 UNK        -0.0193 
     10 C10         0.0015  -18.1990  -52.3700 C.ar      23 UNK        -0.1150 
     11 C11         0.4956  -19.5009  -52.5061 C.ar      23 UNK        -0.0193 
     12 C12         1.6113  -19.8894  -51.7544 C.ar      23 UNK        -0.1150 
     13 C13         2.2255  -18.9920  -50.8777 C.ar      23 UNK        -0.0193 
     14 C14         1.7369  -17.6885  -50.7773 C.ar      23 UNK        -0.1150 
     15 C15         3.4263  -19.4155  -50.0489 C.3       23 UNK        -0.0205 
     16 S16         3.0165  -19.4970  -48.2767 S.3       23 UNK        -0.2404 
     17 C17         4.6499  -19.9170  -47.5774 C.3       23 UNK        -0.0398 
     18 CA          4.7471  -21.2686  -46.8218 C.3       11 UNK         0.1400 
     19 N           4.1718  -21.2044  -45.4707 N.am      11 UNK        -0.5000 
     20 C           4.6854  -21.8256  -44.3974 C.2       10 UNK         0.5000 
     21 O           5.7291  -22.4787  -44.4244 O.2       10 UNK        -0.5000 
     22 CA          3.8912  -21.7474  -43.0786 C.3       10 UNK         0.1400 
     23 CB          4.2889  -20.4994  -42.2772 C.3       10 UNK        -0.1800 
     24 N           2.4393  -21.7794  -43.2684 N.am      10 UNK        -0.5000 
     25 C           1.7630  -22.8214  -43.7751 C.2       9 UNK         0.5000 
     26 O           2.2959  -23.8755  -44.1226 O.2       9 UNK        -0.5000 
     27 CA          0.2466  -22.6414  -43.9746 C.3       9 UNK         0.1400 
     28 CB         -0.5168  -22.9174  -42.6713 C.3       9 UNK        -0.1800 
     29 N          -0.1037  -21.3130  -44.4757 N.am      9 UNK        -0.5000 
     30 C           0.2992  -20.8179  -45.6547 C.2       8 UNK         0.5000 
     31 O           0.9751  -21.4531  -46.4616 O.2       8 UNK        -0.5000 
     32 CA         -0.0679  -19.3504  -45.9478 C.3       8 UNK         0.1400 
     33 CB         -1.5571  -19.2273  -46.3121 C.3       8 UNK        -0.1800 
     34 N           0.2468  -18.4812  -44.8112 N.am      8 UNK        -0.5000 
     35 C           1.4795  -18.3073  -44.3079 C.2       7 UNK         0.5000 
     36 O           2.4968  -18.7821  -44.8118 O.2       7 UNK        -0.5000 
     37 CA          1.5956  -17.5303  -42.9851 C.3       7 UNK         0.1400 
     38 CB          1.7684  -16.0312  -43.2294 C.3       7 UNK        -0.1800 
     39 N           0.4408  -17.7454  -42.1185 N.am      7 UNK        -0.5000 
     40 C           0.2340  -18.8636  -41.4121 C.2       6 UNK         0.5000 
     41 O           1.0139  -19.8159  -41.3951 O.2       6 UNK        -0.5000 
     42 CA         -1.0912  -18.9431  -40.6335 C.3       6 UNK         0.1400 
     43 CB         -0.9950  -18.1688  -39.3104 C.3       6 UNK        -0.1800 
     44 N          -2.2218  -18.4368  -41.4135 N.am      6 UNK        -0.5000 
     45 C          -2.6805  -19.0194  -42.5291 C.2       5 UNK         0.5000 
     46 O          -2.2244  -20.0663  -42.9871 O.2       5 UNK        -0.5000 
     47 CA         -3.8192  -18.3073  -43.2771 C.3       5 UNK         0.1400 
     48 CB         -5.1813  -18.8448  -42.8130 C.3       5 UNK        -0.1800 
     49 N          -3.8152  -16.8469  -43.1704 N.am      5 UNK        -0.5000 
     50 C          -2.8396  -16.0306  -43.5936 C.2       4 UNK         0.5000 
     51 O          -1.7497  -16.4286  -44.0127 O.2       4 UNK        -0.5000 
     52 CA         -3.1907  -14.5288  -43.5852 C.3       4 UNK         0.1400 
     53 CB         -3.8054  -14.0645  -42.2453 C.3       4 UNK        -0.1800 
     54 N          -2.0882  -13.6557  -43.9972 N.am      4 UNK        -0.5000 
     55 C          -0.9829  -13.3240  -43.3141 C.2       3 UNK         0.5000 
     56 O          -0.7091  -13.7634  -42.1960 O.2       3 UNK        -0.5000 
     57 CA         -0.0477  -12.2947  -43.9888 C.3       3 UNK         0.1400 
     58 CB          1.4146  -12.4030  -43.5215 C.3       3 UNK        -0.1800 
     59 N          -0.0892  -12.4022  -45.4478 N.am      3 UNK        -0.5000 
     60 C          -0.7935  -11.6136  -46.2721 C.2       2 UNK         0.5000 
     61 O          -1.4582  -10.6505  -45.8896 O.2       2 UNK        -0.5000 
     62 CA         -0.7868  -11.9729  -47.7742 C.3       2 UNK         0.1400 
     63 CB          0.2259  -11.1008  -48.5312 C.3       2 UNK        -0.1800 
     64 N          -0.4863  -13.3811  -48.0381 N.am      2 UNK        -0.5000 
     65 C          -1.2470  -14.4194  -47.6625 C.2       1 UNK         0.5000 
     66 O          -2.3511  -14.2917  -47.1307 O.2       1 UNK        -0.5000 
     67 C           4.2570  -22.4957  -47.6328 C.2       11 UNK         0.5000 
     68 O           4.5982  -22.6146  -48.8105 O.2       11 UNK        -0.5000 
     69 N           3.5132  -23.4022  -46.9802 N.am      12 UNK        -0.5000 
     70 CA          3.0179  -24.6903  -47.4721 C.3       12 UNK         0.1400 
     71 CB          4.1758  -25.6098  -47.9173 C.3       12 UNK        -0.1800 
     72 C           1.8843  -24.5876  -48.5128 C.2       12 UNK         0.5000 
     73 O           1.7060  -25.5101  -49.3112 O.2       12 UNK        -0.5000 
     74 N           1.0949  -23.5084  -48.4531 N.am      13 UNK        -0.5000 
     75 CA         -0.2203  -23.4258  -49.0887 C.3       13 UNK         0.1400 
     76 CB         -0.5681  -21.9478  -49.3169 C.3       13 UNK        -0.1800 
     77 C          -1.2700  -24.1052  -48.1847 C.2       13 UNK         0.5000 
     78 O          -1.0052  -24.3496  -47.0047 O.2       13 UNK        -0.5000 
     79 N          -2.4625  -24.3772  -48.7260 N.am      14 UNK        -0.5000 
     80 CA         -3.5638  -25.0946  -48.0662 C.3       14 UNK         0.1400 
     81 CB         -4.5325  -25.5989  -49.1512 C.3       14 UNK        -0.1800 
     82 C          -4.3059  -24.3083  -46.9546 C.2       14 UNK         0.5000 
     83 O          -5.4948  -24.5502  -46.7369 O.2       14 UNK        -0.5000 
     84 N          -3.6060  -23.3943  -46.2669 N.am      15 UNK        -0.5000 
     85 CA         -4.0528  -22.4793  -45.2090 C.3       15 UNK         0.1400 
     86 CB         -4.5163  -23.2430  -43.9536 C.3       15 UNK        -0.1800 
     87 C          -5.1070  -21.4692  -45.6978 C.2       15 UNK         0.5000 
     88 O          -4.8034  -20.2842  -45.8239 O.2       15 UNK        -0.5000 
     89 N          -6.3107  -21.9533  -46.0230 N.am      16 UNK        -0.5000 
     90 CA         -7.3838  -21.2037  -46.6760 C.3       16 UNK         0.1400 
     91 CB         -8.7255  -21.8903  -46.3654 C.3       16 UNK        -0.1800 
     92 C          -7.0990  -21.0963  -48.1885 C.2       16 UNK         0.5000 
     93 O          -7.8253  -21.6633  -49.0069 O.2       16 UNK        -0.5000 
     94 N          -5.9992  -20.4137  -48.5131 N.am      17 UNK        -0.5000 
     95 CA         -5.4035  -20.3074  -49.8369 C.3       17 UNK         0.1400 
     96 CB         -4.0547  -21.0394  -49.7961 C.3       17 UNK        -0.1800 
     97 C          -5.1969  -18.8340  -50.2127 C.2       17 UNK         0.5000 
     98 O          -5.1675  -17.9675  -49.3345 O.2       17 UNK        -0.5000 
     99 N          -5.0305  -18.5860  -51.5132 N.am      18 UNK        -0.5000 
    100 CA        -4.7518  -17.2780  -52.0956 C.3       18 UNK         0.1400 
    101 CB        -6.0791  -16.6014  -52.4834 C.3       18 UNK        -0.1800 
    102 C         -3.8178  -17.4400  -53.3055 C.2       18 UNK         0.5000 
    103 O         -3.5011  -18.5647  -53.7033 O.2       18 UNK        -0.5000 
    104 N         -3.3943  -16.3114  -53.8880 N.am      19 UNK        -0.5000 
    105 CA        -2.6134  -16.2625  -55.1244 C.3       19 UNK         0.1400 
    106 CB        -2.2256  -14.8067  -55.4234 C.3       19 UNK        -0.1800 
    107 C         -3.3967  -16.8852  -56.2970 C.2       19 UNK         0.5000 
    108 O         -4.5224  -16.4610  -56.5665 O.2       19 UNK        -0.5000 
    109 N         -2.7965  -17.9026  -56.9307 N.am      20 UNK        -0.5000 
    110 CA        -3.3640  -18.7513  -57.9885 C.3       20 UNK         0.1400 
    111 CB        -3.6978  -17.9263  -59.2498 C.3       20 UNK        -0.1800 
    112 C         -4.5443  -19.6394  -57.5257 C.2       20 UNK         0.5000 
    113 O         -5.2903  -20.1461  -58.3654 O.2       20 UNK        -0.5000 
    114 N         -4.6786  -19.8454  -56.2099 N.am      21 UNK        -0.5000 
    115 CA        -5.6794  -20.6975  -55.5738 C.3       21 UNK         0.1400 
    116 CB        -6.9617  -19.8883  -55.3053 C.3       21 UNK        -0.1800 
    117 C         -5.0455  -21.2773  -54.3017 C.2       21 UNK         0.5000 
    118 O         -5.4873  -20.9815  -53.1900 O.2       21 UNK        -0.5000 
    119 N         -3.9500  -22.0215  -54.4967 N.am      22 UNK        -0.5000 
    120 CA        -3.0442  -22.4745  -53.4294 C.3       22 UNK         0.1400 
    121 C         -3.5744  -23.6198  -52.5175 C.2       22 UNK         0.5000 
    122 N         -4.6947  -24.2563  -52.8334 N.am      22 UNK        -0.7600 
    123 O         -2.9622  -23.9273  -51.4989 O.2       22 UNK        -0.5000 
    124 C124       -1.6277  -22.7803  -53.9883 C.3       23 UNK        -0.0398 
    125 S125       -0.3213  -22.1623  -52.8807 S.3       23 UNK        -0.2404 
    126 C126       -0.1672  -20.4526  -53.4963 C.3       23 UNK        -0.0205 
    127 H127        3.7663  -14.8983  -47.3034 H         1 UNK         0.0600 
    128 H128        3.3284  -16.2891  -48.2958 H         1 UNK         0.0600 
    129 H129        3.5160  -16.4785  -46.5534 H         1 UNK         0.0600 
    130 H130        1.1323  -16.4572  -48.7780 H         1 UNK         0.3000 
    131 H131       -0.8764  -16.3540  -46.9346 H         1 UNK         0.0600 
    132 H132       -0.8838  -17.5950  -49.1569 H         1 UNK         0.0800 
    133 H133       -2.3793  -16.8816  -48.6687 H         1 UNK         0.0800 
    134 H134        0.0360  -15.4208  -52.3697 H         1 UNK         0.0800 
    135 H135        0.7821  -15.2433  -50.8064 H         1 UNK         0.0800 
    136 H136       -0.8595  -17.8868  -52.9424 H         1 UNK         0.1150 
    137 H137        2.0027  -20.8922  -51.8498 H         1 UNK         0.1150 
    138 H138        2.2403  -16.9873  -50.1318 H         1 UNK         0.1150 
    139 H139        3.7969  -20.3885  -50.3755 H         1 UNK         0.0800 
    140 H140        4.2369  -18.7021  -50.2043 H         1 UNK         0.0800 
    141 H141        5.3902  -19.9060  -48.3786 H         1 UNK         0.0800 
    142 H142        4.9425  -19.1048  -46.9105 H         1 UNK         0.0800 
    143 H143        5.8191  -21.4407  -46.7047 H         1 UNK         0.0600 
    144 H144        3.3286  -20.6480  -45.3685 H         1 UNK         0.3000 
    145 H145        4.1583  -22.6231  -42.4835 H         1 UNK         0.0600 
    146 H146        3.7458  -20.4424  -41.3338 H         1 UNK         0.0600 
    147 H147        4.0964  -19.5840  -42.8347 H         1 UNK         0.0600 
    148 H148        5.3530  -20.5155  -42.0389 H         1 UNK         0.0600 
    149 H149        1.9206  -20.9638  -42.9642 H         1 UNK         0.3000 
    150 H150       -0.0774  -23.3721  -44.7173 H         1 UNK         0.0600 
    151 H151       -0.2955  -23.9159  -42.2927 H         1 UNK         0.0600 
    152 H152       -1.5938  -22.8589  -42.8264 H         1 UNK         0.0600 
    153 H153       -0.2544  -22.2027  -41.8909 H         1 UNK         0.0600 
    154 H154       -0.6979  -20.7442  -43.8779 H         1 UNK         0.3000 
    155 H155        0.5215  -19.0031  -46.7976 H         1 UNK         0.0600 
    156 H156       -1.7440  -19.5950  -47.3203 H         1 UNK         0.0600 
    157 H157       -1.9108  -18.1992  -46.2725 H         1 UNK         0.0600 
    158 H158       -2.1847  -19.8070  -45.6386 H         1 UNK         0.0600 
    159 H159       -0.5260  -17.9932  -44.3708 H         1 UNK         0.3000 
    160 H160        2.4882  -17.8846  -42.4666 H         1 UNK         0.0600 
    161 H161        0.8869  -15.6104  -43.7115 H         1 UNK         0.0600 
    162 H162        2.6271  -15.8348  -43.8725 H         1 UNK         0.0600 
    163 H163        1.9274  -15.4922  -42.2954 H         1 UNK         0.0600 
    164 H164       -0.2735  -17.0304  -42.1317 H         1 UNK         0.3000 
    165 H165       -1.2796  -19.9938  -40.4026 H         1 UNK         0.0600 
    166 H166       -1.9037  -18.2843  -38.7194 H         1 UNK         0.0600 
    167 H167       -0.1653  -18.5351  -38.7043 H         1 UNK         0.0600 
    168 H168       -0.8352  -17.1026  -39.4763 H         1 UNK         0.0600 
    169 H169       -2.6489  -17.5756  -41.1060 H         1 UNK         0.3000 
    170 H170       -3.7010  -18.5408  -44.3344 H         1 UNK         0.0600 
    171 H171       -5.2177  -19.9326  -42.8843 H         1 UNK         0.0600 
    172 H172       -5.3892  -18.5765  -41.7765 H         1 UNK         0.0600 
    173 H173       -5.9897  -18.4562  -43.4327 H         1 UNK         0.0600 
    174 H174       -4.6730  -16.4310  -42.8384 H         1 UNK         0.3000 
    175 H175       -3.9524  -14.3994  -44.3554 H         1 UNK         0.0600 
    176 H176       -3.1640  -14.3058  -41.3971 H         1 UNK         0.0600 
    177 H177       -3.9731  -12.9873  -42.2410 H         1 UNK         0.0600 
    178 H178       -4.7724  -14.5346  -42.0651 H         1 UNK         0.0600 
    179 H179       -2.1662  -13.2997  -44.9402 H         1 UNK         0.3000 
    180 H180       -0.4101  -11.3128  -43.6789 H         1 UNK         0.0600 
    181 H181        1.4937  -12.3424  -42.4356 H         1 UNK         0.0600 
    182 H182        2.0144  -11.5913  -43.9330 H         1 UNK         0.0600 
    183 H183        1.8707  -13.3398  -43.8369 H         1 UNK         0.0600 
    184 H184        0.4054  -13.2038  -45.8348 H         1 UNK         0.3000 
    185 H185       -1.7837  -11.7632  -48.1671 H         1 UNK         0.0600 
    186 H186        0.0162  -10.0406  -48.3836 H         1 UNK         0.0600 
    187 H187        1.2464  -11.2841  -48.1923 H         1 UNK         0.0600 
    188 H188        0.1877  -11.2919  -49.6039 H         1 UNK         0.0600 
    189 H189        0.4134  -13.5815  -48.4486 H         1 UNK         0.3000 
    190 H190        3.2613  -23.1929  -46.0222 H         1 UNK         0.3000 
    191 H191        2.5584  -25.1644  -46.6039 H         1 UNK         0.0600 
    192 H192        3.8214  -26.6258  -48.0947 H         1 UNK         0.0600 
    193 H193        4.9503  -25.6681  -47.1526 H         1 UNK         0.0600 
    194 H194        4.6389  -25.2627  -48.8411 H         1 UNK         0.0600 
    195 H195        1.2712  -22.8115  -47.7325 H         1 UNK         0.3000 
    196 H196       -0.1958  -23.9327  -50.0557 H         1 UNK         0.0600 
    197 H197        0.2730  -21.4002  -49.7411 H         1 UNK         0.0600 
    198 H198       -1.3974  -21.8552  -50.0160 H         1 UNK         0.0600 
    199 H199       -0.8578  -21.4506  -48.3934 H         1 UNK         0.0600 
    200 H200       -2.6188  -24.1403  -49.7054 H         1 UNK         0.3000 
    201 H201       -3.1359  -25.9731  -47.5794 H         1 UNK         0.0600 
    202 H202       -5.3020  -26.2462  -48.7288 H         1 UNK         0.0600 
    203 H203       -4.0079  -26.1794  -49.9104 H         1 UNK         0.0600 
    204 H204       -5.0354  -24.7697  -49.6503 H         1 UNK         0.0600 
    205 H205       -2.6182  -23.3443  -46.4918 H         1 UNK         0.3000 
    206 H206       -3.1713  -21.9031  -44.9246 H         1 UNK         0.0600 
    207 H207       -3.7321  -23.9052  -43.5871 H         1 UNK         0.0600 
    208 H208       -4.7579  -22.5494  -43.1473 H         1 UNK         0.0600 
    209 H209       -5.4023  -23.8503  -44.1389 H         1 UNK         0.0600 
    210 H210       -6.4051  -22.9643  -46.0237 H         1 UNK         0.3000 
    211 H211       -7.4202  -20.1913  -46.2681 H         1 UNK         0.0600 
    212 H212       -8.7471  -22.9177  -46.7314 H         1 UNK         0.0600 
    213 H213       -9.5548  -21.3559  -46.8305 H         1 UNK         0.0600 
    214 H214       -8.9154  -21.9138  -45.2922 H         1 UNK         0.0600 
    215 H215       -5.4856  -19.9556  -47.7675 H         1 UNK         0.3000 
    216 H216       -6.0457  -20.7695  -50.5891 H         1 UNK         0.0600 
    217 H217       -4.1935  -22.1086  -49.6371 H         1 UNK         0.0600 
    218 H218       -3.4169  -20.6614  -48.9963 H         1 UNK         0.0600 
    219 H219       -3.5123  -20.9132  -50.7311 H         1 UNK         0.0600 
    220 H220       -5.0209  -19.3611  -52.1736 H         1 UNK         0.3000 
    221 H221       -4.2356  -16.6542  -51.3649 H         1 UNK         0.0600 
    222 H222       -6.7321  -16.4922  -51.6173 H         1 UNK         0.0600 
    223 H223       -5.9141  -15.6024  -52.8879 H         1 UNK         0.0600 
    224 H224       -6.6185  -17.1754  -53.2364 H         1 UNK         0.0600 
    225 H225       -3.7035  -15.4242  -53.5198 H         1 UNK         0.3000 
    226 H226       -1.6954  -16.8314  -54.9648 H         1 UNK         0.0600 
    227 H227       -1.6316  -14.3828  -54.6134 H         1 UNK         0.0600 
    228 H228       -1.6277  -14.7421  -56.3334 H         1 UNK         0.0600 
    229 H229       -3.1044  -14.1756  -55.5622 H         1 UNK         0.0600 
    230 H230       -1.8752  -18.1758  -56.6178 H         1 UNK         0.3000 
    231 H231       -2.5695  -19.4467  -58.2626 H         1 UNK         0.0600 
    232 H232       -3.9428  -18.5776  -60.0895 H         1 UNK         0.0600 
    233 H233       -2.8512  -17.3118  -59.5555 H         1 UNK         0.0600 
    234 H234       -4.5521  -17.2678  -59.0916 H         1 UNK         0.0600 
    235 H235       -4.0330  -19.3963  -55.5678 H         1 UNK         0.3000 
    236 H236       -5.9254  -21.5385  -56.2255 H         1 UNK         0.0600 
    237 H237       -6.7611  -19.0220  -54.6757 H         1 UNK         0.0600 
    238 H238       -7.4035  -19.5298  -56.2350 H         1 UNK         0.0600 
    239 H239       -7.7119  -20.4985  -54.8012 H         1 UNK         0.0600 
    240 H240       -3.6624  -22.2189  -55.4438 H         1 UNK         0.3000 
    241 H241       -2.9523  -21.6129  -52.7679 H         1 UNK         0.0600 
    242 H242       -5.0298  -24.9945  -52.2364 H         1 UNK         0.3800 
    243 H243       -5.2128  -24.0030  -53.6588 H         1 UNK         0.3800 
    244 H244       -1.4791  -22.3169  -54.9648 H         1 UNK         0.0800 
    245 H245       -1.4811  -23.8495  -54.1516 H         1 UNK         0.0800 
    246 H246       -1.1621  -20.0817  -53.7485 H         1 UNK         0.0800 
    247 H247        0.4082  -20.4570  -54.4226 H         1 UNK         0.0800 
@<TRIPOS>BOND
     1    1    2 1    
     2    1  127 1    
     3    1  128 1    
     4    1  129 1    
     5    2    3 2    
     6    2    4 am   BACKBONE|DICT|INTERRES
     7    4    5 1    
     8    4  130 1    
     9    5    6 1    
    10    5   65 1    
    11    5  131 1    
    12    6    7 1    
    13    6  132 1    
    14    6  133 1    
    15    7    8 1    
    16    8    9 1    
    17    8  134 1    
    18    8  135 1    
    19    9   10 ar   
    20    9   14 ar   
    21   10   11 ar   
    22   10  136 1    
    23   11   12 ar   
    24   11  126 1    
    25   12   13 ar   
    26   12  137 1    
    27   13   14 ar   
    28   13   15 1    
    29   14  138 1    
    30   15   16 1    
    31   15  139 1    
    32   15  140 1    
    33   16   17 1    
    34   17   18 1    
    35   17  141 1    
    36   17  142 1    
    37   18   19 1    
    38   18   67 1    
    39   18  143 1    
    40   19   20 am   BACKBONE|DICT|INTERRES
    41   19  144 1    
    42   20   21 2    
    43   20   22 1    
    44   22   23 1    
    45   22   24 1    
    46   22  145 1    
    47   23  146 1    
    48   23  147 1    
    49   23  148 1    
    50   24   25 am   BACKBONE|DICT|INTERRES
    51   24  149 1    
    52   25   26 2    
    53   25   27 1    
    54   27   28 1    
    55   27   29 1    
    56   27  150 1    
    57   28  151 1    
    58   28  152 1    
    59   28  153 1    
    60   29   30 am   BACKBONE|DICT|INTERRES
    61   29  154 1    
    62   30   31 2    
    63   30   32 1    
    64   32   33 1    
    65   32   34 1    
    66   32  155 1    
    67   33  156 1    
    68   33  157 1    
    69   33  158 1    
    70   34   35 am   BACKBONE|DICT|INTERRES
    71   34  159 1    
    72   35   36 2    
    73   35   37 1    
    74   37   38 1    
    75   37   39 1    
    76   37  160 1    
    77   38  161 1    
    78   38  162 1    
    79   38  163 1    
    80   39   40 am   BACKBONE|DICT|INTERRES
    81   39  164 1    
    82   40   41 2    
    83   40   42 1    
    84   42   43 1    
    85   42   44 1    
    86   42  165 1    
    87   43  166 1    
    88   43  167 1    
    89   43  168 1    
    90   44   45 am   BACKBONE|DICT|INTERRES
    91   44  169 1    
    92   45   46 2    
    93   45   47 1    
    94   47   48 1    
    95   47   49 1    
    96   47  170 1    
    97   48  171 1    
    98   48  172 1    
    99   48  173 1    
   100   49   50 am   BACKBONE|DICT|INTERRES
   101   49  174 1    
   102   50   51 2    
   103   50   52 1    
   104   52   53 1    
   105   52   54 1    
   106   52  175 1    
   107   53  176 1    
   108   53  177 1    
   109   53  178 1    
   110   54   55 am   BACKBONE|DICT|INTERRES
   111   54  179 1    
   112   55   56 2    
   113   55   57 1    
   114   57   58 1    
   115   57   59 1    
   116   57  180 1    
   117   58  181 1    
   118   58  182 1    
   119   58  183 1    
   120   59   60 am   BACKBONE|DICT|INTERRES
   121   59  184 1    
   122   60   61 2    
   123   60   62 1    
   124   62   63 1    
   125   62   64 1    
   126   62  185 1    
   127   63  186 1    
   128   63  187 1    
   129   63  188 1    
   130   64   65 am   BACKBONE|DICT|INTERRES
   131   64  189 1    
   132   65   66 2    
   133   67   68 2    
   134   67   69 am   BACKBONE|DICT|INTERRES
   135   69   70 1    
   136   69  190 1    
   137   70   71 1    
   138   70   72 1    
   139   70  191 1    
   140   71  192 1    
   141   71  193 1    
   142   71  194 1    
   143   72   73 2    
   144   72   74 am   BACKBONE|DICT|INTERRES
   145   74   75 1    
   146   74  195 1    
   147   75   76 1    
   148   75   77 1    
   149   75  196 1    
   150   76  197 1    
   151   76  198 1    
   152   76  199 1    
   153   77   78 2    
   154   77   79 am   BACKBONE|DICT|INTERRES
   155   79   80 1    
   156   79  200 1    
   157   80   81 1    
   158   80   82 1    
   159   80  201 1    
   160   81  202 1    
   161   81  203 1    
   162   81  204 1    
   163   82   83 2    
   164   82   84 am   BACKBONE|DICT|INTERRES
   165   84   85 1    
   166   84  205 1    
   167   85   86 1    
   168   85   87 1    
   169   85  206 1    
   170   86  207 1    
   171   86  208 1    
   172   86  209 1    
   173   87   88 2    
   174   87   89 am   BACKBONE|DICT|INTERRES
   175   89   90 1    
   176   89  210 1    
   177   90   91 1    
   178   90   92 1    
   179   90  211 1    
   180   91  212 1    
   181   91  213 1    
   182   91  214 1    
   183   92   93 2    
   184   92   94 am   BACKBONE|DICT|INTERRES
   185   94   95 1    
   186   94  215 1    
   187   95   96 1    
   188   95   97 1    
   189   95  216 1    
   190   96  217 1    
   191   96  218 1    
   192   96  219 1    
   193   97   98 2    
   194   97   99 am   BACKBONE|DICT|INTERRES
   195   99  100 1    
   196   99  220 1    
   197  100  101 1    
   198  100  102 1    
   199  100  221 1    
   200  101  222 1    
   201  101  223 1    
   202  101  224 1    
   203  102  103 2    
   204  102  104 am   BACKBONE|DICT|INTERRES
   205  104  105 1    
   206  104  225 1    
   207  105  106 1    
   208  105  107 1    
   209  105  226 1    
   210  106  227 1    
   211  106  228 1    
   212  106  229 1    
   213  107  108 2    
   214  107  109 am   BACKBONE|DICT|INTERRES
   215  109  110 1    
   216  109  230 1    
   217  110  111 1    
   218  110  112 1    
   219  110  231 1    
   220  111  232 1    
   221  111  233 1    
   222  111  234 1    
   223  112  113 2    
   224  112  114 am   BACKBONE|DICT|INTERRES
   225  114  115 1    
   226  114  235 1    
   227  115  116 1    
   228  115  117 1    
   229  115  236 1    
   230  116  237 1    
   231  116  238 1    
   232  116  239 1    
   233  117  118 2    
   234  117  119 am   BACKBONE|DICT|INTERRES
   235  119  120 1    
   236  119  240 1    
   237  120  121 1    
   238  120  124 1    
   239  120  241 1    
   240  121  122 am   BACKBONE|DICT|INTERRES
   241  121  123 2    
   242  122  242 1    
   243  122  243 1    
   244  124  125 1    
   245  124  244 1    
   246  124  245 1    
   247  125  126 1    
   248  126  246 1    
   249  126  247 1    
@<TRIPOS>SUBSTRUCTURE
     1 UNK         1 GROUP             0       ****    0 ROOT    
