@<TRIPOS>MOLECULE
3R540
247   249    1
SMALL
USER_CHARGES


@<TRIPOS>ATOM
      1 CA         -0.3683  -12.5515  -47.5319 C.3       0 UNK        -0.1800 
      2 C           1.0078  -12.5289  -48.1794 C.2       0 UNK         0.5000 
      3 O           1.1806  -11.9329  -49.2430 O.2       0 UNK        -0.5000 
      4 N           1.9939  -13.1680  -47.5402 N.am      1 UNK        -0.5000 
      5 CA          3.3649  -13.3593  -48.0361 C.3       1 UNK         0.1400 
      6 C6          4.0166  -14.6327  -47.4343 C.3       23 UNK        -0.0398 
      7 S7          2.9853  -16.1231  -47.6318 S.3       23 UNK        -0.2404 
      8 C8          3.7408  -16.8938  -49.0909 C.3       23 UNK        -0.0205 
      9 C9          2.9844  -18.1541  -49.4721 C.ar      23 UNK        -0.0193 
     10 C10         2.0052  -18.1186  -50.4683 C.ar      23 UNK        -0.1150 
     11 C11         1.2982  -19.2755  -50.8082 C.ar      23 UNK        -0.0193 
     12 C12         1.5635  -20.4694  -50.1308 C.ar      23 UNK        -0.1150 
     13 C13         2.5433  -20.5172  -49.1332 C.ar      23 UNK        -0.0193 
     14 C14         3.2573  -19.3574  -48.8176 C.ar      23 UNK        -0.1150 
     15 C15         2.8427  -21.8254  -48.4156 C.3       23 UNK        -0.0205 
     16 S16         2.6832  -21.6776  -46.6112 S.3       23 UNK        -0.2404 
     17 C17         2.5400  -23.4329  -46.1153 C.3       23 UNK        -0.0398 
     18 CA          1.1693  -23.7993  -45.4838 C.3       11 UNK         0.1400 
     19 N           0.7948  -22.8796  -44.4094 N.am      11 UNK        -0.5000 
     20 C           1.0451  -23.0392  -43.1056 C.2       10 UNK         0.5000 
     21 O           1.6144  -24.0273  -42.6407 O.2       10 UNK        -0.5000 
     22 CA          0.5856  -21.9137  -42.1506 C.3       10 UNK         0.1400 
     23 CB          1.7964  -21.1113  -41.6495 C.3       10 UNK        -0.1800 
     24 N          -0.3791  -20.9820  -42.7411 N.am      10 UNK        -0.5000 
     25 C          -1.6221  -21.2951  -43.1317 C.2       9 UNK         0.5000 
     26 O          -2.1271  -22.4038  -42.9582 O.2       9 UNK        -0.5000 
     27 CA         -2.4133  -20.2099  -43.8903 C.3       9 UNK         0.1400 
     28 CB         -3.3479  -19.4596  -42.9328 C.3       9 UNK        -0.1800 
     29 N          -1.5603  -19.2494  -44.5990 N.am      9 UNK        -0.5000 
     30 C          -0.7425  -19.5618  -45.6165 C.2       8 UNK         0.5000 
     31 O          -0.6314  -20.7012  -46.0646 O.2       8 UNK        -0.5000 
     32 CA          0.1119  -18.4276  -46.2065 C.3       8 UNK         0.1400 
     33 CB         -0.6701  -17.6579  -47.2819 C.3       8 UNK        -0.1800 
     34 N           0.5537  -17.5005  -45.1652 N.am      8 UNK        -0.5000 
     35 C           1.6427  -17.6856  -44.4055 C.2       7 UNK         0.5000 
     36 O           2.4131  -18.6368  -44.5279 O.2       7 UNK        -0.5000 
     37 CA          1.9045  -16.6454  -43.2989 C.3       7 UNK         0.1400 
     38 CB          2.7109  -15.4593  -43.8496 C.3       7 UNK        -0.1800 
     39 N           0.6763  -16.1469  -42.6797 N.am      7 UNK        -0.5000 
     40 C          -0.1619  -16.8960  -41.9461 C.2       6 UNK         0.5000 
     41 O           0.0321  -18.0835  -41.6875 O.2       6 UNK        -0.5000 
     42 CA         -1.4580  -16.2205  -41.4527 C.3       6 UNK         0.1400 
     43 CB         -1.2429  -15.6080  -40.0608 C.3       6 UNK        -0.1800 
     44 N          -1.9654  -15.1843  -42.3527 N.am      6 UNK        -0.5000 
     45 C          -2.2415  -15.3324  -43.6566 C.2       5 UNK         0.5000 
     46 O          -2.1716  -16.4082  -44.2519 O.2       5 UNK        -0.5000 
     47 CA         -2.5931  -14.0527  -44.4412 C.3       5 UNK         0.1400 
     48 CB         -4.1103  -13.9584  -44.6569 C.3       5 UNK        -0.1800 
     49 N          -2.1177  -12.8099  -43.8173 N.am      5 UNK        -0.5000 
     50 C          -0.8379  -12.5061  -43.5570 C.2       4 UNK         0.5000 
     51 O           0.1072  -13.2659  -43.7880 O.2       4 UNK        -0.5000 
     52 CA         -0.5922  -11.1552  -42.8563 C.3       4 UNK         0.1400 
     53 CB         -0.7602  -11.3123  -41.3366 C.3       4 UNK        -0.1800 
     54 N           0.7428  -10.6207  -43.1267 N.am      4 UNK        -0.5000 
     55 C           1.1708  -10.2177  -44.3287 C.2       3 UNK         0.5000 
     56 O           0.4445  -10.1684  -45.3259 O.2       3 UNK        -0.5000 
     57 CA          2.6517   -9.8110  -44.4435 C.3       3 UNK         0.1400 
     58 CB          3.5887  -10.7697  -43.6759 C.3       3 UNK        -0.1800 
     59 N           2.9931   -9.8120  -45.8591 N.am      3 UNK        -0.5000 
     60 C           4.0620   -9.2696  -46.4504 C.2       2 UNK         0.5000 
     61 O           4.9000   -8.5846  -45.8611 O.2       2 UNK        -0.5000 
     62 CA          4.2111   -9.5853  -47.9574 C.3       2 UNK         0.1400 
     63 CB          5.6365   -9.3387  -48.4944 C.3       2 UNK        -0.1800 
     64 N           3.7473  -10.9446  -48.2776 N.am      2 UNK        -0.5000 
     65 C           4.2231  -12.0984  -47.7825 C.2       1 UNK         0.5000 
     66 O           5.2483  -12.1776  -47.1033 O.2       1 UNK        -0.5000 
     67 C           0.0008  -23.9225  -46.4870 C.2       11 UNK         0.5000 
     68 O           0.2216  -24.0546  -47.6927 O.2       11 UNK        -0.5000 
     69 N          -1.2322  -23.8866  -45.9513 N.am      12 UNK        -0.5000 
     70 CA         -2.5134  -23.7901  -46.6597 C.3       12 UNK         0.1400 
     71 CB         -3.6583  -23.8968  -45.6410 C.3       12 UNK        -0.1800 
     72 C          -2.7470  -24.8054  -47.7897 C.2       12 UNK         0.5000 
     73 O          -3.4723  -24.4868  -48.7327 O.2       12 UNK        -0.5000 
     74 N          -2.1367  -25.9937  -47.6946 N.am      13 UNK        -0.5000 
     75 CA         -2.2009  -27.0560  -48.7008 C.3       13 UNK         0.1400 
     76 CB         -1.4324  -28.2831  -48.1895 C.3       13 UNK        -0.1800 
     77 C          -1.6740  -26.6251  -50.0839 C.2       13 UNK         0.5000 
     78 O          -2.2419  -27.0289  -51.0987 O.2       13 UNK        -0.5000 
     79 N          -0.6430  -25.7674  -50.1031 N.am      14 UNK        -0.5000 
     80 CA         -0.0715  -25.1942  -51.3257 C.3       14 UNK         0.1400 
     81 CB          1.3450  -24.6878  -51.0288 C.3       14 UNK        -0.1800 
     82 C          -0.9340  -24.0655  -51.9257 C.2       14 UNK         0.5000 
     83 O          -0.7196  -23.6981  -53.0804 O.2       14 UNK        -0.5000 
     84 N          -1.8938  -23.5536  -51.1437 N.am      15 UNK        -0.5000 
     85 CA         -2.9052  -22.5761  -51.5432 C.3       15 UNK         0.1400 
     86 CB         -3.0097  -21.5055  -50.4426 C.3       15 UNK        -0.1800 
     87 C          -4.2688  -23.2470  -51.8132 C.2       15 UNK         0.5000 
     88 O          -5.2828  -22.5474  -51.8534 O.2       15 UNK        -0.5000 
     89 N          -4.2715  -24.5815  -51.9659 N.am      16 UNK        -0.5000 
     90 CA         -5.4210  -25.4610  -52.1985 C.3       16 UNK         0.1400 
     91 CB         -6.0634  -25.1769  -53.5698 C.3       16 UNK        -0.1800 
     92 C          -6.4313  -25.4289  -51.0346 C.2       16 UNK         0.5000 
     93 O          -7.6276  -25.2349  -51.2521 O.2       16 UNK        -0.5000 
     94 N          -5.9070  -25.6102  -49.8145 N.am      17 UNK        -0.5000 
     95 CA         -6.6044  -25.5589  -48.5253 C.3       17 UNK         0.1400 
     96 CB         -7.7070  -26.6345  -48.4272 C.3       17 UNK        -0.1800 
     97 C          -7.0938  -24.1340  -48.2017 C.2       17 UNK         0.5000 
     98 O          -8.2434  -23.9431  -47.8016 O.2       17 UNK        -0.5000 
     99 N          -6.1863  -23.1632  -48.3894 N.am      18 UNK        -0.5000 
    100 CA        -6.3659  -21.7243  -48.1593 C.3       18 UNK         0.1400 
    101 CB        -6.5575  -21.4201  -46.6580 C.3       18 UNK        -0.1800 
    102 C         -7.4552  -21.0858  -49.0490 C.2       18 UNK         0.5000 
    103 O         -8.1272  -20.1434  -48.6268 O.2       18 UNK        -0.5000 
    104 N         -7.5847  -21.5854  -50.2851 N.am      19 UNK        -0.5000 
    105 CA        -8.4550  -21.0298  -51.3250 C.3       19 UNK         0.1400 
    106 CB        -8.8447  -22.1571  -52.2929 C.3       19 UNK        -0.1800 
    107 C         -7.7880  -19.8677  -52.0910 C.2       19 UNK         0.5000 
    108 O         -8.4480  -19.2312  -52.9125 O.2       19 UNK        -0.5000 
    109 N         -6.4933  -19.6348  -51.8227 N.am      20 UNK        -0.5000 
    110 CA        -5.5902  -18.6588  -52.4438 C.3       20 UNK         0.1400 
    111 CB        -6.1322  -17.2184  -52.3346 C.3       20 UNK        -0.1800 
    112 C         -5.1730  -19.0352  -53.8800 C.2       20 UNK         0.5000 
    113 O         -4.5990  -18.2047  -54.5866 O.2       20 UNK        -0.5000 
    114 N         -5.4085  -20.2932  -54.2760 N.am      21 UNK        -0.5000 
    115 CA        -4.9553  -20.8765  -55.5363 C.3       21 UNK         0.1400 
    116 CB        -5.9527  -21.9628  -55.9716 C.3       21 UNK        -0.1800 
    117 C         -3.5253  -21.4119  -55.3468 C.2       21 UNK         0.5000 
    118 O         -3.3223  -22.6223  -55.2496 O.2       21 UNK        -0.5000 
    119 N         -2.5790  -20.4759  -55.2103 N.am      22 UNK        -0.5000 
    120 CA        -1.1612  -20.7155  -54.9169 C.3       22 UNK         0.1400 
    121 C         -0.4472  -21.5556  -56.0124 C.2       22 UNK         0.5000 
    122 N          0.0252  -22.7481  -55.6785 N.am      22 UNK        -0.7600 
    123 O         -0.3051  -21.1209  -57.1531 O.2       22 UNK        -0.5000 
    124 C124       -0.4328  -19.3772  -54.6297 C.3       23 UNK        -0.0398 
    125 S125        1.0064  -19.5900  -53.5306 S.3       23 UNK        -0.2404 
    126 C126        0.2552  -19.2339  -51.9124 C.3       23 UNK        -0.0205 
    127 H127       -0.7614  -11.5389  -47.4424 H         1 UNK         0.0600 
    128 H128       -1.0601  -13.1369  -48.1373 H         1 UNK         0.0600 
    129 H129       -0.3303  -12.9888  -46.5352 H         1 UNK         0.0600 
    130 H130        1.7909  -13.6222  -46.6617 H         1 UNK         0.3000 
    131 H131        3.3229  -13.4987  -49.1185 H         1 UNK         0.0600 
    132 H132        4.1932  -14.5011  -46.3656 H         1 UNK         0.0800 
    133 H133        4.9963  -14.8103  -47.8812 H         1 UNK         0.0800 
    134 H134        4.7840  -17.1349  -48.8809 H         1 UNK         0.0800 
    135 H135        3.7426  -16.1844  -49.9200 H         1 UNK         0.0800 
    136 H136        1.7956  -17.1911  -50.9825 H         1 UNK         0.1150 
    137 H137        1.0133  -21.3630  -50.3907 H         1 UNK         0.1150 
    138 H138        4.0130  -19.3870  -48.0451 H         1 UNK         0.1150 
    139 H139        2.1608  -22.6005  -48.7557 H         1 UNK         0.0800 
    140 H140        3.8504  -22.1578  -48.6672 H         1 UNK         0.0800 
    141 H141        2.7707  -24.0888  -46.9562 H         1 UNK         0.0800 
    142 H142        3.3252  -23.6213  -45.3822 H         1 UNK         0.0800 
    143 H143        1.2699  -24.8026  -45.0651 H         1 UNK         0.0600 
    144 H144        0.3321  -22.0332  -44.7251 H         1 UNK         0.3000 
    145 H145        0.1095  -22.3906  -41.2917 H         1 UNK         0.0600 
    146 H146        1.4986  -20.3671  -40.9106 H         1 UNK         0.0600 
    147 H147        2.5314  -21.7626  -41.1750 H         1 UNK         0.0600 
    148 H148        2.2969  -20.5906  -42.4670 H         1 UNK         0.0600 
    149 H149       -0.0644  -20.0281  -42.8680 H         1 UNK         0.3000 
    150 H150       -3.0280  -20.7111  -44.6403 H         1 UNK         0.0600 
    151 H151       -4.0956  -20.1346  -42.5145 H         1 UNK         0.0600 
    152 H152       -3.8812  -18.6554  -43.4404 H         1 UNK         0.0600 
    153 H153       -2.7968  -19.0301  -42.0978 H         1 UNK         0.0600 
    154 H154       -1.6445  -18.2747  -44.3263 H         1 UNK         0.3000 
    155 H155        0.9852  -18.8765  -46.6857 H         1 UNK         0.0600 
    156 H156       -1.5644  -17.1853  -46.8743 H         1 UNK         0.0600 
    157 H157       -0.9852  -18.3268  -48.0840 H         1 UNK         0.0600 
    158 H158       -0.0546  -16.8800  -47.7340 H         1 UNK         0.0600 
    159 H159       -0.0615  -16.7261  -44.9572 H         1 UNK         0.3000 
    160 H160        2.4989  -17.1300  -42.5214 H         1 UNK         0.0600 
    161 H161        2.9426  -14.7384  -43.0654 H         1 UNK         0.0600 
    162 H162        2.1674  -14.9348  -44.6362 H         1 UNK         0.0600 
    163 H163        3.6575  -15.7973  -44.2728 H         1 UNK         0.0600 
    164 H164        0.4328  -15.1819  -42.8738 H         1 UNK         0.3000 
    165 H165       -2.2276  -16.9873  -41.3701 H         1 UNK         0.0600 
    166 H166       -2.1720  -15.2035  -39.6589 H         1 UNK         0.0600 
    167 H167       -0.8849  -16.3587  -39.3549 H         1 UNK         0.0600 
    168 H168       -0.5077  -14.8024  -40.0850 H         1 UNK         0.0600 
    169 H169       -2.0538  -14.2589  -41.9615 H         1 UNK         0.3000 
    170 H170       -2.1157  -14.1384  -45.4187 H         1 UNK         0.0600 
    171 H171       -4.4931  -14.8572  -45.1426 H         1 UNK         0.0600 
    172 H172       -4.6445  -13.8425  -43.7130 H         1 UNK         0.0600 
    173 H173       -4.3667  -13.1128  -45.2954 H         1 UNK         0.0600 
    174 H174       -2.8318  -12.1362  -43.5792 H         1 UNK         0.3000 
    175 H175       -1.3274  -10.4344  -43.2202 H         1 UNK         0.0600 
    176 H176       -0.0446  -12.0250  -40.9240 H         1 UNK         0.0600 
    177 H177       -0.6195  -10.3606  -40.8236 H         1 UNK         0.0600 
    178 H178       -1.7599  -11.6684  -41.0848 H         1 UNK         0.0600 
    179 H179        1.4042  -10.6645  -42.3660 H         1 UNK         0.3000 
    180 H180        2.7569   -8.7976  -44.0520 H         1 UNK         0.0600 
    181 H181        3.4491  -11.8040  -43.9945 H         1 UNK         0.0600 
    182 H182        3.4137  -10.7261  -42.6008 H         1 UNK         0.0600 
    183 H183        4.6368  -10.5151  -43.8327 H         1 UNK         0.0600 
    184 H184        2.3100  -10.2899  -46.4327 H         1 UNK         0.3000 
    185 H185        3.5401   -8.9017  -48.4792 H         1 UNK         0.0600 
    186 H186        5.9179   -8.2910  -48.3833 H         1 UNK         0.0600 
    187 H187        6.3812   -9.9328  -47.9642 H         1 UNK         0.0600 
    188 H188        5.7056   -9.5818  -49.5547 H         1 UNK         0.0600 
    189 H189        2.8828  -11.0041  -48.8084 H         1 UNK         0.3000 
    190 H190       -1.2892  -23.7839  -44.9472 H         1 UNK         0.3000 
    191 H191       -2.5512  -22.7989  -47.1158 H         1 UNK         0.0600 
    192 H192       -3.5622  -24.7889  -45.0211 H         1 UNK         0.0600 
    193 H193       -4.6297  -23.9491  -46.1323 H         1 UNK         0.0600 
    194 H194       -3.6839  -23.0314  -44.9816 H         1 UNK         0.0600 
    195 H195       -1.5549  -26.1656  -46.8881 H         1 UNK         0.3000 
    196 H196       -3.2497  -27.3353  -48.8205 H         1 UNK         0.0600 
    197 H197       -1.4785  -29.1012  -48.9096 H         1 UNK         0.0600 
    198 H198       -1.8542  -28.6514  -47.2542 H         1 UNK         0.0600 
    199 H199       -0.3796  -28.0556  -48.0173 H         1 UNK         0.0600 
    200 H200       -0.2697  -25.4231  -49.2241 H         1 UNK         0.3000 
    201 H201        0.0034  -25.9824  -52.0779 H         1 UNK         0.0600 
    202 H202        1.9752  -25.4796  -50.6236 H         1 UNK         0.0600 
    203 H203        1.3216  -23.8726  -50.3102 H         1 UNK         0.0600 
    204 H204        1.8274  -24.3147  -51.9333 H         1 UNK         0.0600 
    205 H205       -2.0130  -23.9426  -50.2168 H         1 UNK         0.3000 
    206 H206       -2.6091  -22.0828  -52.4677 H         1 UNK         0.0600 
    207 H207       -3.6876  -20.7034  -50.7331 H         1 UNK         0.0600 
    208 H208       -2.0402  -21.0518  -50.2389 H         1 UNK         0.0600 
    209 H209       -3.3756  -21.9256  -49.5067 H         1 UNK         0.0600 
    210 H210       -3.3816  -25.0553  -51.8925 H         1 UNK         0.3000 
    211 H211       -5.0231  -26.4764  -52.2301 H         1 UNK         0.0600 
    212 H212       -6.5704  -24.2143  -53.5812 H         1 UNK         0.0600 
    213 H213       -6.8052  -25.9370  -53.8169 H         1 UNK         0.0600 
    214 H214       -5.3179  -25.1754  -54.3652 H         1 UNK         0.0600 
    215 H215       -4.8977  -25.6528  -49.7452 H         1 UNK         0.3000 
    216 H216       -5.8566  -25.7991  -47.7683 H         1 UNK         0.0600 
    217 H217       -8.1125  -26.6816  -47.4159 H         1 UNK         0.0600 
    218 H218       -7.3154  -27.6233  -48.6658 H         1 UNK         0.0600 
    219 H219       -8.5404  -26.4314  -49.1000 H         1 UNK         0.0600 
    220 H220       -5.2721  -23.4485  -48.7228 H         1 UNK         0.3000 
    221 H221       -5.4309  -21.2524  -48.4618 H         1 UNK         0.0600 
    222 H222       -7.4911  -21.8331  -46.2756 H         1 UNK         0.0600 
    223 H223       -5.7412  -21.8263  -46.0629 H         1 UNK         0.0600 
    224 H224       -6.5780  -20.3452  -46.4750 H         1 UNK         0.0600 
    225 H225       -6.9698  -22.3362  -50.5785 H         1 UNK         0.3000 
    226 H226       -9.3675  -20.6440  -50.8661 H         1 UNK         0.0600 
    227 H227       -9.3258  -22.9815  -51.7661 H         1 UNK         0.0600 
    228 H228       -9.5449  -21.8017  -53.0497 H         1 UNK         0.0600 
    229 H229       -7.9737  -22.5546  -52.8127 H         1 UNK         0.0600 
    230 H230       -6.0574  -20.2706  -51.1702 H         1 UNK         0.3000 
    231 H231       -4.6721  -18.6971  -51.8565 H         1 UNK         0.0600 
    232 H232       -6.4342  -16.9861  -51.3134 H         1 UNK         0.0600 
    233 H233       -6.9906  -17.0543  -52.9862 H         1 UNK         0.0600 
    234 H234       -5.3691  -16.4931  -52.6189 H         1 UNK         0.0600 
    235 H235       -5.8167  -20.9332  -53.6077 H         1 UNK         0.3000 
    236 H236       -4.9336  -20.1132  -56.3172 H         1 UNK         0.0600 
    237 H237       -5.6448  -22.4206  -56.9123 H         1 UNK         0.0600 
    238 H238       -6.0317  -22.7560  -55.2306 H         1 UNK         0.0600 
    239 H239       -6.9486  -21.5455  -56.1214 H         1 UNK         0.0600 
    240 H240       -2.8631  -19.5081  -55.2893 H         1 UNK         0.3000 
    241 H241       -1.1497  -21.2915  -53.9927 H         1 UNK         0.0600 
    242 H242        0.4962  -23.3110  -56.3683 H         1 UNK         0.3800 
    243 H243       -0.1556  -23.1290  -54.7509 H         1 UNK         0.3800 
    244 H244       -0.1077  -18.8955  -55.5536 H         1 UNK         0.0800 
    245 H245       -1.1119  -18.6658  -54.1574 H         1 UNK         0.0800 
    246 H246       -0.5336  -19.9602  -51.7146 H         1 UNK         0.0800 
    247 H247       -0.2220  -18.2528  -51.9340 H         1 UNK         0.0800 
@<TRIPOS>BOND
     1    1    2 1    
     2    1  127 1    
     3    1  128 1    
     4    1  129 1    
     5    2    3 2    
     6    2    4 am   BACKBONE|DICT|INTERRES
     7    4    5 1    
     8    4  130 1    
     9    5    6 1    
    10    5   65 1    
    11    5  131 1    
    12    6    7 1    
    13    6  132 1    
    14    6  133 1    
    15    7    8 1    
    16    8    9 1    
    17    8  134 1    
    18    8  135 1    
    19    9   10 ar   
    20    9   14 ar   
    21   10   11 ar   
    22   10  136 1    
    23   11   12 ar   
    24   11  126 1    
    25   12   13 ar   
    26   12  137 1    
    27   13   14 ar   
    28   13   15 1    
    29   14  138 1    
    30   15   16 1    
    31   15  139 1    
    32   15  140 1    
    33   16   17 1    
    34   17   18 1    
    35   17  141 1    
    36   17  142 1    
    37   18   19 1    
    38   18   67 1    
    39   18  143 1    
    40   19   20 am   BACKBONE|DICT|INTERRES
    41   19  144 1    
    42   20   21 2    
    43   20   22 1    
    44   22   23 1    
    45   22   24 1    
    46   22  145 1    
    47   23  146 1    
    48   23  147 1    
    49   23  148 1    
    50   24   25 am   BACKBONE|DICT|INTERRES
    51   24  149 1    
    52   25   26 2    
    53   25   27 1    
    54   27   28 1    
    55   27   29 1    
    56   27  150 1    
    57   28  151 1    
    58   28  152 1    
    59   28  153 1    
    60   29   30 am   BACKBONE|DICT|INTERRES
    61   29  154 1    
    62   30   31 2    
    63   30   32 1    
    64   32   33 1    
    65   32   34 1    
    66   32  155 1    
    67   33  156 1    
    68   33  157 1    
    69   33  158 1    
    70   34   35 am   BACKBONE|DICT|INTERRES
    71   34  159 1    
    72   35   36 2    
    73   35   37 1    
    74   37   38 1    
    75   37   39 1    
    76   37  160 1    
    77   38  161 1    
    78   38  162 1    
    79   38  163 1    
    80   39   40 am   BACKBONE|DICT|INTERRES
    81   39  164 1    
    82   40   41 2    
    83   40   42 1    
    84   42   43 1    
    85   42   44 1    
    86   42  165 1    
    87   43  166 1    
    88   43  167 1    
    89   43  168 1    
    90   44   45 am   BACKBONE|DICT|INTERRES
    91   44  169 1    
    92   45   46 2    
    93   45   47 1    
    94   47   48 1    
    95   47   49 1    
    96   47  170 1    
    97   48  171 1    
    98   48  172 1    
    99   48  173 1    
   100   49   50 am   BACKBONE|DICT|INTERRES
   101   49  174 1    
   102   50   51 2    
   103   50   52 1    
   104   52   53 1    
   105   52   54 1    
   106   52  175 1    
   107   53  176 1    
   108   53  177 1    
   109   53  178 1    
   110   54   55 am   BACKBONE|DICT|INTERRES
   111   54  179 1    
   112   55   56 2    
   113   55   57 1    
   114   57   58 1    
   115   57   59 1    
   116   57  180 1    
   117   58  181 1    
   118   58  182 1    
   119   58  183 1    
   120   59   60 am   BACKBONE|DICT|INTERRES
   121   59  184 1    
   122   60   61 2    
   123   60   62 1    
   124   62   63 1    
   125   62   64 1    
   126   62  185 1    
   127   63  186 1    
   128   63  187 1    
   129   63  188 1    
   130   64   65 am   BACKBONE|DICT|INTERRES
   131   64  189 1    
   132   65   66 2    
   133   67   68 2    
   134   67   69 am   BACKBONE|DICT|INTERRES
   135   69   70 1    
   136   69  190 1    
   137   70   71 1    
   138   70   72 1    
   139   70  191 1    
   140   71  192 1    
   141   71  193 1    
   142   71  194 1    
   143   72   73 2    
   144   72   74 am   BACKBONE|DICT|INTERRES
   145   74   75 1    
   146   74  195 1    
   147   75   76 1    
   148   75   77 1    
   149   75  196 1    
   150   76  197 1    
   151   76  198 1    
   152   76  199 1    
   153   77   78 2    
   154   77   79 am   BACKBONE|DICT|INTERRES
   155   79   80 1    
   156   79  200 1    
   157   80   81 1    
   158   80   82 1    
   159   80  201 1    
   160   81  202 1    
   161   81  203 1    
   162   81  204 1    
   163   82   83 2    
   164   82   84 am   BACKBONE|DICT|INTERRES
   165   84   85 1    
   166   84  205 1    
   167   85   86 1    
   168   85   87 1    
   169   85  206 1    
   170   86  207 1    
   171   86  208 1    
   172   86  209 1    
   173   87   88 2    
   174   87   89 am   BACKBONE|DICT|INTERRES
   175   89   90 1    
   176   89  210 1    
   177   90   91 1    
   178   90   92 1    
   179   90  211 1    
   180   91  212 1    
   181   91  213 1    
   182   91  214 1    
   183   92   93 2    
   184   92   94 am   BACKBONE|DICT|INTERRES
   185   94   95 1    
   186   94  215 1    
   187   95   96 1    
   188   95   97 1    
   189   95  216 1    
   190   96  217 1    
   191   96  218 1    
   192   96  219 1    
   193   97   98 2    
   194   97   99 am   BACKBONE|DICT|INTERRES
   195   99  100 1    
   196   99  220 1    
   197  100  101 1    
   198  100  102 1    
   199  100  221 1    
   200  101  222 1    
   201  101  223 1    
   202  101  224 1    
   203  102  103 2    
   204  102  104 am   BACKBONE|DICT|INTERRES
   205  104  105 1    
   206  104  225 1    
   207  105  106 1    
   208  105  107 1    
   209  105  226 1    
   210  106  227 1    
   211  106  228 1    
   212  106  229 1    
   213  107  108 2    
   214  107  109 am   BACKBONE|DICT|INTERRES
   215  109  110 1    
   216  109  230 1    
   217  110  111 1    
   218  110  112 1    
   219  110  231 1    
   220  111  232 1    
   221  111  233 1    
   222  111  234 1    
   223  112  113 2    
   224  112  114 am   BACKBONE|DICT|INTERRES
   225  114  115 1    
   226  114  235 1    
   227  115  116 1    
   228  115  117 1    
   229  115  236 1    
   230  116  237 1    
   231  116  238 1    
   232  116  239 1    
   233  117  118 2    
   234  117  119 am   BACKBONE|DICT|INTERRES
   235  119  120 1    
   236  119  240 1    
   237  120  121 1    
   238  120  124 1    
   239  120  241 1    
   240  121  122 am   BACKBONE|DICT|INTERRES
   241  121  123 2    
   242  122  242 1    
   243  122  243 1    
   244  124  125 1    
   245  124  244 1    
   246  124  245 1    
   247  125  126 1    
   248  126  246 1    
   249  126  247 1    
@<TRIPOS>SUBSTRUCTURE
     1 UNK         1 GROUP             0       ****    0 ROOT    
