@<TRIPOS>MOLECULE
3R540
247   249    1
SMALL
USER_CHARGES


@<TRIPOS>ATOM
      1 CA          2.4441  -13.4317  -47.0404 C.3       0 UNK        -0.1800 
      2 C           1.0598  -13.7331  -46.4878 C.2       0 UNK         0.5000 
      3 O           0.7687  -13.3844  -45.3440 O.2       0 UNK        -0.5000 
      4 N           0.2011  -14.3758  -47.2913 N.am      1 UNK        -0.5000 
      5 CA         -1.1715  -14.7487  -46.9202 C.3       1 UNK         0.1400 
      6 C6         -1.8337  -15.6850  -47.9606 C.3       23 UNK        -0.0398 
      7 S7         -1.0479  -17.3295  -48.0560 S.3       23 UNK        -0.2404 
      8 C8          0.0632  -17.1383  -49.4828 C.3       23 UNK        -0.0205 
      9 C9          0.4477  -18.4813  -50.0859 C.ar      23 UNK        -0.0193 
     10 C10        -0.2839  -18.9897  -51.1620 C.ar      23 UNK        -0.1150 
     11 C11         0.0944  -20.1828  -51.7829 C.ar      23 UNK        -0.0193 
     12 C12         1.2114  -20.8768  -51.3103 C.ar      23 UNK        -0.1150 
     13 C13         1.9448  -20.3900  -50.2235 C.ar      23 UNK        -0.0193 
     14 C14         1.5557  -19.1921  -49.6115 C.ar      23 UNK        -0.1150 
     15 C15         3.1878  -21.1364  -49.7559 C.3       23 UNK        -0.0205 
     16 S16         2.7917  -22.6923  -48.8951 S.3       23 UNK        -0.2404 
     17 C17         2.2878  -22.0619  -47.2622 C.3       23 UNK        -0.0398 
     18 CA          1.4197  -23.0592  -46.4564 C.3       11 UNK         0.1400 
     19 N           1.3554  -22.6983  -45.0366 N.am      11 UNK        -0.5000 
     20 C           0.7872  -23.4405  -44.0749 C.2       10 UNK         0.5000 
     21 O           0.3152  -24.5596  -44.2652 O.2       10 UNK        -0.5000 
     22 CA          0.6821  -22.8116  -42.6730 C.3       10 UNK         0.1400 
     23 CB          1.9901  -22.9952  -41.8898 C.3       10 UNK        -0.1800 
     24 N           0.3220  -21.3938  -42.7173 N.am      10 UNK        -0.5000 
     25 C          -0.8397  -20.9215  -43.1941 C.2       9 UNK         0.5000 
     26 O          -1.7621  -21.6399  -43.5786 O.2       9 UNK        -0.5000 
     27 CA         -0.9690  -19.3924  -43.3240 C.3       9 UNK         0.1400 
     28 CB         -1.3331  -18.7508  -41.9772 C.3       9 UNK        -0.1800 
     29 N           0.2482  -18.7747  -43.8494 N.am      9 UNK        -0.5000 
     30 C           0.7700  -19.0297  -45.0570 C.2       8 UNK         0.5000 
     31 O           0.2419  -19.7717  -45.8826 O.2       8 UNK        -0.5000 
     32 CA          2.1454  -18.4145  -45.3638 C.3       8 UNK         0.1400 
     33 CB          2.0206  -16.9549  -45.8087 C.3       8 UNK        -0.1800 
     34 N           3.0382  -18.4898  -44.2105 N.am      8 UNK        -0.5000 
     35 C           3.6144  -19.6179  -43.7775 C.2       7 UNK         0.5000 
     36 O           3.4687  -20.7109  -44.3237 O.2       7 UNK        -0.5000 
     37 CA          4.4694  -19.5082  -42.5023 C.3       7 UNK         0.1400 
     38 CB          5.9031  -19.0796  -42.8480 C.3       7 UNK        -0.1800 
     39 N           3.9056  -18.5741  -41.5259 N.am      7 UNK        -0.5000 
     40 C           2.7609  -18.7832  -40.8616 C.2       6 UNK         0.5000 
     41 O           2.0693  -19.7926  -40.9924 O.2       6 UNK        -0.5000 
     42 CA          2.2876  -17.6545  -39.9283 C.3       6 UNK         0.1400 
     43 CB          2.9891  -17.7502  -38.5651 C.3       6 UNK        -0.1800 
     44 N           2.4733  -16.3079  -40.4795 N.am      6 UNK        -0.5000 
     45 C           1.9065  -15.8634  -41.6087 C.2       5 UNK         0.5000 
     46 O           1.2593  -16.5778  -42.3763 O.2       5 UNK        -0.5000 
     47 CA          2.1053  -14.3765  -41.9509 C.3       5 UNK         0.1400 
     48 CB          3.1912  -14.2087  -43.0243 C.3       5 UNK        -0.1800 
     49 N           0.8586  -13.7819  -42.4315 N.am      5 UNK        -0.5000 
     50 C          -0.2329  -13.5917  -41.6753 C.2       4 UNK         0.5000 
     51 O          -0.2687  -13.8199  -40.4641 O.2       4 UNK        -0.5000 
     52 CA         -1.4847  -13.0533  -42.3995 C.3       4 UNK         0.1400 
     53 CB         -2.5839  -12.5545  -41.4383 C.3       4 UNK        -0.1800 
     54 N          -1.1602  -12.0349  -43.4001 N.am      4 UNK        -0.5000 
     55 C          -0.5823  -10.8394  -43.2050 C.2       3 UNK         0.5000 
     56 O          -0.3046  -10.3808  -42.0963 O.2       3 UNK        -0.5000 
     57 CA         -0.2359  -10.0182  -44.4643 C.3       3 UNK         0.1400 
     58 CB          1.2886   -9.9276  -44.6451 C.3       3 UNK        -0.1800 
     59 N          -0.8174  -10.5849  -45.6830 N.am      3 UNK        -0.5000 
     60 C          -2.0643  -10.3575  -46.1180 C.2       2 UNK         0.5000 
     61 O          -2.8459   -9.5749  -45.5771 O.2       2 UNK        -0.5000 
     62 CA         -2.5213  -11.1564  -47.3549 C.3       2 UNK         0.1400 
     63 CB         -2.2892  -10.3419  -48.6366 C.3       2 UNK        -0.1800 
     64 N          -1.8463  -12.4515  -47.4831 N.am      2 UNK        -0.5000 
     65 C          -2.0533  -13.5049  -46.6782 C.2       1 UNK         0.5000 
     66 O          -2.8599  -13.5039  -45.7487 O.2       1 UNK        -0.5000 
     67 C           0.0094  -23.2222  -47.0617 C.2       11 UNK         0.5000 
     68 O          -0.2791  -24.2620  -47.6540 O.2       11 UNK        -0.5000 
     69 N          -0.8577  -22.2209  -46.8490 N.am      12 UNK        -0.5000 
     70 CA         -2.2570  -22.2194  -47.2766 C.3       12 UNK         0.1400 
     71 CB         -2.8991  -20.8652  -46.9448 C.3       12 UNK        -0.1800 
     72 C          -3.0669  -23.3837  -46.6766 C.2       12 UNK         0.5000 
     73 O          -3.7988  -24.0502  -47.4106 O.2       12 UNK        -0.5000 
     74 N          -2.8821  -23.6362  -45.3724 N.am      13 UNK        -0.5000 
     75 CA         -3.4782  -24.7580  -44.6444 C.3       13 UNK         0.1400 
     76 CB         -3.1882  -24.6115  -43.1435 C.3       13 UNK        -0.1800 
     77 C          -3.0096  -26.1330  -45.1573 C.2       13 UNK         0.5000 
     78 O          -3.8158  -27.0620  -45.2174 O.2       13 UNK        -0.5000 
     79 N          -1.7400  -26.2336  -45.5739 N.am      14 UNK        -0.5000 
     80 CA         -1.1222  -27.4100  -46.1932 C.3       14 UNK         0.1400 
     81 CB          0.4024  -27.3419  -45.9920 C.3       14 UNK        -0.1800 
     82 C          -1.5211  -27.5893  -47.6772 C.2       14 UNK         0.5000 
     83 O          -0.6665  -27.8505  -48.5251 O.2       14 UNK        -0.5000 
     84 N          -2.8247  -27.4585  -47.9555 N.am      15 UNK        -0.5000 
     85 CA         -3.5256  -27.6878  -49.2226 C.3       15 UNK         0.1400 
     86 CB         -3.3687  -29.1549  -49.6739 C.3       15 UNK        -0.1800 
     87 C          -3.2075  -26.6989  -50.3644 C.2       15 UNK         0.5000 
     88 O          -3.7500  -26.8739  -51.4571 O.2       15 UNK        -0.5000 
     89 N          -2.3842  -25.6670  -50.1222 N.am      16 UNK        -0.5000 
     90 CA         -2.0868  -24.6282  -51.1163 C.3       16 UNK         0.1400 
     91 CB         -0.7662  -23.9283  -50.7681 C.3       16 UNK        -0.1800 
     92 C          -3.2374  -23.6123  -51.2739 C.2       16 UNK         0.5000 
     93 O          -3.3116  -22.9400  -52.3027 O.2       16 UNK        -0.5000 
     94 N          -4.1154  -23.5265  -50.2622 N.am      17 UNK        -0.5000 
     95 CA         -5.4049  -22.8259  -50.1886 C.3       17 UNK         0.1400 
     96 CB         -6.3778  -23.3765  -51.2490 C.3       17 UNK        -0.1800 
     97 C          -5.3632  -21.2863  -50.2469 C.2       17 UNK         0.5000 
     98 O          -6.2550  -20.6534  -49.6812 O.2       17 UNK        -0.5000 
     99 N          -4.3657  -20.7153  -50.9352 N.am      18 UNK        -0.5000 
    100 CA        -4.2233  -19.2922  -51.2700 C.3       18 UNK         0.1400 
    101 CB        -4.0177  -18.4351  -50.0053 C.3       18 UNK        -0.1800 
    102 C         -5.3647  -18.7899  -52.1809 C.2       18 UNK         0.5000 
    103 O         -5.8319  -17.6584  -52.0383 O.2       18 UNK        -0.5000 
    104 N         -5.7937  -19.6639  -53.1016 N.am      19 UNK        -0.5000 
    105 CA        -6.8185  -19.4085  -54.1116 C.3       19 UNK         0.1400 
    106 CB        -7.2430  -20.7605  -54.7096 C.3       19 UNK        -0.1800 
    107 C         -6.3210  -18.4604  -55.2195 C.2       19 UNK         0.5000 
    108 O         -5.1194  -18.2006  -55.3245 O.2       19 UNK        -0.5000 
    109 N         -7.2484  -18.0058  -56.0726 N.am      20 UNK        -0.5000 
    110 CA        -6.9908  -17.1140  -57.2112 C.3       20 UNK         0.1400 
    111 CB        -8.3309  -16.7353  -57.8602 C.3       20 UNK        -0.1800 
    112 C         -6.0221  -17.6850  -58.2699 C.2       20 UNK         0.5000 
    113 O         -5.3855  -16.9108  -58.9851 O.2       20 UNK        -0.5000 
    114 N         -5.9097  -19.0196  -58.3371 N.am      21 UNK        -0.5000 
    115 CA        -4.9328  -19.7350  -59.1611 C.3       21 UNK         0.1400 
    116 CB        -5.3346  -21.2161  -59.2368 C.3       21 UNK        -0.1800 
    117 C         -3.4868  -19.5944  -58.6400 C.2       21 UNK         0.5000 
    118 O         -2.5499  -19.6501  -59.4376 O.2       21 UNK        -0.5000 
    119 N         -3.3344  -19.4132  -57.3223 N.am      22 UNK        -0.5000 
    120 CA        -2.0657  -19.1073  -56.6505 C.3       22 UNK         0.1400 
    121 C         -1.8225  -17.5732  -56.6001 C.2       22 UNK         0.5000 
    122 N         -2.8067  -16.7821  -56.1894 N.am      22 UNK        -0.7600 
    123 O         -0.7474  -17.0968  -56.9539 O.2       22 UNK        -0.5000 
    124 C124       -2.0298  -19.7509  -55.2405 C.3       23 UNK        -0.0398 
    125 S125       -0.3788  -19.7238  -54.4665 S.3       23 UNK        -0.2404 
    126 C126       -0.7004  -20.7049  -52.9697 C.3       23 UNK        -0.0205 
    127 H127        2.6055  -12.3545  -47.0767 H         1 UNK         0.0600 
    128 H128        3.2066  -13.8696  -46.3966 H         1 UNK         0.0600 
    129 H129        2.5757  -13.8327  -48.0455 H         1 UNK         0.0600 
    130 H130        0.4942  -14.6376  -48.2203 H         1 UNK         0.3000 
    131 H131       -1.1169  -15.2870  -45.9709 H         1 UNK         0.0600 
    132 H132       -1.8546  -15.2209  -48.9477 H         1 UNK         0.0800 
    133 H133       -2.8779  -15.8618  -47.6953 H         1 UNK         0.0800 
    134 H134        0.9606  -16.6003  -49.1762 H         1 UNK         0.0800 
    135 H135       -0.4171  -16.5245  -50.2461 H         1 UNK         0.0800 
    136 H136       -1.1335  -18.4382  -51.5372 H         1 UNK         0.1150 
    137 H137        1.5192  -21.7942  -51.7919 H         1 UNK         0.1150 
    138 H138        2.1260  -18.7992  -48.7819 H         1 UNK         0.1150 
    139 H139        3.8065  -21.3677  -50.6241 H         1 UNK         0.0800 
    140 H140        3.8003  -20.5069  -49.1083 H         1 UNK         0.0800 
    141 H141        3.2036  -21.8398  -46.7139 H         1 UNK         0.0800 
    142 H142        1.7732  -21.1107  -47.3900 H         1 UNK         0.0800 
    143 H143        1.9064  -24.0359  -46.5011 H         1 UNK         0.0600 
    144 H144        1.7671  -21.8087  -44.7791 H         1 UNK         0.3000 
    145 H145       -0.1087  -23.3367  -42.1336 H         1 UNK         0.0600 
    146 H146        1.8931  -22.6241  -40.8694 H         1 UNK         0.0600 
    147 H147        2.2629  -24.0494  -41.8280 H         1 UNK         0.0600 
    148 H148        2.8203  -22.4682  -42.3594 H         1 UNK         0.0600 
    149 H149        1.0087  -20.7376  -42.3578 H         1 UNK         0.3000 
    150 H150       -1.7760  -19.1853  -44.0298 H         1 UNK         0.0600 
    151 H151       -2.2594  -19.1704  -41.5830 H         1 UNK         0.0600 
    152 H152       -1.4790  -17.6753  -42.0800 H         1 UNK         0.0600 
    153 H153       -0.5551  -18.9116  -41.2308 H         1 UNK         0.0600 
    154 H154        0.7185  -18.1043  -43.2449 H         1 UNK         0.3000 
    155 H155        2.5949  -18.9792  -46.1834 H         1 UNK         0.0600 
    156 H156        2.9991  -16.4984  -45.9576 H         1 UNK         0.0600 
    157 H157        1.4729  -16.3559  -45.0808 H         1 UNK         0.0600 
    158 H158        1.4894  -16.8895  -46.7557 H         1 UNK         0.0600 
    159 H159        3.1544  -17.6464  -43.6690 H         1 UNK         0.3000 
    160 H160        4.5104  -20.4984  -42.0434 H         1 UNK         0.0600 
    161 H161        5.9316  -18.0832  -43.2908 H         1 UNK         0.0600 
    162 H162        6.3545  -19.7695  -43.5624 H         1 UNK         0.0600 
    163 H163        6.5368  -19.0716  -41.9610 H         1 UNK         0.0600 
    164 H164        4.4106  -17.7154  -41.3631 H         1 UNK         0.3000 
    165 H165        1.2169  -17.7952  -39.7667 H         1 UNK         0.0600 
    166 H166        4.0621  -17.5738  -38.6496 H         1 UNK         0.0600 
    167 H167        2.5833  -17.0238  -37.8608 H         1 UNK         0.0600 
    168 H168        2.8524  -18.7387  -38.1242 H         1 UNK         0.0600 
    169 H169        2.9987  -15.6606  -39.9096 H         1 UNK         0.3000 
    170 H170        2.4164  -13.8388  -41.0530 H         1 UNK         0.0600 
    171 H171        4.1470  -14.6057  -42.6806 H         1 UNK         0.0600 
    172 H172        2.9307  -14.7297  -43.9454 H         1 UNK         0.0600 
    173 H173        3.3433  -13.1574  -43.2696 H         1 UNK         0.0600 
    174 H174        0.8002  -13.5969  -43.4296 H         1 UNK         0.3000 
    175 H175       -1.8952  -13.8984  -42.9542 H         1 UNK         0.0600 
    176 H176       -3.4532  -12.1941  -41.9883 H         1 UNK         0.0600 
    177 H177       -2.9248  -13.3585  -40.7852 H         1 UNK         0.0600 
    178 H178       -2.2301  -11.7442  -40.8004 H         1 UNK         0.0600 
    179 H179       -1.3207  -12.3154  -44.3577 H         1 UNK         0.3000 
    180 H180       -0.6219   -9.0075  -44.3160 H         1 UNK         0.0600 
    181 H181        1.5480   -9.3304  -45.5194 H         1 UNK         0.0600 
    182 H182        1.7571   -9.4558  -43.7805 H         1 UNK         0.0600 
    183 H183        1.7415  -10.9124  -44.7640 H         1 UNK         0.0600 
    184 H184       -0.2521  -11.2638  -46.1715 H         1 UNK         0.3000 
    185 H185       -3.5936  -11.3372  -47.2541 H         1 UNK         0.0600 
    186 H186       -2.6728  -10.8660  -49.5121 H         1 UNK         0.0600 
    187 H187       -2.8007   -9.3797  -48.5857 H         1 UNK         0.0600 
    188 H188       -1.2296  -10.1419  -48.8011 H         1 UNK         0.0600 
    189 H189       -1.1554  -12.5315  -48.2150 H         1 UNK         0.3000 
    190 H190       -0.5270  -21.3830  -46.3740 H         1 UNK         0.3000 
    191 H191       -2.2683  -22.3311  -48.3608 H         1 UNK         0.0600 
    192 H192       -3.9251  -20.8181  -47.3118 H         1 UNK         0.0600 
    193 H193       -2.3487  -20.0478  -47.4102 H         1 UNK         0.0600 
    194 H194       -2.9225  -20.6801  -45.8709 H         1 UNK         0.0600 
    195 H195       -2.2956  -23.0059  -44.8316 H         1 UNK         0.3000 
    196 H196       -4.5593  -24.7052  -44.7872 H         1 UNK         0.0600 
    197 H197       -3.6490  -25.4204  -42.5753 H         1 UNK         0.0600 
    198 H198       -3.5853  -23.6736  -42.7548 H         1 UNK         0.0600 
    199 H199       -2.1182  -24.6329  -42.9370 H         1 UNK         0.0600 
    200 H200       -1.1364  -25.4247  -45.4713 H         1 UNK         0.3000 
    201 H201       -1.4783  -28.2980  -45.6672 H         1 UNK         0.0600 
    202 H202        0.6569  -27.2696  -44.9346 H         1 UNK         0.0600 
    203 H203        0.8360  -26.4801  -46.4997 H         1 UNK         0.0600 
    204 H204        0.8923  -28.2354  -46.3807 H         1 UNK         0.0600 
    205 H205       -3.4251  -27.2345  -47.1684 H         1 UNK         0.3000 
    206 H206       -4.5811  -27.5327  -48.9951 H         1 UNK         0.0600 
    207 H207       -3.6387  -29.8452  -48.8747 H         1 UNK         0.0600 
    208 H208       -4.0169  -29.3770  -50.5225 H         1 UNK         0.0600 
    209 H209       -2.3464  -29.3781  -49.9800 H         1 UNK         0.0600 
    210 H210       -1.9520  -25.5789  -49.2117 H         1 UNK         0.3000 
    211 H211       -1.9473  -25.1160  -52.0834 H         1 UNK         0.0600 
    212 H212       -0.8869  -23.1841  -49.9830 H         1 UNK         0.0600 
    213 H213       -0.3695  -23.4134  -51.6402 H         1 UNK         0.0600 
    214 H214       -0.0051  -24.6396  -50.4463 H         1 UNK         0.0600 
    215 H215       -3.9037  -24.0641  -49.4274 H         1 UNK         0.3000 
    216 H216       -5.8129  -23.0794  -49.2088 H         1 UNK         0.0600 
    217 H217       -7.3704  -22.9393  -51.1336 H         1 UNK         0.0600 
    218 H218       -6.4868  -24.4575  -51.1598 H         1 UNK         0.0600 
    219 H219       -6.0422  -23.1561  -52.2628 H         1 UNK         0.0600 
    220 H220       -3.7327  -21.3540  -51.4089 H         1 UNK         0.3000 
    221 H221       -3.3171  -19.2079  -51.8675 H         1 UNK         0.0600 
    222 H222       -4.9198  -18.3786  -49.3962 H         1 UNK         0.0600 
    223 H223       -3.2207  -18.8446  -49.3864 H         1 UNK         0.0600 
    224 H224       -3.7345  -17.4149  -50.2662 H         1 UNK         0.0600 
    225 H225       -5.3379  -20.5627  -53.1483 H         1 UNK         0.3000 
    226 H226       -7.6798  -18.9468  -53.6246 H         1 UNK         0.0600 
    227 H227       -8.0545  -20.6417  -55.4285 H         1 UNK         0.0600 
    228 H228       -6.4160  -21.2507  -55.2253 H         1 UNK         0.0600 
    229 H229       -7.6009  -21.4383  -53.9340 H         1 UNK         0.0600 
    230 H230       -8.2115  -18.2750  -55.9310 H         1 UNK         0.3000 
    231 H231       -6.5335  -16.2041  -56.8172 H         1 UNK         0.0600 
    232 H232       -8.1820  -16.0478  -58.6940 H         1 UNK         0.0600 
    233 H233       -8.9894  -16.2392  -57.1469 H         1 UNK         0.0600 
    234 H234       -8.8521  -17.6120  -58.2469 H         1 UNK         0.0600 
    235 H235       -6.4901  -19.5788  -57.7303 H         1 UNK         0.3000 
    236 H236       -4.9639  -19.3198  -60.1707 H         1 UNK         0.0600 
    237 H237       -5.3378  -21.6837  -58.2513 H         1 UNK         0.0600 
    238 H238       -6.3287  -21.3338  -59.6685 H         1 UNK         0.0600 
    239 H239       -4.6406  -21.7771  -59.8642 H         1 UNK         0.0600 
    240 H240       -4.1631  -19.2935  -56.7532 H         1 UNK         0.3000 
    241 H241       -1.2519  -19.5484  -57.2298 H         1 UNK         0.0600 
    242 H242       -2.6679  -15.7850  -56.1622 H         1 UNK         0.3800 
    243 H243       -3.6870  -17.1822  -55.8736 H         1 UNK         0.3800 
    244 H244       -2.3433  -20.7939  -55.3083 H         1 UNK         0.0800 
    245 H245       -2.7416  -19.2633  -54.5726 H         1 UNK         0.0800 
    246 H246       -1.7610  -20.6887  -52.7232 H         1 UNK         0.0800 
    247 H247       -0.4545  -21.7450  -53.1827 H         1 UNK         0.0800 
@<TRIPOS>BOND
     1    1    2 1    
     2    1  127 1    
     3    1  128 1    
     4    1  129 1    
     5    2    3 2    
     6    2    4 am   BACKBONE|DICT|INTERRES
     7    4    5 1    
     8    4  130 1    
     9    5    6 1    
    10    5   65 1    
    11    5  131 1    
    12    6    7 1    
    13    6  132 1    
    14    6  133 1    
    15    7    8 1    
    16    8    9 1    
    17    8  134 1    
    18    8  135 1    
    19    9   10 ar   
    20    9   14 ar   
    21   10   11 ar   
    22   10  136 1    
    23   11   12 ar   
    24   11  126 1    
    25   12   13 ar   
    26   12  137 1    
    27   13   14 ar   
    28   13   15 1    
    29   14  138 1    
    30   15   16 1    
    31   15  139 1    
    32   15  140 1    
    33   16   17 1    
    34   17   18 1    
    35   17  141 1    
    36   17  142 1    
    37   18   19 1    
    38   18   67 1    
    39   18  143 1    
    40   19   20 am   BACKBONE|DICT|INTERRES
    41   19  144 1    
    42   20   21 2    
    43   20   22 1    
    44   22   23 1    
    45   22   24 1    
    46   22  145 1    
    47   23  146 1    
    48   23  147 1    
    49   23  148 1    
    50   24   25 am   BACKBONE|DICT|INTERRES
    51   24  149 1    
    52   25   26 2    
    53   25   27 1    
    54   27   28 1    
    55   27   29 1    
    56   27  150 1    
    57   28  151 1    
    58   28  152 1    
    59   28  153 1    
    60   29   30 am   BACKBONE|DICT|INTERRES
    61   29  154 1    
    62   30   31 2    
    63   30   32 1    
    64   32   33 1    
    65   32   34 1    
    66   32  155 1    
    67   33  156 1    
    68   33  157 1    
    69   33  158 1    
    70   34   35 am   BACKBONE|DICT|INTERRES
    71   34  159 1    
    72   35   36 2    
    73   35   37 1    
    74   37   38 1    
    75   37   39 1    
    76   37  160 1    
    77   38  161 1    
    78   38  162 1    
    79   38  163 1    
    80   39   40 am   BACKBONE|DICT|INTERRES
    81   39  164 1    
    82   40   41 2    
    83   40   42 1    
    84   42   43 1    
    85   42   44 1    
    86   42  165 1    
    87   43  166 1    
    88   43  167 1    
    89   43  168 1    
    90   44   45 am   BACKBONE|DICT|INTERRES
    91   44  169 1    
    92   45   46 2    
    93   45   47 1    
    94   47   48 1    
    95   47   49 1    
    96   47  170 1    
    97   48  171 1    
    98   48  172 1    
    99   48  173 1    
   100   49   50 am   BACKBONE|DICT|INTERRES
   101   49  174 1    
   102   50   51 2    
   103   50   52 1    
   104   52   53 1    
   105   52   54 1    
   106   52  175 1    
   107   53  176 1    
   108   53  177 1    
   109   53  178 1    
   110   54   55 am   BACKBONE|DICT|INTERRES
   111   54  179 1    
   112   55   56 2    
   113   55   57 1    
   114   57   58 1    
   115   57   59 1    
   116   57  180 1    
   117   58  181 1    
   118   58  182 1    
   119   58  183 1    
   120   59   60 am   BACKBONE|DICT|INTERRES
   121   59  184 1    
   122   60   61 2    
   123   60   62 1    
   124   62   63 1    
   125   62   64 1    
   126   62  185 1    
   127   63  186 1    
   128   63  187 1    
   129   63  188 1    
   130   64   65 am   BACKBONE|DICT|INTERRES
   131   64  189 1    
   132   65   66 2    
   133   67   68 2    
   134   67   69 am   BACKBONE|DICT|INTERRES
   135   69   70 1    
   136   69  190 1    
   137   70   71 1    
   138   70   72 1    
   139   70  191 1    
   140   71  192 1    
   141   71  193 1    
   142   71  194 1    
   143   72   73 2    
   144   72   74 am   BACKBONE|DICT|INTERRES
   145   74   75 1    
   146   74  195 1    
   147   75   76 1    
   148   75   77 1    
   149   75  196 1    
   150   76  197 1    
   151   76  198 1    
   152   76  199 1    
   153   77   78 2    
   154   77   79 am   BACKBONE|DICT|INTERRES
   155   79   80 1    
   156   79  200 1    
   157   80   81 1    
   158   80   82 1    
   159   80  201 1    
   160   81  202 1    
   161   81  203 1    
   162   81  204 1    
   163   82   83 2    
   164   82   84 am   BACKBONE|DICT|INTERRES
   165   84   85 1    
   166   84  205 1    
   167   85   86 1    
   168   85   87 1    
   169   85  206 1    
   170   86  207 1    
   171   86  208 1    
   172   86  209 1    
   173   87   88 2    
   174   87   89 am   BACKBONE|DICT|INTERRES
   175   89   90 1    
   176   89  210 1    
   177   90   91 1    
   178   90   92 1    
   179   90  211 1    
   180   91  212 1    
   181   91  213 1    
   182   91  214 1    
   183   92   93 2    
   184   92   94 am   BACKBONE|DICT|INTERRES
   185   94   95 1    
   186   94  215 1    
   187   95   96 1    
   188   95   97 1    
   189   95  216 1    
   190   96  217 1    
   191   96  218 1    
   192   96  219 1    
   193   97   98 2    
   194   97   99 am   BACKBONE|DICT|INTERRES
   195   99  100 1    
   196   99  220 1    
   197  100  101 1    
   198  100  102 1    
   199  100  221 1    
   200  101  222 1    
   201  101  223 1    
   202  101  224 1    
   203  102  103 2    
   204  102  104 am   BACKBONE|DICT|INTERRES
   205  104  105 1    
   206  104  225 1    
   207  105  106 1    
   208  105  107 1    
   209  105  226 1    
   210  106  227 1    
   211  106  228 1    
   212  106  229 1    
   213  107  108 2    
   214  107  109 am   BACKBONE|DICT|INTERRES
   215  109  110 1    
   216  109  230 1    
   217  110  111 1    
   218  110  112 1    
   219  110  231 1    
   220  111  232 1    
   221  111  233 1    
   222  111  234 1    
   223  112  113 2    
   224  112  114 am   BACKBONE|DICT|INTERRES
   225  114  115 1    
   226  114  235 1    
   227  115  116 1    
   228  115  117 1    
   229  115  236 1    
   230  116  237 1    
   231  116  238 1    
   232  116  239 1    
   233  117  118 2    
   234  117  119 am   BACKBONE|DICT|INTERRES
   235  119  120 1    
   236  119  240 1    
   237  120  121 1    
   238  120  124 1    
   239  120  241 1    
   240  121  122 am   BACKBONE|DICT|INTERRES
   241  121  123 2    
   242  122  242 1    
   243  122  243 1    
   244  124  125 1    
   245  124  244 1    
   246  124  245 1    
   247  125  126 1    
   248  126  246 1    
   249  126  247 1    
@<TRIPOS>SUBSTRUCTURE
     1 UNK         1 GROUP             0       ****    0 ROOT    
