@<TRIPOS>MOLECULE
3R540
247   249    1
SMALL
USER_CHARGES


@<TRIPOS>ATOM
      1 CA         -0.2097  -12.1363  -45.6637 C.3       0 UNK        -0.1800 
      2 C           0.8749  -13.1648  -45.9496 C.2       0 UNK         0.5000 
      3 O           1.0404  -14.1058  -45.1753 O.2       0 UNK        -0.5000 
      4 N           1.6090  -12.9780  -47.0561 N.am      1 UNK        -0.5000 
      5 CA          2.7094  -13.8229  -47.5578 C.3       1 UNK         0.1400 
      6 C6          2.3121  -15.3039  -47.8111 C.3       23 UNK        -0.0398 
      7 S7          0.8873  -15.4910  -48.9382 S.3       23 UNK        -0.2404 
      8 C8          1.6664  -16.1104  -50.4617 C.3       23 UNK        -0.0205 
      9 C9          0.7718  -17.1352  -51.1384 C.ar      23 UNK        -0.0193 
     10 C10        -0.0824  -16.7615  -52.1795 C.ar      23 UNK        -0.1150 
     11 C11        -0.9092  -17.7093  -52.7894 C.ar      23 UNK        -0.0193 
     12 C12        -0.8738  -19.0322  -52.3459 C.ar      23 UNK        -0.1150 
     13 C13        -0.0121  -19.4317  -51.3211 C.ar      23 UNK        -0.0193 
     14 C14         0.8075  -18.4679  -50.7190 C.ar      23 UNK        -0.1150 
     15 C15         0.0012  -20.9122  -50.9330 C.3       23 UNK        -0.0205 
     16 S16         1.1933  -21.4075  -49.6445 S.3       23 UNK        -0.2404 
     17 C17         0.3682  -20.7998  -48.1371 C.3       23 UNK        -0.0398 
     18 CA         -0.2444  -21.9484  -47.2989 C.3       11 UNK         0.1400 
     19 N          -0.1940  -21.6560  -45.8601 N.am      11 UNK        -0.5000 
     20 C          -0.4801  -22.5332  -44.8870 C.2       10 UNK         0.5000 
     21 O          -0.8620  -23.6833  -45.0980 O.2       10 UNK        -0.5000 
     22 CA         -0.3674  -22.0330  -43.4376 C.3       10 UNK         0.1400 
     23 CB          1.1020  -21.9074  -43.0084 C.3       10 UNK        -0.1800 
     24 N          -1.0564  -20.7586  -43.2486 N.am      10 UNK        -0.5000 
     25 C          -2.3868  -20.6068  -43.3144 C.2       9 UNK         0.5000 
     26 O          -3.1743  -21.5439  -43.4462 O.2       9 UNK        -0.5000 
     27 CA         -2.9292  -19.1659  -43.2631 C.3       9 UNK         0.1400 
     28 CB         -3.0873  -18.6946  -41.8106 C.3       9 UNK        -0.1800 
     29 N          -2.0993  -18.2117  -44.0015 N.am      9 UNK        -0.5000 
     30 C          -1.8645  -18.2674  -45.3205 C.2       8 UNK         0.5000 
     31 O          -2.3326  -19.1265  -46.0657 O.2       8 UNK        -0.5000 
     32 CA         -0.9075  -17.2131  -45.8990 C.3       8 UNK         0.1400 
     33 CB         -1.6455  -15.8823  -46.1099 C.3       8 UNK        -0.1800 
     34 N           0.2777  -17.0145  -45.0616 N.am      8 UNK        -0.5000 
     35 C           1.1810  -17.9698  -44.7964 C.2       7 UNK         0.5000 
     36 O           1.1383  -19.1016  -45.2795 O.2       7 UNK        -0.5000 
     37 CA          2.2784  -17.6306  -43.7723 C.3       7 UNK         0.1400 
     38 CB          3.3656  -16.7321  -44.3760 C.3       7 UNK        -0.1800 
     39 N           1.7333  -17.0103  -42.5649 N.am      7 UNK        -0.5000 
     40 C           0.9501  -17.6512  -41.6842 C.2       6 UNK         0.5000 
     41 O           0.6477  -18.8399  -41.7802 O.2       6 UNK        -0.5000 
     42 CA          0.3766  -16.8240  -40.5175 C.3       6 UNK         0.1400 
     43 CB          1.3323  -16.8557  -39.3157 C.3       6 UNK        -0.1800 
     44 N           0.0957  -15.4316  -40.8659 N.am      6 UNK        -0.5000 
     45 C          -0.7227  -15.0182  -41.8430 C.2       5 UNK         0.5000 
     46 O          -1.3799  -15.7885  -42.5440 O.2       5 UNK        -0.5000 
     47 CA         -0.8272  -13.4985  -42.0884 C.3       5 UNK         0.1400 
     48 CB         -2.2709  -13.0123  -41.8863 C.3       5 UNK        -0.1800 
     49 N           0.0686  -12.6703  -41.2705 N.am      5 UNK        -0.5000 
     50 C           1.4019  -12.6175  -41.3832 C.2       4 UNK         0.5000 
     51 O           2.0575  -13.3288  -42.1483 O.2       4 UNK        -0.5000 
     52 CA          2.1240  -11.6396  -40.4463 C.3       4 UNK         0.1400 
     53 CB          2.3658  -12.2788  -39.0691 C.3       4 UNK        -0.1800 
     54 N           3.4052  -11.2958  -41.0482 N.am      4 UNK        -0.5000 
     55 C           3.9364  -10.0712  -41.1273 C.2       3 UNK         0.5000 
     56 O           3.4522   -9.0803  -40.5785 O.2       3 UNK        -0.5000 
     57 CA          5.2235   -9.9175  -41.9682 C.3       3 UNK         0.1400 
     58 CB          6.4476   -9.7620  -41.0522 C.3       3 UNK        -0.1800 
     59 N           5.4678  -11.0271  -42.8976 N.am      3 UNK        -0.5000 
     60 C           4.7096  -11.3206  -43.9625 C.2       2 UNK         0.5000 
     61 O           3.7328  -10.6479  -44.3072 O.2       2 UNK        -0.5000 
     62 CA          5.0926  -12.5814  -44.7586 C.3       2 UNK         0.1400 
     63 CB          5.3533  -13.7954  -43.8403 C.3       2 UNK        -0.1800 
     64 N           4.0056  -12.8656  -45.6873 N.am      2 UNK        -0.5000 
     65 C           4.0055  -13.7198  -46.7149 C.2       1 UNK         0.5000 
     66 O           4.9877  -14.3930  -47.0307 O.2       1 UNK        -0.5000 
     67 C          -1.6606  -22.3279  -47.7904 C.2       11 UNK         0.5000 
     68 O          -1.7999  -23.1858  -48.6670 O.2       11 UNK        -0.5000 
     69 N          -2.6910  -21.7272  -47.1782 N.am      12 UNK        -0.5000 
     70 CA         -4.1047  -22.0406  -47.3888 C.3       12 UNK         0.1400 
     71 CB         -4.9772  -21.0578  -46.5952 C.3       12 UNK        -0.1800 
     72 C          -4.4788  -23.4967  -47.0513 C.2       12 UNK         0.5000 
     73 O          -5.4093  -24.0281  -47.6562 O.2       12 UNK        -0.5000 
     74 N          -3.7414  -24.1189  -46.1230 N.am      13 UNK        -0.5000 
     75 CA         -3.8806  -25.5271  -45.7666 C.3       13 UNK         0.1400 
     76 CB         -3.7081  -25.6847  -44.2470 C.3       13 UNK        -0.1800 
     77 C          -2.8608  -26.3902  -46.5276 C.2       13 UNK         0.5000 
     78 O          -3.2479  -27.3787  -47.1504 O.2       13 UNK        -0.5000 
     79 N          -1.5782  -26.0071  -46.4590 N.am      14 UNK        -0.5000 
     80 CA         -0.4367  -26.7962  -46.9263 C.3       14 UNK         0.1400 
     81 CB          0.8622  -26.1603  -46.4072 C.3       14 UNK        -0.1800 
     82 C          -0.3697  -26.9781  -48.4518 C.2       14 UNK         0.5000 
     83 O          -0.0036  -28.0605  -48.9116 O.2       14 UNK        -0.5000 
     84 N          -0.7202  -25.9273  -49.2024 N.am      15 UNK        -0.5000 
     85 CA         -0.7140  -25.9129  -50.6676 C.3       15 UNK         0.1400 
     86 CB          0.1789  -24.7536  -51.1392 C.3       15 UNK        -0.1800 
     87 C          -2.1349  -25.7699  -51.2396 C.2       15 UNK         0.5000 
     88 O          -2.2806  -25.5568  -52.4449 O.2       15 UNK        -0.5000 
     89 N          -3.1554  -25.8273  -50.3695 N.am      16 UNK        -0.5000 
     90 CA         -4.5728  -25.5872  -50.6615 C.3       16 UNK         0.1400 
     91 CB         -5.1477  -26.7293  -51.5254 C.3       16 UNK        -0.1800 
     92 C          -4.8149  -24.1913  -51.2766 C.2       16 UNK         0.5000 
     93 O          -5.6135  -24.0597  -52.2036 O.2       16 UNK        -0.5000 
     94 N          -4.0688  -23.1856  -50.7904 N.am      17 UNK        -0.5000 
     95 CA         -4.0235  -21.8065  -51.2938 C.3       17 UNK         0.1400 
     96 CB         -5.3865  -21.1034  -51.1272 C.3       17 UNK        -0.1800 
     97 C          -3.4781  -21.7277  -52.7358 C.2       17 UNK         0.5000 
     98 O          -3.9665  -20.9296  -53.5375 O.2       17 UNK        -0.5000 
     99 N          -2.4758  -22.5735  -53.0244 N.am      18 UNK        -0.5000 
    100 CA        -1.8633  -22.8315  -54.3323 C.3       18 UNK         0.1400 
    101 CB        -1.0811  -21.6078  -54.8513 C.3       18 UNK        -0.1800 
    102 C         -2.9006  -23.3681  -55.3348 C.2       18 UNK         0.5000 
    103 O         -3.0918  -22.7890  -56.4042 O.2       18 UNK        -0.5000 
    104 N         -3.5815  -24.4512  -54.9320 N.am      19 UNK        -0.5000 
    105 CA        -4.6888  -25.1048  -55.6397 C.3       19 UNK         0.1400 
    106 CB        -4.1783  -25.8151  -56.9105 C.3       19 UNK        -0.1800 
    107 C         -5.8605  -24.1357  -55.9118 C.2       19 UNK         0.5000 
    108 O         -6.3293  -24.0177  -57.0453 O.2       19 UNK        -0.5000 
    109 N         -6.2867  -23.4455  -54.8462 N.am      20 UNK        -0.5000 
    110 CA        -7.3736  -22.4673  -54.7680 C.3       20 UNK         0.1400 
    111 CB        -8.7243  -23.1069  -55.1516 C.3       20 UNK        -0.1800 
    112 C         -7.1222  -21.1381  -55.5112 C.2       20 UNK         0.5000 
    113 O         -8.0503  -20.3332  -55.6063 O.2       20 UNK        -0.5000 
    114 N         -5.8906  -20.8820  -55.9783 N.am      21 UNK        -0.5000 
    115 CA        -5.5008  -19.6393  -56.6572 C.3       21 UNK         0.1400 
    116 CB        -4.0686  -19.7666  -57.1929 C.3       21 UNK        -0.1800 
    117 C         -5.6358  -18.3868  -55.7685 C.2       21 UNK         0.5000 
    118 O         -6.0502  -17.3366  -56.2611 O.2       21 UNK        -0.5000 
    119 N         -5.3284  -18.5404  -54.4761 N.am      22 UNK        -0.5000 
    120 CA        -5.5768  -17.5511  -53.4151 C.3       22 UNK         0.1400 
    121 C         -6.8178  -17.9107  -52.5421 C.2       22 UNK         0.5000 
    122 N         -7.7149  -18.7862  -52.9816 N.am      22 UNK        -0.7600 
    123 O         -6.9914  -17.3738  -51.4517 O.2       22 UNK        -0.5000 
    124 C124       -4.2946  -17.2914  -52.5767 C.3       23 UNK        -0.0398 
    125 S125       -3.1393  -16.1851  -53.4556 S.3       23 UNK        -0.2404 
    126 C126       -1.8093  -17.3196  -53.9541 C.3       23 UNK        -0.0205 
    127 H127       -0.3210  -11.4254  -46.4826 H         1 UNK         0.0600 
    128 H128        0.0338  -11.5789  -44.7591 H         1 UNK         0.0600 
    129 H129       -1.1680  -12.6338  -45.5144 H         1 UNK         0.0600 
    130 H130        1.4046  -12.1757  -47.6353 H         1 UNK         0.3000 
    131 H131        2.9741  -13.3974  -48.5268 H         1 UNK         0.0600 
    132 H132        3.1588  -15.8660  -48.2058 H         1 UNK         0.0800 
    133 H133        2.0558  -15.7945  -46.8738 H         1 UNK         0.0800 
    134 H134        1.8672  -15.2714  -51.1295 H         1 UNK         0.0800 
    135 H135        2.6321  -16.5706  -50.2500 H         1 UNK         0.0800 
    136 H136       -0.1070  -15.7341  -52.5152 H         1 UNK         0.1150 
    137 H137       -1.5102  -19.7610  -52.8202 H         1 UNK         0.1150 
    138 H138        1.4828  -18.7370  -49.9209 H         1 UNK         0.1150 
    139 H139       -0.9969  -21.2117  -50.6181 H         1 UNK         0.0800 
    140 H140        0.2290  -21.4952  -51.8257 H         1 UNK         0.0800 
    141 H141       -0.3666  -20.0266  -48.3708 H         1 UNK         0.0800 
    142 H142        1.1484  -20.2954  -47.5674 H         1 UNK         0.0800 
    143 H143        0.3765  -22.8362  -47.4351 H         1 UNK         0.0600 
    144 H144        0.1254  -20.7268  -45.5985 H         1 UNK         0.3000 
    145 H145       -0.8425  -22.7749  -42.7922 H         1 UNK         0.0600 
    146 H146        1.1809  -21.6380  -41.9551 H         1 UNK         0.0600 
    147 H147        1.6302  -22.8521  -43.1430 H         1 UNK         0.0600 
    148 H148        1.6315  -21.1493  -43.5855 H         1 UNK         0.0600 
    149 H149       -0.4746  -19.9462  -43.0726 H         1 UNK         0.3000 
    150 H150       -3.9168  -19.1683  -43.7288 H         1 UNK         0.0600 
    151 H151       -3.4968  -17.6854  -41.7634 H         1 UNK         0.0600 
    152 H152       -3.7652  -19.3486  -41.2609 H         1 UNK         0.0600 
    153 H153       -2.1336  -18.6954  -41.2840 H         1 UNK         0.0600 
    154 H154       -1.7020  -17.4404  -43.4710 H         1 UNK         0.3000 
    155 H155       -0.5712  -17.5720  -46.8741 H         1 UNK         0.0600 
    156 H156       -1.8992  -15.4024  -45.1646 H         1 UNK         0.0600 
    157 H157       -2.5734  -16.0323  -46.6632 H         1 UNK         0.0600 
    158 H158       -1.0419  -15.1865  -46.6886 H         1 UNK         0.0600 
    159 H159        0.4020  -16.0908  -44.6626 H         1 UNK         0.3000 
    160 H160        2.7519  -18.5714  -43.4831 H         1 UNK         0.0600 
    161 H161        2.9983  -15.7245  -44.5660 H         1 UNK         0.0600 
    162 H162        3.7339  -17.1352  -45.3202 H         1 UNK         0.0600 
    163 H163        4.2189  -16.6524  -43.7028 H         1 UNK         0.0600 
    164 H164        1.9059  -16.0224  -42.4356 H         1 UNK         0.3000 
    165 H165       -0.5658  -17.2837  -40.2161 H         1 UNK         0.0600 
    166 H166        0.8987  -16.3504  -38.4525 H         1 UNK         0.0600 
    167 H167        1.5480  -17.8820  -39.0154 H         1 UNK         0.0600 
    168 H168        2.2834  -16.3734  -39.5451 H         1 UNK         0.0600 
    169 H169        0.5990  -14.7267  -40.3496 H         1 UNK         0.3000 
    170 H170       -0.5632  -13.3407  -43.1334 H         1 UNK         0.0600 
    171 H171       -2.9655  -13.5681  -42.5178 H         1 UNK         0.0600 
    172 H172       -2.5954  -13.1368  -40.8525 H         1 UNK         0.0600 
    173 H173       -2.3729  -11.9589  -42.1479 H         1 UNK         0.0600 
    174 H174       -0.3834  -12.0735  -40.5924 H         1 UNK         0.3000 
    175 H175        1.5043  -10.7473  -40.3340 H         1 UNK         0.0600 
    176 H176        2.9632  -13.1883  -39.1465 H         1 UNK         0.0600 
    177 H177        2.8893  -11.5914  -38.4043 H         1 UNK         0.0600 
    178 H178        1.4240  -12.5425  -38.5864 H         1 UNK         0.0600 
    179 H179        3.8222  -12.0415  -41.5891 H         1 UNK         0.3000 
    180 H180        5.1182   -9.0031  -42.5558 H         1 UNK         0.0600 
    181 H181        6.6139  -10.6552  -40.4487 H         1 UNK         0.0600 
    182 H182        6.3202   -8.9225  -40.3673 H         1 UNK         0.0600 
    183 H183        7.3524   -9.5722  -41.6301 H         1 UNK         0.0600 
    184 H184        6.2533  -11.6235  -42.6810 H         1 UNK         0.3000 
    185 H185        5.9939  -12.3550  -45.3311 H         1 UNK         0.0600 
    186 H186        6.1854  -13.6161  -43.1594 H         1 UNK         0.0600 
    187 H187        4.4769  -14.0353  -43.2374 H         1 UNK         0.0600 
    188 H188        5.6130  -14.6825  -44.4170 H         1 UNK         0.0600 
    189 H189        3.1749  -12.3126  -45.5146 H         1 UNK         0.3000 
    190 H190       -2.4930  -20.9704  -46.5283 H         1 UNK         0.3000 
    191 H191       -4.3164  -21.8861  -48.4439 H         1 UNK         0.0600 
    192 H192       -4.7926  -20.0287  -46.9034 H         1 UNK         0.0600 
    193 H193       -6.0373  -21.2578  -46.7565 H         1 UNK         0.0600 
    194 H194       -4.7896  -21.1269  -45.5241 H         1 UNK         0.0600 
    195 H195       -2.9762  -23.6162  -45.6908 H         1 UNK         0.3000 
    196 H196       -4.8802  -25.8843  -46.0233 H         1 UNK         0.0600 
    197 H197       -3.8009  -26.7301  -43.9498 H         1 UNK         0.0600 
    198 H198       -4.4711  -25.1240  -43.7069 H         1 UNK         0.0600 
    199 H199       -2.7343  -25.3311  -43.9065 H         1 UNK         0.0600 
    200 H200       -1.3479  -25.1650  -45.9333 H         1 UNK         0.3000 
    201 H201       -0.5232  -27.7906  -46.4833 H         1 UNK         0.0600 
    202 H202        0.8653  -26.1023  -45.3186 H         1 UNK         0.0600 
    203 H203        0.9990  -25.1507  -46.7956 H         1 UNK         0.0600 
    204 H204        1.7322  -26.7475  -46.7040 H         1 UNK         0.0600 
    205 H205       -1.0199  -25.0684  -48.7520 H         1 UNK         0.3000 
    206 H206       -0.3044  -26.8420  -51.0681 H         1 UNK         0.0600 
    207 H207        1.1818  -24.8303  -50.7191 H         1 UNK         0.0600 
    208 H208        0.2824  -24.7482  -52.2249 H         1 UNK         0.0600 
    209 H209       -0.2344  -23.7909  -50.8424 H         1 UNK         0.0600 
    210 H210       -2.9322  -26.0252  -49.4042 H         1 UNK         0.3000 
    211 H211       -5.0974  -25.6039  -49.7067 H         1 UNK         0.0600 
    212 H212       -4.7055  -26.7494  -52.5217 H         1 UNK         0.0600 
    213 H213       -6.2259  -26.6213  -51.6489 H         1 UNK         0.0600 
    214 H214       -4.9714  -27.6997  -51.0614 H         1 UNK         0.0600 
    215 H215       -3.4088  -23.4022  -50.0513 H         1 UNK         0.3000 
    216 H216       -3.3096  -21.2752  -50.6647 H         1 UNK         0.0600 
    217 H217       -5.2825  -20.0301  -51.2784 H         1 UNK         0.0600 
    218 H218       -5.7981  -21.2484  -50.1292 H         1 UNK         0.0600 
    219 H219       -6.1235  -21.4635  -51.8442 H         1 UNK         0.0600 
    220 H220       -2.2139  -23.2336  -52.3065 H         1 UNK         0.3000 
    221 H221       -1.1410  -23.6357  -54.1850 H         1 UNK         0.0600 
    222 H222       -1.7196  -20.7350  -54.9767 H         1 UNK         0.0600 
    223 H223       -0.2721  -21.3405  -54.1732 H         1 UNK         0.0600 
    224 H224       -0.6262  -21.8186  -55.8197 H         1 UNK         0.0600 
    225 H225       -3.3320  -24.8521  -54.0326 H         1 UNK         0.3000 
    226 H226       -5.0750  -25.8715  -54.9664 H         1 UNK         0.0600 
    227 H227       -3.3744  -26.5125  -56.6752 H         1 UNK         0.0600 
    228 H228       -4.9765  -26.3881  -57.3837 H         1 UNK         0.0600 
    229 H229       -3.8023  -25.1069  -57.6494 H         1 UNK         0.0600 
    230 H230       -5.8474  -23.6445  -53.9481 H         1 UNK         0.3000 
    231 H231       -7.4381  -22.1989  -53.7132 H         1 UNK         0.0600 
    232 H232       -8.7775  -23.3371  -56.2159 H         1 UNK         0.0600 
    233 H233       -9.5543  -22.4375  -54.9230 H         1 UNK         0.0600 
    234 H234       -8.8946  -24.0303  -54.5981 H         1 UNK         0.0600 
    235 H235       -5.1612  -21.5680  -55.8324 H         1 UNK         0.3000 
    236 H236       -6.1692  -19.5092  -57.5107 H         1 UNK         0.0600 
    237 H237       -3.9802  -20.6000  -57.8899 H         1 UNK         0.0600 
    238 H238       -3.7669  -18.8634  -57.7245 H         1 UNK         0.0600 
    239 H239       -3.3553  -19.9262  -56.3852 H         1 UNK         0.0600 
    240 H240       -4.9718  -19.4427  -54.1686 H         1 UNK         0.3000 
    241 H241       -5.8607  -16.6004  -53.8695 H         1 UNK         0.0600 
    242 H242       -7.6496  -19.1849  -53.9093 H         1 UNK         0.3800 
    243 H243       -8.5161  -18.9925  -52.4067 H         1 UNK         0.3800 
    244 H244       -4.5257  -16.7952  -51.6331 H         1 UNK         0.0800 
    245 H245       -3.8044  -18.2285  -52.3097 H         1 UNK         0.0800 
    246 H246       -1.2024  -16.8323  -54.7182 H         1 UNK         0.0800 
    247 H247       -2.2469  -18.1998  -54.4284 H         1 UNK         0.0800 
@<TRIPOS>BOND
     1    1    2 1    
     2    1  127 1    
     3    1  128 1    
     4    1  129 1    
     5    2    3 2    
     6    2    4 am   BACKBONE|DICT|INTERRES
     7    4    5 1    
     8    4  130 1    
     9    5    6 1    
    10    5   65 1    
    11    5  131 1    
    12    6    7 1    
    13    6  132 1    
    14    6  133 1    
    15    7    8 1    
    16    8    9 1    
    17    8  134 1    
    18    8  135 1    
    19    9   10 ar   
    20    9   14 ar   
    21   10   11 ar   
    22   10  136 1    
    23   11   12 ar   
    24   11  126 1    
    25   12   13 ar   
    26   12  137 1    
    27   13   14 ar   
    28   13   15 1    
    29   14  138 1    
    30   15   16 1    
    31   15  139 1    
    32   15  140 1    
    33   16   17 1    
    34   17   18 1    
    35   17  141 1    
    36   17  142 1    
    37   18   19 1    
    38   18   67 1    
    39   18  143 1    
    40   19   20 am   BACKBONE|DICT|INTERRES
    41   19  144 1    
    42   20   21 2    
    43   20   22 1    
    44   22   23 1    
    45   22   24 1    
    46   22  145 1    
    47   23  146 1    
    48   23  147 1    
    49   23  148 1    
    50   24   25 am   BACKBONE|DICT|INTERRES
    51   24  149 1    
    52   25   26 2    
    53   25   27 1    
    54   27   28 1    
    55   27   29 1    
    56   27  150 1    
    57   28  151 1    
    58   28  152 1    
    59   28  153 1    
    60   29   30 am   BACKBONE|DICT|INTERRES
    61   29  154 1    
    62   30   31 2    
    63   30   32 1    
    64   32   33 1    
    65   32   34 1    
    66   32  155 1    
    67   33  156 1    
    68   33  157 1    
    69   33  158 1    
    70   34   35 am   BACKBONE|DICT|INTERRES
    71   34  159 1    
    72   35   36 2    
    73   35   37 1    
    74   37   38 1    
    75   37   39 1    
    76   37  160 1    
    77   38  161 1    
    78   38  162 1    
    79   38  163 1    
    80   39   40 am   BACKBONE|DICT|INTERRES
    81   39  164 1    
    82   40   41 2    
    83   40   42 1    
    84   42   43 1    
    85   42   44 1    
    86   42  165 1    
    87   43  166 1    
    88   43  167 1    
    89   43  168 1    
    90   44   45 am   BACKBONE|DICT|INTERRES
    91   44  169 1    
    92   45   46 2    
    93   45   47 1    
    94   47   48 1    
    95   47   49 1    
    96   47  170 1    
    97   48  171 1    
    98   48  172 1    
    99   48  173 1    
   100   49   50 am   BACKBONE|DICT|INTERRES
   101   49  174 1    
   102   50   51 2    
   103   50   52 1    
   104   52   53 1    
   105   52   54 1    
   106   52  175 1    
   107   53  176 1    
   108   53  177 1    
   109   53  178 1    
   110   54   55 am   BACKBONE|DICT|INTERRES
   111   54  179 1    
   112   55   56 2    
   113   55   57 1    
   114   57   58 1    
   115   57   59 1    
   116   57  180 1    
   117   58  181 1    
   118   58  182 1    
   119   58  183 1    
   120   59   60 am   BACKBONE|DICT|INTERRES
   121   59  184 1    
   122   60   61 2    
   123   60   62 1    
   124   62   63 1    
   125   62   64 1    
   126   62  185 1    
   127   63  186 1    
   128   63  187 1    
   129   63  188 1    
   130   64   65 am   BACKBONE|DICT|INTERRES
   131   64  189 1    
   132   65   66 2    
   133   67   68 2    
   134   67   69 am   BACKBONE|DICT|INTERRES
   135   69   70 1    
   136   69  190 1    
   137   70   71 1    
   138   70   72 1    
   139   70  191 1    
   140   71  192 1    
   141   71  193 1    
   142   71  194 1    
   143   72   73 2    
   144   72   74 am   BACKBONE|DICT|INTERRES
   145   74   75 1    
   146   74  195 1    
   147   75   76 1    
   148   75   77 1    
   149   75  196 1    
   150   76  197 1    
   151   76  198 1    
   152   76  199 1    
   153   77   78 2    
   154   77   79 am   BACKBONE|DICT|INTERRES
   155   79   80 1    
   156   79  200 1    
   157   80   81 1    
   158   80   82 1    
   159   80  201 1    
   160   81  202 1    
   161   81  203 1    
   162   81  204 1    
   163   82   83 2    
   164   82   84 am   BACKBONE|DICT|INTERRES
   165   84   85 1    
   166   84  205 1    
   167   85   86 1    
   168   85   87 1    
   169   85  206 1    
   170   86  207 1    
   171   86  208 1    
   172   86  209 1    
   173   87   88 2    
   174   87   89 am   BACKBONE|DICT|INTERRES
   175   89   90 1    
   176   89  210 1    
   177   90   91 1    
   178   90   92 1    
   179   90  211 1    
   180   91  212 1    
   181   91  213 1    
   182   91  214 1    
   183   92   93 2    
   184   92   94 am   BACKBONE|DICT|INTERRES
   185   94   95 1    
   186   94  215 1    
   187   95   96 1    
   188   95   97 1    
   189   95  216 1    
   190   96  217 1    
   191   96  218 1    
   192   96  219 1    
   193   97   98 2    
   194   97   99 am   BACKBONE|DICT|INTERRES
   195   99  100 1    
   196   99  220 1    
   197  100  101 1    
   198  100  102 1    
   199  100  221 1    
   200  101  222 1    
   201  101  223 1    
   202  101  224 1    
   203  102  103 2    
   204  102  104 am   BACKBONE|DICT|INTERRES
   205  104  105 1    
   206  104  225 1    
   207  105  106 1    
   208  105  107 1    
   209  105  226 1    
   210  106  227 1    
   211  106  228 1    
   212  106  229 1    
   213  107  108 2    
   214  107  109 am   BACKBONE|DICT|INTERRES
   215  109  110 1    
   216  109  230 1    
   217  110  111 1    
   218  110  112 1    
   219  110  231 1    
   220  111  232 1    
   221  111  233 1    
   222  111  234 1    
   223  112  113 2    
   224  112  114 am   BACKBONE|DICT|INTERRES
   225  114  115 1    
   226  114  235 1    
   227  115  116 1    
   228  115  117 1    
   229  115  236 1    
   230  116  237 1    
   231  116  238 1    
   232  116  239 1    
   233  117  118 2    
   234  117  119 am   BACKBONE|DICT|INTERRES
   235  119  120 1    
   236  119  240 1    
   237  120  121 1    
   238  120  124 1    
   239  120  241 1    
   240  121  122 am   BACKBONE|DICT|INTERRES
   241  121  123 2    
   242  122  242 1    
   243  122  243 1    
   244  124  125 1    
   245  124  244 1    
   246  124  245 1    
   247  125  126 1    
   248  126  246 1    
   249  126  247 1    
@<TRIPOS>SUBSTRUCTURE
     1 UNK         1 GROUP             0       ****    0 ROOT    
