@<TRIPOS>MOLECULE
3R540
247   249    1
SMALL
USER_CHARGES


@<TRIPOS>ATOM
      1 CA         -4.9144  -14.6094  -50.4084 C.3       0 UNK        -0.1800 
      2 C          -3.8722  -14.1371  -49.4052 C.2       0 UNK         0.5000 
      3 O          -4.1603  -13.2764  -48.5745 O.2       0 UNK        -0.5000 
      4 N          -2.6642  -14.7108  -49.4676 N.am      1 UNK        -0.5000 
      5 CA         -1.5290  -14.4047  -48.5853 C.3       1 UNK         0.1400 
      6 C6         -0.1809  -14.8565  -49.1989 C.3       23 UNK        -0.0398 
      7 S7         -0.0989  -16.6372  -49.5948 S.3       23 UNK        -0.2404 
      8 C8          1.6106  -16.7351  -50.2071 C.3       23 UNK        -0.0205 
      9 C9          1.9096  -18.1153  -50.7654 C.ar      23 UNK        -0.0193 
     10 C10         1.6280  -18.4159  -52.1000 C.ar      23 UNK        -0.1150 
     11 C11         1.8861  -19.6906  -52.6102 C.ar      23 UNK        -0.0193 
     12 C12         2.4284  -20.6695  -51.7706 C.ar      23 UNK        -0.1150 
     13 C13         2.7103  -20.3863  -50.4284 C.ar      23 UNK        -0.0193 
     14 C14         2.4636  -19.0961  -49.9417 C.ar      23 UNK        -0.1150 
     15 C15         3.2774  -21.4934  -49.5359 C.3       23 UNK        -0.0205 
     16 S16         2.9227  -21.3140  -47.7488 S.3       23 UNK        -0.2404 
     17 C17         1.0977  -21.3355  -47.7366 C.3       23 UNK        -0.0398 
     18 CA          0.5217  -22.5589  -46.9939 C.3       11 UNK         0.1400 
     19 N           0.9292  -22.6033  -45.5887 N.am      11 UNK        -0.5000 
     20 C           0.7893  -23.6653  -44.7855 C.2       10 UNK         0.5000 
     21 O           0.3307  -24.7462  -45.1531 O.2       10 UNK        -0.5000 
     22 CA          1.1834  -23.4612  -43.3117 C.3       10 UNK         0.1400 
     23 CB          2.7015  -23.6046  -43.1286 C.3       10 UNK        -0.1800 
     24 N           0.7536  -22.1564  -42.8058 N.am      10 UNK        -0.5000 
     25 C          -0.5287  -21.8003  -42.6376 C.2       9 UNK         0.5000 
     26 O          -1.4777  -22.5595  -42.8310 O.2       9 UNK        -0.5000 
     27 CA         -0.7991  -20.3359  -42.2418 C.3       9 UNK         0.1400 
     28 CB         -0.8040  -20.1841  -40.7150 C.3       9 UNK        -0.1800 
     29 N           0.1576  -19.3964  -42.8359 N.am      9 UNK        -0.5000 
     30 C           0.2918  -19.1976  -44.1556 C.2       8 UNK         0.5000 
     31 O          -0.4227  -19.7473  -44.9915 O.2       8 UNK        -0.5000 
     32 CA          1.4146  -18.2674  -44.6457 C.3       8 UNK         0.1400 
     33 CB          0.8270  -17.0279  -45.3313 C.3       8 UNK        -0.1800 
     34 N           2.3472  -17.8475  -43.5981 N.am      8 UNK        -0.5000 
     35 C           3.3120  -18.6273  -43.0920 C.2       7 UNK         0.5000 
     36 O           3.4247  -19.8223  -43.3668 O.2       7 UNK        -0.5000 
     37 CA          4.3064  -17.9806  -42.1161 C.3       7 UNK         0.1400 
     38 CB          5.4113  -17.2322  -42.8793 C.3       7 UNK        -0.1800 
     39 N           3.6515  -17.0676  -41.1783 N.am      7 UNK        -0.5000 
     40 C           3.9721  -16.9617  -39.8798 C.2       6 UNK         0.5000 
     41 O           4.8788  -17.6025  -39.3467 O.2       6 UNK        -0.5000 
     42 CA          3.1484  -15.9818  -39.0157 C.3       6 UNK         0.1400 
     43 CB          3.9044  -14.6559  -38.8423 C.3       6 UNK        -0.1800 
     44 N           1.8187  -15.6971  -39.5543 N.am      6 UNK        -0.5000 
     45 C           0.8403  -16.5976  -39.7099 C.2       5 UNK         0.5000 
     46 O           0.9142  -17.7540  -39.2970 O.2       5 UNK        -0.5000 
     47 CA         -0.4138  -16.1558  -40.4908 C.3       5 UNK         0.1400 
     48 CB         -1.6236  -16.0369  -39.5524 C.3       5 UNK        -0.1800 
     49 N          -0.2858  -14.9085  -41.2511 N.am      5 UNK        -0.5000 
     50 C           0.5811  -14.6486  -42.2386 C.2       4 UNK         0.5000 
     51 O           1.5189  -15.3940  -42.5321 O.2       4 UNK        -0.5000 
     52 CA          0.3306  -13.3490  -43.0321 C.3       4 UNK         0.1400 
     53 CB          1.3520  -13.1429  -44.1642 C.3       4 UNK        -0.1800 
     54 N          -1.0209  -13.3386  -43.5982 N.am      4 UNK        -0.5000 
     55 C          -2.1400  -13.0265  -42.9263 C.2       3 UNK         0.5000 
     56 O          -2.1347  -12.6302  -41.7600 O.2       3 UNK        -0.5000 
     57 CA         -3.4914  -13.2367  -43.6412 C.3       3 UNK         0.1400 
     58 CB         -3.9595  -11.9296  -44.2976 C.3       3 UNK        -0.1800 
     59 N          -3.4635  -14.2915  -44.6546 N.am      3 UNK        -0.5000 
     60 C          -3.1934  -15.5856  -44.4299 C.2       2 UNK         0.5000 
     61 O          -3.0483  -16.0680  -43.3066 O.2       2 UNK        -0.5000 
     62 CA         -3.0309  -16.4936  -45.6674 C.3       2 UNK         0.1400 
     63 CB         -4.3132  -17.3089  -45.8935 C.3       2 UNK        -0.1800 
     64 N          -2.6981  -15.8069  -46.9220 N.am      2 UNK        -0.5000 
     65 C          -1.6984  -14.9390  -47.1455 C.2       1 UNK         0.5000 
     66 O          -0.9338  -14.5381  -46.2689 O.2       1 UNK        -0.5000 
     67 C          -1.0122  -22.6114  -47.1324 C.2       11 UNK         0.5000 
     68 O          -1.5160  -23.3199  -48.0013 O.2       11 UNK        -0.5000 
     69 N          -1.7319  -21.9059  -46.2489 N.am      12 UNK        -0.5000 
     70 CA         -3.1914  -21.9247  -46.1581 C.3       12 UNK         0.1400 
     71 CB         -3.6584  -20.8704  -45.1449 C.3       12 UNK        -0.1800 
     72 C          -3.7363  -23.3182  -45.7960 C.2       12 UNK         0.5000 
     73 O          -4.6808  -23.7802  -46.4354 O.2       12 UNK        -0.5000 
     74 N          -3.0961  -23.9877  -44.8256 N.am      13 UNK        -0.5000 
     75 CA         -3.3930  -25.3668  -44.4265 C.3       13 UNK         0.1400 
     76 CB         -2.5968  -25.7161  -43.1603 C.3       13 UNK        -0.1800 
     77 C          -3.1188  -26.3935  -45.5438 C.2       13 UNK         0.5000 
     78 O          -3.8628  -27.3661  -45.6717 O.2       13 UNK        -0.5000 
     79 N          -2.0837  -26.1380  -46.3551 N.am      14 UNK        -0.5000 
     80 CA         -1.7377  -26.9086  -47.5521 C.3       14 UNK         0.1400 
     81 CB         -0.2573  -26.6617  -47.8870 C.3       14 UNK        -0.1800 
     82 C          -2.6311  -26.5930  -48.7727 C.2       14 UNK         0.5000 
     83 O          -2.4909  -27.2605  -49.7983 O.2       14 UNK        -0.5000 
     84 N          -3.5163  -25.5913  -48.6507 N.am      15 UNK        -0.5000 
     85 CA         -4.4147  -25.0556  -49.6775 C.3       15 UNK         0.1400 
     86 CB         -5.4621  -26.1058  -50.1041 C.3       15 UNK        -0.1800 
     87 C          -3.6540  -24.4290  -50.8649 C.2       15 UNK         0.5000 
     88 O          -4.0274  -24.6353  -52.0188 O.2       15 UNK        -0.5000 
     89 N          -2.5994  -23.6698  -50.5516 N.am      16 UNK        -0.5000 
     90 CA         -1.7413  -22.9545  -51.4890 C.3       16 UNK         0.1400 
     91 CB         -0.3337  -23.5781  -51.4460 C.3       16 UNK        -0.1800 
     92 C          -1.7403  -21.4610  -51.1224 C.2       16 UNK         0.5000 
     93 O          -0.7077  -20.9157  -50.7432 O.2       16 UNK        -0.5000 
     94 N          -2.9114  -20.8218  -51.2073 N.am      17 UNK        -0.5000 
     95 CA         -3.0559  -19.3762  -51.0502 C.3       17 UNK         0.1400 
     96 CB         -4.4788  -19.0703  -50.5630 C.3       17 UNK        -0.1800 
     97 C          -2.7723  -18.6593  -52.3827 C.2       17 UNK         0.5000 
     98 O          -3.2423  -19.1172  -53.4303 O.2       17 UNK        -0.5000 
     99 N          -2.0419  -17.5363  -52.3131 N.am      18 UNK        -0.5000 
    100 CA        -1.7043  -16.6605  -53.4404 C.3       18 UNK         0.1400 
    101 CB        -0.9566  -15.4198  -52.9309 C.3       18 UNK        -0.1800 
    102 C         -2.9388  -16.2194  -54.2442 C.2       18 UNK         0.5000 
    103 O         -3.9130  -15.7566  -53.6473 O.2       18 UNK        -0.5000 
    104 N         -2.8735  -16.3923  -55.5714 N.am      19 UNK        -0.5000 
    105 CA        -3.9054  -16.1385  -56.5872 C.3       19 UNK         0.1400 
    106 CB        -4.2999  -14.6501  -56.6308 C.3       19 UNK        -0.1800 
    107 C         -5.1518  -17.0407  -56.4762 C.2       19 UNK         0.5000 
    108 O         -5.6037  -17.5671  -57.4930 O.2       19 UNK        -0.5000 
    109 N         -5.6720  -17.2157  -55.2563 N.am      20 UNK        -0.5000 
    110 CA        -6.8521  -18.0103  -54.9226 C.3       20 UNK         0.1400 
    111 CB        -7.1928  -17.7964  -53.4404 C.3       20 UNK        -0.1800 
    112 C         -6.6937  -19.5084  -55.2369 C.2       20 UNK         0.5000 
    113 O         -7.6487  -20.1252  -55.7113 O.2       20 UNK        -0.5000 
    114 N         -5.4977  -20.0550  -54.9865 N.am      21 UNK        -0.5000 
    115 CA        -5.1342  -21.4343  -55.3058 C.3       21 UNK         0.1400 
    116 CB        -4.9239  -22.2233  -54.0085 C.3       21 UNK        -0.1800 
    117 C         -3.8768  -21.4901  -56.1857 C.2       21 UNK         0.5000 
    118 O         -3.8251  -22.3148  -57.0989 O.2       21 UNK        -0.5000 
    119 N         -2.8968  -20.6128  -55.9237 N.am      22 UNK        -0.5000 
    120 CA        -1.6483  -20.5191  -56.7046 C.3       22 UNK         0.1400 
    121 C         -1.8112  -19.8975  -58.1261 C.2       22 UNK         0.5000 
    122 N         -2.9565  -19.3324  -58.4887 N.am      22 UNK        -0.7600 
    123 O         -0.8752  -19.9307  -58.9202 O.2       22 UNK        -0.5000 
    124 C124       -0.5168  -19.7945  -55.9315 C.3       23 UNK        -0.0398 
    125 S125       -0.1400  -20.5299  -54.3047 S.3       23 UNK        -0.2404 
    126 C126        1.5849  -19.9949  -54.0704 C.3       23 UNK        -0.0205 
    127 H127       -5.8219  -14.9222  -49.8911 H         1 UNK         0.0600 
    128 H128       -4.5545  -15.4522  -50.9992 H         1 UNK         0.0600 
    129 H129       -5.1706  -13.8005  -51.0926 H         1 UNK         0.0600 
    130 H130       -2.4864  -15.4105  -50.1705 H         1 UNK         0.3000 
    131 H131       -1.4819  -13.3178  -48.4901 H         1 UNK         0.0600 
    132 H132        0.0004  -14.2962  -50.1170 H         1 UNK         0.0800 
    133 H133        0.6471  -14.6039  -48.5337 H         1 UNK         0.0800 
    134 H134        1.7787  -15.9797  -50.9753 H         1 UNK         0.0800 
    135 H135        2.2979  -16.5008  -49.3926 H         1 UNK         0.0800 
    136 H136        1.2011  -17.6611  -52.7432 H         1 UNK         0.1150 
    137 H137        2.6183  -21.6590  -52.1614 H         1 UNK         0.1150 
    138 H138        2.6813  -18.8496  -48.9130 H         1 UNK         0.1150 
    139 H139        2.8931  -22.4613  -49.8619 H         1 UNK         0.0800 
    140 H140        4.3586  -21.5265  -49.6733 H         1 UNK         0.0800 
    141 H141        0.7415  -21.3307  -48.7647 H         1 UNK         0.0800 
    142 H142        0.7449  -20.4029  -47.2948 H         1 UNK         0.0800 
    143 H143        0.9160  -23.4544  -47.4789 H         1 UNK         0.0600 
    144 H144        1.3030  -21.7495  -45.2034 H         1 UNK         0.3000 
    145 H145        0.6912  -24.2376  -42.7221 H         1 UNK         0.0600 
    146 H146        2.9798  -23.5318  -42.0771 H         1 UNK         0.0600 
    147 H147        3.0482  -24.5735  -43.4902 H         1 UNK         0.0600 
    148 H148        3.2490  -22.8344  -43.6740 H         1 UNK         0.0600 
    149 H149        1.4760  -21.4681  -42.6454 H         1 UNK         0.3000 
    150 H150       -1.7936  -20.0754  -42.6089 H         1 UNK         0.0600 
    151 H151       -1.4723  -20.9108  -40.2512 H         1 UNK         0.0600 
    152 H152       -1.1541  -19.1961  -40.4191 H         1 UNK         0.0600 
    153 H153        0.1894  -20.3334  -40.2903 H         1 UNK         0.0600 
    154 H154        0.7901  -18.9219  -42.2095 H         1 UNK         0.3000 
    155 H155        1.9794  -18.8217  -45.3985 H         1 UNK         0.0600 
    156 H156        0.1818  -16.4647  -44.6573 H         1 UNK         0.0600 
    157 H157        1.6103  -16.3587  -45.6865 H         1 UNK         0.0600 
    158 H158        0.2283  -17.3089  -46.1986 H         1 UNK         0.0600 
    159 H159        2.2605  -16.8798  -43.2981 H         1 UNK         0.3000 
    160 H160        4.7702  -18.8021  -41.5662 H         1 UNK         0.0600 
    161 H161        6.1768  -16.8610  -42.1982 H         1 UNK         0.0600 
    162 H162        5.0121  -16.3801  -43.4305 H         1 UNK         0.0600 
    163 H163        5.9052  -17.8879  -43.5973 H         1 UNK         0.0600 
    164 H164        2.8955  -16.4966  -41.5403 H         1 UNK         0.3000 
    165 H165        3.0220  -16.4380  -38.0317 H         1 UNK         0.0600 
    166 H166        3.3712  -13.9819  -38.1720 H         1 UNK         0.0600 
    167 H167        4.8933  -14.8228  -38.4136 H         1 UNK         0.0600 
    168 H168        4.0421  -14.1444  -39.7959 H         1 UNK         0.0600 
    169 H169        1.6717  -14.7733  -39.9323 H         1 UNK         0.3000 
    170 H170       -0.6259  -16.9428  -41.2165 H         1 UNK         0.0600 
    171 H171       -1.7829  -16.9610  -38.9951 H         1 UNK         0.0600 
    172 H172       -1.4907  -15.2335  -38.8272 H         1 UNK         0.0600 
    173 H173       -2.5371  -15.8372  -40.1132 H         1 UNK         0.0600 
    174 H174       -1.0146  -14.2204  -41.0974 H         1 UNK         0.3000 
    175 H175        0.4351  -12.5149  -42.3356 H         1 UNK         0.0600 
    176 H176        1.1645  -12.2124  -44.6999 H         1 UNK         0.0600 
    177 H177        1.3220  -13.9567  -44.8887 H         1 UNK         0.0600 
    178 H178        2.3675  -13.0925  -43.7700 H         1 UNK         0.0600 
    179 H179       -1.1047  -13.7095  -44.5414 H         1 UNK         0.3000 
    180 H180       -4.2227  -13.5235  -42.8831 H         1 UNK         0.0600 
    181 H181       -3.2777  -11.6097  -45.0867 H         1 UNK         0.0600 
    182 H182       -4.0171  -11.1230  -43.5656 H         1 UNK         0.0600 
    183 H183       -4.9515  -12.0406  -44.7358 H         1 UNK         0.0600 
    184 H184       -3.5649  -13.9946  -45.6146 H         1 UNK         0.3000 
    185 H185       -2.2172  -17.1881  -45.4510 H         1 UNK         0.0600 
    186 H186       -4.5941  -17.8577  -44.9937 H         1 UNK         0.0600 
    187 H187       -5.1535  -16.6667  -46.1597 H         1 UNK         0.0600 
    188 H188       -4.1833  -18.0392  -46.6923 H         1 UNK         0.0600 
    189 H189       -3.2729  -16.0462  -47.7154 H         1 UNK         0.3000 
    190 H190       -1.2438  -21.2809  -45.6119 H         1 UNK         0.3000 
    191 H191       -3.5845  -21.6514  -47.1397 H         1 UNK         0.0600 
    192 H192       -3.2141  -19.8992  -45.3573 H         1 UNK         0.0600 
    193 H193       -4.7419  -20.7524  -45.1776 H         1 UNK         0.0600 
    194 H194       -3.3898  -21.1410  -44.1243 H         1 UNK         0.0600 
    195 H195       -2.3606  -23.5152  -44.3082 H         1 UNK         0.3000 
    196 H196       -4.4564  -25.4207  -44.1843 H         1 UNK         0.0600 
    197 H197       -2.8155  -26.7317  -42.8282 H         1 UNK         0.0600 
    198 H198       -2.8480  -25.0443  -42.3393 H         1 UNK         0.0600 
    199 H199       -1.5218  -25.6494  -43.3292 H         1 UNK         0.0600 
    200 H200       -1.4847  -25.3492  -46.1406 H         1 UNK         0.3000 
    201 H201       -1.8598  -27.9701  -47.3279 H         1 UNK         0.0600 
    202 H202        0.3858  -26.9087  -47.0421 H         1 UNK         0.0600 
    203 H203       -0.0740  -25.6215  -48.1554 H         1 UNK         0.0600 
    204 H204        0.0629  -27.2771  -48.7285 H         1 UNK         0.0600 
    205 H205       -3.5407  -25.0976  -47.7673 H         1 UNK         0.3000 
    206 H206       -4.9548  -24.2348  -49.2040 H         1 UNK         0.0600 
    207 H207       -5.9873  -26.5115  -49.2395 H         1 UNK         0.0600 
    208 H208       -6.2122  -25.6632  -50.7602 H         1 UNK         0.0600 
    209 H209       -5.0092  -26.9379  -50.6434 H         1 UNK         0.0600 
    210 H210       -2.3415  -23.5653  -49.5707 H         1 UNK         0.3000 
    211 H211       -2.1186  -23.0374  -52.5098 H         1 UNK         0.0600 
    212 H212        0.1043  -23.5156  -50.4491 H         1 UNK         0.0600 
    213 H213        0.3396  -23.0675  -52.1358 H         1 UNK         0.0600 
    214 H214       -0.3612  -24.6289  -51.7332 H         1 UNK         0.0600 
    215 H215       -3.7217  -21.3247  -51.5344 H         1 UNK         0.3000 
    216 H216       -2.3546  -19.0158  -50.2947 H         1 UNK         0.0600 
    217 H217       -4.6449  -17.9957  -50.4820 H         1 UNK         0.0600 
    218 H218       -4.6565  -19.5024  -49.5782 H         1 UNK         0.0600 
    219 H219       -5.2304  -19.4711  -51.2428 H         1 UNK         0.0600 
    220 H220       -1.6443  -17.2793  -51.4219 H         1 UNK         0.3000 
    221 H221       -1.0322  -17.2186  -54.0919 H         1 UNK         0.0600 
    222 H222       -0.0174  -15.6876  -52.4538 H         1 UNK         0.0600 
    223 H223       -0.7127  -14.7461  -53.7533 H         1 UNK         0.0600 
    224 H224       -1.5528  -14.8548  -52.2143 H         1 UNK         0.0600 
    225 H225       -2.0209  -16.7814  -55.9454 H         1 UNK         0.3000 
    226 H226       -3.4367  -16.3760  -57.5436 H         1 UNK         0.0600 
    227 H227       -3.4264  -14.0151  -56.7759 H         1 UNK         0.0600 
    228 H228       -4.9845  -14.4546  -57.4569 H         1 UNK         0.0600 
    229 H229       -4.7983  -14.3309  -55.7153 H         1 UNK         0.0600 
    230 H230       -5.2093  -16.7343  -54.4886 H         1 UNK         0.3000 
    231 H231       -7.6837  -17.6349  -55.5219 H         1 UNK         0.0600 
    232 H232       -6.3603  -18.0762  -52.7954 H         1 UNK         0.0600 
    233 H233       -8.0568  -18.3924  -53.1444 H         1 UNK         0.0600 
    234 H234       -7.4326  -16.7523  -53.2391 H         1 UNK         0.0600 
    235 H235       -4.7744  -19.4850  -54.5587 H         1 UNK         0.3000 
    236 H236       -5.9350  -21.9203  -55.8668 H         1 UNK         0.0600 
    237 H237       -5.8142  -22.2026  -53.3799 H         1 UNK         0.0600 
    238 H238       -4.7012  -23.2683  -54.2266 H         1 UNK         0.0600 
    239 H239       -4.0919  -21.8243  -53.4325 H         1 UNK         0.0600 
    240 H240       -2.9691  -20.0092  -55.1103 H         1 UNK         0.3000 
    241 H241       -1.3048  -21.5413  -56.8751 H         1 UNK         0.0600 
    242 H242       -3.7505  -19.3196  -57.8685 H         1 UNK         0.3800 
    243 H243       -3.0420  -18.9471  -59.4161 H         1 UNK         0.3800 
    244 H244        0.3997  -19.8048  -56.5242 H         1 UNK         0.0800 
    245 H245       -0.7719  -18.7463  -55.7852 H         1 UNK         0.0800 
    246 H246        1.7846  -19.1037  -54.6673 H         1 UNK         0.0800 
    247 H247        2.2548  -20.7697  -54.4451 H         1 UNK         0.0800 
@<TRIPOS>BOND
     1    1    2 1    
     2    1  127 1    
     3    1  128 1    
     4    1  129 1    
     5    2    3 2    
     6    2    4 am   BACKBONE|DICT|INTERRES
     7    4    5 1    
     8    4  130 1    
     9    5    6 1    
    10    5   65 1    
    11    5  131 1    
    12    6    7 1    
    13    6  132 1    
    14    6  133 1    
    15    7    8 1    
    16    8    9 1    
    17    8  134 1    
    18    8  135 1    
    19    9   10 ar   
    20    9   14 ar   
    21   10   11 ar   
    22   10  136 1    
    23   11   12 ar   
    24   11  126 1    
    25   12   13 ar   
    26   12  137 1    
    27   13   14 ar   
    28   13   15 1    
    29   14  138 1    
    30   15   16 1    
    31   15  139 1    
    32   15  140 1    
    33   16   17 1    
    34   17   18 1    
    35   17  141 1    
    36   17  142 1    
    37   18   19 1    
    38   18   67 1    
    39   18  143 1    
    40   19   20 am   BACKBONE|DICT|INTERRES
    41   19  144 1    
    42   20   21 2    
    43   20   22 1    
    44   22   23 1    
    45   22   24 1    
    46   22  145 1    
    47   23  146 1    
    48   23  147 1    
    49   23  148 1    
    50   24   25 am   BACKBONE|DICT|INTERRES
    51   24  149 1    
    52   25   26 2    
    53   25   27 1    
    54   27   28 1    
    55   27   29 1    
    56   27  150 1    
    57   28  151 1    
    58   28  152 1    
    59   28  153 1    
    60   29   30 am   BACKBONE|DICT|INTERRES
    61   29  154 1    
    62   30   31 2    
    63   30   32 1    
    64   32   33 1    
    65   32   34 1    
    66   32  155 1    
    67   33  156 1    
    68   33  157 1    
    69   33  158 1    
    70   34   35 am   BACKBONE|DICT|INTERRES
    71   34  159 1    
    72   35   36 2    
    73   35   37 1    
    74   37   38 1    
    75   37   39 1    
    76   37  160 1    
    77   38  161 1    
    78   38  162 1    
    79   38  163 1    
    80   39   40 am   BACKBONE|DICT|INTERRES
    81   39  164 1    
    82   40   41 2    
    83   40   42 1    
    84   42   43 1    
    85   42   44 1    
    86   42  165 1    
    87   43  166 1    
    88   43  167 1    
    89   43  168 1    
    90   44   45 am   BACKBONE|DICT|INTERRES
    91   44  169 1    
    92   45   46 2    
    93   45   47 1    
    94   47   48 1    
    95   47   49 1    
    96   47  170 1    
    97   48  171 1    
    98   48  172 1    
    99   48  173 1    
   100   49   50 am   BACKBONE|DICT|INTERRES
   101   49  174 1    
   102   50   51 2    
   103   50   52 1    
   104   52   53 1    
   105   52   54 1    
   106   52  175 1    
   107   53  176 1    
   108   53  177 1    
   109   53  178 1    
   110   54   55 am   BACKBONE|DICT|INTERRES
   111   54  179 1    
   112   55   56 2    
   113   55   57 1    
   114   57   58 1    
   115   57   59 1    
   116   57  180 1    
   117   58  181 1    
   118   58  182 1    
   119   58  183 1    
   120   59   60 am   BACKBONE|DICT|INTERRES
   121   59  184 1    
   122   60   61 2    
   123   60   62 1    
   124   62   63 1    
   125   62   64 1    
   126   62  185 1    
   127   63  186 1    
   128   63  187 1    
   129   63  188 1    
   130   64   65 am   BACKBONE|DICT|INTERRES
   131   64  189 1    
   132   65   66 2    
   133   67   68 2    
   134   67   69 am   BACKBONE|DICT|INTERRES
   135   69   70 1    
   136   69  190 1    
   137   70   71 1    
   138   70   72 1    
   139   70  191 1    
   140   71  192 1    
   141   71  193 1    
   142   71  194 1    
   143   72   73 2    
   144   72   74 am   BACKBONE|DICT|INTERRES
   145   74   75 1    
   146   74  195 1    
   147   75   76 1    
   148   75   77 1    
   149   75  196 1    
   150   76  197 1    
   151   76  198 1    
   152   76  199 1    
   153   77   78 2    
   154   77   79 am   BACKBONE|DICT|INTERRES
   155   79   80 1    
   156   79  200 1    
   157   80   81 1    
   158   80   82 1    
   159   80  201 1    
   160   81  202 1    
   161   81  203 1    
   162   81  204 1    
   163   82   83 2    
   164   82   84 am   BACKBONE|DICT|INTERRES
   165   84   85 1    
   166   84  205 1    
   167   85   86 1    
   168   85   87 1    
   169   85  206 1    
   170   86  207 1    
   171   86  208 1    
   172   86  209 1    
   173   87   88 2    
   174   87   89 am   BACKBONE|DICT|INTERRES
   175   89   90 1    
   176   89  210 1    
   177   90   91 1    
   178   90   92 1    
   179   90  211 1    
   180   91  212 1    
   181   91  213 1    
   182   91  214 1    
   183   92   93 2    
   184   92   94 am   BACKBONE|DICT|INTERRES
   185   94   95 1    
   186   94  215 1    
   187   95   96 1    
   188   95   97 1    
   189   95  216 1    
   190   96  217 1    
   191   96  218 1    
   192   96  219 1    
   193   97   98 2    
   194   97   99 am   BACKBONE|DICT|INTERRES
   195   99  100 1    
   196   99  220 1    
   197  100  101 1    
   198  100  102 1    
   199  100  221 1    
   200  101  222 1    
   201  101  223 1    
   202  101  224 1    
   203  102  103 2    
   204  102  104 am   BACKBONE|DICT|INTERRES
   205  104  105 1    
   206  104  225 1    
   207  105  106 1    
   208  105  107 1    
   209  105  226 1    
   210  106  227 1    
   211  106  228 1    
   212  106  229 1    
   213  107  108 2    
   214  107  109 am   BACKBONE|DICT|INTERRES
   215  109  110 1    
   216  109  230 1    
   217  110  111 1    
   218  110  112 1    
   219  110  231 1    
   220  111  232 1    
   221  111  233 1    
   222  111  234 1    
   223  112  113 2    
   224  112  114 am   BACKBONE|DICT|INTERRES
   225  114  115 1    
   226  114  235 1    
   227  115  116 1    
   228  115  117 1    
   229  115  236 1    
   230  116  237 1    
   231  116  238 1    
   232  116  239 1    
   233  117  118 2    
   234  117  119 am   BACKBONE|DICT|INTERRES
   235  119  120 1    
   236  119  240 1    
   237  120  121 1    
   238  120  124 1    
   239  120  241 1    
   240  121  122 am   BACKBONE|DICT|INTERRES
   241  121  123 2    
   242  122  242 1    
   243  122  243 1    
   244  124  125 1    
   245  124  244 1    
   246  124  245 1    
   247  125  126 1    
   248  126  246 1    
   249  126  247 1    
@<TRIPOS>SUBSTRUCTURE
     1 UNK         1 GROUP             0       ****    0 ROOT    
