@<TRIPOS>MOLECULE
3R540
247   249    1
SMALL
USER_CHARGES


@<TRIPOS>ATOM
      1 CA          2.8536  -10.0614  -47.2716 C.3       0 UNK        -0.1800 
      2 C           2.6401  -11.5432  -47.0022 C.2       0 UNK         0.5000 
      3 O           2.5506  -11.9493  -45.8435 O.2       0 UNK        -0.5000 
      4 N           2.5291  -12.3507  -48.0652 N.am      1 UNK        -0.5000 
      5 CA          2.3872  -13.8139  -48.0143 C.3       1 UNK         0.1400 
      6 C6          2.5893  -14.4410  -49.4191 C.3       23 UNK        -0.0398 
      7 S7          3.2934  -16.1249  -49.3537 S.3       23 UNK        -0.2404 
      8 C8          2.8056  -16.7884  -50.9854 C.3       23 UNK        -0.0205 
      9 C9          1.4067  -17.4058  -51.0681 C.ar      23 UNK        -0.0193 
     10 C10         1.1350  -18.3026  -52.1075 C.ar      23 UNK        -0.1150 
     11 C11        -0.1244  -18.8959  -52.2419 C.ar      23 UNK        -0.0193 
     12 C12        -1.1258  -18.5760  -51.3193 C.ar      23 UNK        -0.1150 
     13 C13        -0.8801  -17.6728  -50.2815 C.ar      23 UNK        -0.0193 
     14 C14         0.3864  -17.0988  -50.1592 C.ar      23 UNK        -0.1150 
     15 C15        -1.9859  -17.2867  -49.3085 C.3       23 UNK        -0.0205 
     16 S16        -2.7323  -18.7267  -48.4844 S.3       23 UNK        -0.2404 
     17 C17        -1.4295  -19.1832  -47.2911 C.3       23 UNK        -0.0398 
     18 CA         -1.1077  -20.6974  -47.2353 C.3       11 UNK         0.1400 
     19 N           0.0064  -20.9666  -46.3240 N.am      11 UNK        -0.5000 
     20 C           0.5889  -22.1554  -46.1196 C.2       10 UNK         0.5000 
     21 O           0.2967  -23.1757  -46.7406 O.2       10 UNK        -0.5000 
     22 CA          1.6330  -22.2331  -44.9897 C.3       10 UNK         0.1400 
     23 CB          3.0072  -21.7447  -45.4703 C.3       10 UNK        -0.1800 
     24 N           1.2253  -21.4869  -43.7969 N.am      10 UNK        -0.5000 
     25 C           0.1534  -21.7909  -43.0495 C.2       9 UNK         0.5000 
     26 O          -0.5682  -22.7661  -43.2580 O.2       9 UNK        -0.5000 
     27 CA         -0.2062  -20.8162  -41.9133 C.3       9 UNK         0.1400 
     28 CB          0.6814  -21.0523  -40.6825 C.3       9 UNK        -0.1800 
     29 N          -0.1185  -19.4164  -42.3314 N.am      9 UNK        -0.5000 
     30 C          -0.8988  -18.8591  -43.2690 C.2       8 UNK         0.5000 
     31 O          -1.8246  -19.4521  -43.8222 O.2       8 UNK        -0.5000 
     32 CA         -0.5573  -17.4215  -43.7032 C.3       8 UNK         0.1400 
     33 CB         -1.1751  -16.3943  -42.7437 C.3       8 UNK        -0.1800 
     34 N           0.8830  -17.1953  -43.8055 N.am      8 UNK        -0.5000 
     35 C           1.7007  -17.8216  -44.6628 C.2       7 UNK         0.5000 
     36 O           1.3156  -18.6412  -45.4937 O.2       7 UNK        -0.5000 
     37 CA          3.2080  -17.5482  -44.5164 C.3       7 UNK         0.1400 
     38 CB          3.6246  -16.2531  -45.2241 C.3       7 UNK        -0.1800 
     39 N           3.6092  -17.4863  -43.1136 N.am      7 UNK        -0.5000 
     40 C           3.6790  -18.5512  -42.3047 C.2       6 UNK         0.5000 
     41 O           3.4351  -19.7028  -42.6664 O.2       6 UNK        -0.5000 
     42 CA          4.0523  -18.2714  -40.8378 C.3       6 UNK         0.1400 
     43 CB          5.5771  -18.1894  -40.6722 C.3       6 UNK        -0.1800 
     44 N           3.4408  -17.0419  -40.3278 N.am      6 UNK        -0.5000 
     45 C           2.1259  -16.8926  -40.1189 C.2       5 UNK         0.5000 
     46 O           1.2966  -17.7776  -40.3278 O.2       5 UNK        -0.5000 
     47 CA          1.6536  -15.5115  -39.6295 C.3       5 UNK         0.1400 
     48 CB          1.8522  -15.3789  -38.1121 C.3       5 UNK        -0.1800 
     49 N           2.2905  -14.3757  -40.3057 N.am      5 UNK        -0.5000 
     50 C           2.2421  -14.1465  -41.6245 C.2       4 UNK         0.5000 
     51 O           1.7886  -14.9462  -42.4424 O.2       4 UNK        -0.5000 
     52 CA          2.7886  -12.7996  -42.1245 C.3       4 UNK         0.1400 
     53 CB          4.1400  -12.9841  -42.8308 C.3       4 UNK        -0.1800 
     54 N           1.8424  -12.1749  -43.0491 N.am      4 UNK        -0.5000 
     55 C           0.6546  -11.6685  -42.6879 C.2       3 UNK         0.5000 
     56 O           0.2613  -11.6160  -41.5215 O.2       3 UNK        -0.5000 
     57 CA         -0.2452  -11.1247  -43.8078 C.3       3 UNK         0.1400 
     58 CB          0.2321   -9.7325  -44.2518 C.3       3 UNK        -0.1800 
     59 N          -0.2736  -12.0189  -44.9664 N.am      3 UNK        -0.5000 
     60 C          -1.2689  -12.8735  -45.2462 C.2       2 UNK         0.5000 
     61 O          -2.2454  -13.0370  -44.5137 O.2       2 UNK        -0.5000 
     62 CA         -1.1970  -13.6595  -46.5730 C.3       2 UNK         0.1400 
     63 CB         -2.3653  -13.2772  -47.4970 C.3       2 UNK        -0.1800 
     64 N           0.0559  -13.4239  -47.2939 N.am      2 UNK        -0.5000 
     65 C           1.0738  -14.2918  -47.3449 C.2       1 UNK         0.5000 
     66 O           1.0107  -15.4243  -46.8727 O.2       1 UNK        -0.5000 
     67 C          -2.3461  -21.5468  -46.8747 C.2       11 UNK         0.5000 
     68 O          -2.9061  -22.2075  -47.7495 O.2       11 UNK        -0.5000 
     69 N          -2.7364  -21.5504  -45.5935 N.am      12 UNK        -0.5000 
     70 CA         -3.8483  -22.3499  -45.0784 C.3       12 UNK         0.1400 
     71 CB         -4.1057  -21.9847  -43.6092 C.3       12 UNK        -0.1800 
     72 C          -3.6273  -23.8664  -45.2390 C.2       12 UNK         0.5000 
     73 O          -4.5627  -24.5777  -45.6056 O.2       12 UNK        -0.5000 
     74 N          -2.3976  -24.3248  -44.9741 N.am      13 UNK        -0.5000 
     75 CA         -2.0041  -25.7283  -45.0452 C.3       13 UNK         0.1400 
     76 CB         -0.7141  -25.9359  -44.2343 C.3       13 UNK        -0.1800 
     77 C          -1.8366  -26.2436  -46.4863 C.2       13 UNK         0.5000 
     78 O          -2.5019  -27.2081  -46.8657 O.2       13 UNK        -0.5000 
     79 N          -0.9197  -25.6309  -47.2458 N.am      14 UNK        -0.5000 
     80 CA         -0.4318  -26.1570  -48.5213 C.3       14 UNK         0.1400 
     81 CB          1.0608  -25.8215  -48.6696 C.3       14 UNK        -0.1800 
     82 C          -1.2184  -25.6288  -49.7284 C.2       14 UNK         0.5000 
     83 O          -1.4747  -26.3943  -50.6584 O.2       14 UNK        -0.5000 
     84 N          -1.5872  -24.3409  -49.7031 N.am      15 UNK        -0.5000 
     85 CA         -2.3234  -23.6834  -50.7889 C.3       15 UNK         0.1400 
     86 CB         -1.8621  -22.2220  -50.9109 C.3       15 UNK        -0.1800 
     87 C          -3.8499  -23.7643  -50.6056 C.2       15 UNK         0.5000 
     88 O          -4.5798  -23.2605  -51.4605 O.2       15 UNK        -0.5000 
     89 N          -4.2995  -24.3598  -49.4898 N.am      16 UNK        -0.5000 
     90 CA         -5.6910  -24.5125  -49.0552 C.3       16 UNK         0.1400 
     91 CB         -6.4307  -25.5193  -49.9589 C.3       16 UNK        -0.1800 
     92 C          -6.4186  -23.1587  -48.9120 C.2       16 UNK         0.5000 
     93 O          -7.5768  -23.0306  -49.3118 O.2       16 UNK        -0.5000 
     94 N          -5.6987  -22.1718  -48.3562 N.am      17 UNK        -0.5000 
     95 CA         -6.0886  -20.7687  -48.1904 C.3       17 UNK         0.1400 
     96 CB         -7.3004  -20.6282  -47.2453 C.3       17 UNK        -0.1800 
     97 C          -6.2705  -20.0567  -49.5471 C.2       17 UNK         0.5000 
     98 O          -7.2448  -19.3281  -49.7419 O.2       17 UNK        -0.5000 
     99 N          -5.3077  -20.2943  -50.4507 N.am      18 UNK        -0.5000 
    100 CA        -5.2131  -19.7830  -51.8201 C.3       18 UNK         0.1400 
    101 CB        -5.0476  -18.2495  -51.8346 C.3       18 UNK        -0.1800 
    102 C         -6.3748  -20.2719  -52.7037 C.2       18 UNK         0.5000 
    103 O         -7.1385  -19.4655  -53.2399 O.2       18 UNK        -0.5000 
    104 N         -6.4957  -21.5993  -52.8251 N.am      19 UNK        -0.5000 
    105 CA        -7.4451  -22.2646  -53.7120 C.3       19 UNK         0.1400 
    106 CB        -7.5453  -23.7480  -53.3248 C.3       19 UNK        -0.1800 
    107 C         -7.0261  -22.0809  -55.1831 C.2       19 UNK         0.5000 
    108 O         -6.1137  -22.7670  -55.6495 O.2       19 UNK        -0.5000 
    109 N         -7.6912  -21.1389  -55.8663 N.am      20 UNK        -0.5000 
    110 CA        -7.4516  -20.7063  -57.2468 C.3       20 UNK         0.1400 
    111 CB        -7.7936  -21.8410  -58.2399 C.3       20 UNK        -0.1800 
    112 C         -6.0399  -20.1057  -57.4395 C.2       20 UNK         0.5000 
    113 O         -5.5022  -19.4917  -56.5141 O.2       20 UNK        -0.5000 
    114 N         -5.4688  -20.2639  -58.6402 N.am      21 UNK        -0.5000 
    115 CA        -4.1244  -19.8190  -59.0060 C.3       21 UNK         0.1400 
    116 CB        -4.0524  -19.6726  -60.5368 C.3       21 UNK        -0.1800 
    117 C         -3.0607  -20.7874  -58.4512 C.2       21 UNK         0.5000 
    118 O         -2.4818  -21.5736  -59.2044 O.2       21 UNK        -0.5000 
    119 N         -2.8662  -20.7441  -57.1296 N.am      22 UNK        -0.5000 
    120 CA        -1.8990  -21.5574  -56.3821 C.3       22 UNK         0.1400 
    121 C         -0.4093  -21.2721  -56.7378 C.2       22 UNK         0.5000 
    122 N          0.4849  -22.2148  -56.4699 N.am      22 UNK        -0.7600 
    123 O         -0.0478  -20.2021  -57.2238 O.2       22 UNK        -0.5000 
    124 C124       -2.1657  -21.4851  -54.8561 C.3       23 UNK        -0.0398 
    125 S125       -2.0142  -19.8141  -54.1242 S.3       23 UNK        -0.2404 
    126 C126       -0.3618  -19.9196  -53.3499 C.3       23 UNK        -0.0205 
    127 H127        3.0821   -9.8702  -48.3203 H         1 UNK         0.0600 
    128 H128        3.6822   -9.6870  -46.6706 H         1 UNK         0.0600 
    129 H129        1.9582   -9.4986  -47.0090 H         1 UNK         0.0600 
    130 H130        2.5908  -11.9485  -48.9901 H         1 UNK         0.3000 
    131 H131        3.1998  -14.1598  -47.3723 H         1 UNK         0.0600 
    132 H132        1.6629  -14.4318  -49.9959 H         1 UNK         0.0800 
    133 H133        3.2977  -13.8449  -49.9963 H         1 UNK         0.0800 
    134 H134        3.5398  -17.5496  -51.2540 H         1 UNK         0.0800 
    135 H135        2.8932  -16.0032  -51.7376 H         1 UNK         0.0800 
    136 H136        1.9166  -18.5498  -52.8125 H         1 UNK         0.1150 
    137 H137       -2.0999  -19.0348  -51.4022 H         1 UNK         0.1150 
    138 H138        0.5642  -16.4098  -49.3493 H         1 UNK         0.1150 
    139 H139       -1.6175  -16.5954  -48.5481 H         1 UNK         0.0800 
    140 H140       -2.7595  -16.7471  -49.8546 H         1 UNK         0.0800 
    141 H141       -1.7423  -18.8203  -46.3140 H         1 UNK         0.0800 
    142 H142       -0.5193  -18.6327  -47.5342 H         1 UNK         0.0800 
    143 H143       -0.7785  -21.0043  -48.2296 H         1 UNK         0.0600 
    144 H144        0.3745  -20.1624  -45.8196 H         1 UNK         0.3000 
    145 H145        1.7317  -23.2825  -44.7049 H         1 UNK         0.0600 
    146 H146        3.7586  -21.8511  -44.6877 H         1 UNK         0.0600 
    147 H147        3.3468  -22.3240  -46.3297 H         1 UNK         0.0600 
    148 H148        2.9843  -20.6974  -45.7703 H         1 UNK         0.0600 
    149 H149        1.7927  -20.6865  -43.5408 H         1 UNK         0.3000 
    150 H150       -1.2408  -21.0131  -41.6245 H         1 UNK         0.0600 
    151 H151        0.6170  -22.0884  -40.3481 H         1 UNK         0.0600 
    152 H152        0.3727  -20.4217  -39.8486 H         1 UNK         0.0600 
    153 H153        1.7295  -20.8390  -40.8918 H         1 UNK         0.0600 
    154 H154        0.5812  -18.8437  -41.8702 H         1 UNK         0.3000 
    155 H155       -0.9858  -17.2564  -44.6932 H         1 UNK         0.0600 
    156 H156       -0.7708  -16.4908  -41.7359 H         1 UNK         0.0600 
    157 H157       -2.2564  -16.5209  -42.6793 H         1 UNK         0.0600 
    158 H158       -0.9862  -15.3754  -43.0829 H         1 UNK         0.0600 
    159 H159        1.2748  -16.4818  -43.1931 H         1 UNK         0.3000 
    160 H160        3.7469  -18.3733  -44.9872 H         1 UNK         0.0600 
    161 H161        3.0337  -15.4006  -44.8881 H         1 UNK         0.0600 
    162 H162        3.4814  -16.3499  -46.2998 H         1 UNK         0.0600 
    163 H163        4.6773  -16.0250  -45.0574 H         1 UNK         0.0600 
    164 H164        3.7587  -16.5682  -42.7228 H         1 UNK         0.3000 
    165 H165        3.6890  -19.1084  -40.2374 H         1 UNK         0.0600 
    166 H166        5.8537  -18.0676  -39.6248 H         1 UNK         0.0600 
    167 H167        6.0574  -19.1011  -41.0302 H         1 UNK         0.0600 
    168 H168        6.0003  -17.3539  -41.2312 H         1 UNK         0.0600 
    169 H169        4.0547  -16.2635  -40.1375 H         1 UNK         0.3000 
    170 H170        0.5829  -15.4474  -39.8338 H         1 UNK         0.0600 
    171 H171        1.3741  -16.2037  -37.5817 H         1 UNK         0.0600 
    172 H172        2.9087  -15.3829  -37.8412 H         1 UNK         0.0600 
    173 H173        1.4122  -14.4552  -37.7357 H         1 UNK         0.0600 
    174 H174        2.6920  -13.6700  -39.7053 H         1 UNK         0.3000 
    175 H175        2.9324  -12.1319  -41.2725 H         1 UNK         0.0600 
    176 H176        4.0477  -13.6014  -43.7243 H         1 UNK         0.0600 
    177 H177        4.5573  -12.0240  -43.1347 H         1 UNK         0.0600 
    178 H178        4.8662  -13.4617  -42.1720 H         1 UNK         0.0600 
    179 H179        2.0970  -12.1854  -44.0330 H         1 UNK         0.3000 
    180 H180       -1.2515  -11.0101  -43.3991 H         1 UNK         0.0600 
    181 H181        1.2552   -9.7541  -44.6275 H         1 UNK         0.0600 
    182 H182        0.2062   -9.0295  -43.4182 H         1 UNK         0.0600 
    183 H183       -0.4062   -9.3284  -45.0376 H         1 UNK         0.0600 
    184 H184        0.5502  -12.0142  -45.5551 H         1 UNK         0.3000 
    185 H185       -1.3048  -14.7165  -46.3203 H         1 UNK         0.0600 
    186 H186       -3.3257  -13.4699  -47.0171 H         1 UNK         0.0600 
    187 H187       -2.3376  -12.2205  -47.7653 H         1 UNK         0.0600 
    188 H188       -2.3433  -13.8588  -48.4189 H         1 UNK         0.0600 
    189 H189        0.1719  -12.5160  -47.7205 H         1 UNK         0.3000 
    190 H190       -2.2573  -20.9504  -44.9268 H         1 UNK         0.3000 
    191 H191       -4.7400  -22.0844  -45.6486 H         1 UNK         0.0600 
    192 H192       -3.2387  -22.1960  -42.9830 H         1 UNK         0.0600 
    193 H193       -4.9478  -22.5496  -43.2076 H         1 UNK         0.0600 
    194 H194       -4.3434  -20.9260  -43.5031 H         1 UNK         0.0600 
    195 H195       -1.6987  -23.6725  -44.6317 H         1 UNK         0.3000 
    196 H196       -2.7873  -26.3247  -44.5722 H         1 UNK         0.0600 
    197 H197       -0.3887  -26.9762  -44.2735 H         1 UNK         0.0600 
    198 H198       -0.8659  -25.6820  -43.1850 H         1 UNK         0.0600 
    199 H199        0.1043  -25.3198  -44.6085 H         1 UNK         0.0600 
    200 H200       -0.4554  -24.7932  -46.8977 H         1 UNK         0.3000 
    201 H201       -0.5214  -27.2458  -48.5191 H         1 UNK         0.0600 
    202 H202        1.6387  -26.2172  -47.8342 H         1 UNK         0.0600 
    203 H203        1.2328  -24.7457  -48.7157 H         1 UNK         0.0600 
    204 H204        1.4690  -26.2567  -49.5826 H         1 UNK         0.0600 
    205 H205       -1.3764  -23.7802  -48.8878 H         1 UNK         0.3000 
    206 H206       -2.0901  -24.1751  -51.7355 H         1 UNK         0.0600 
    207 H207       -2.1948  -21.6066  -50.0782 H         1 UNK         0.0600 
    208 H208       -0.7761  -22.1520  -50.9659 H         1 UNK         0.0600 
    209 H209       -2.2670  -21.7697  -51.8153 H         1 UNK         0.0600 
    210 H210       -3.6013  -24.6916  -48.8400 H         1 UNK         0.3000 
    211 H211       -5.6561  -24.9412  -48.0533 H         1 UNK         0.0600 
    212 H212       -6.4878  -25.1718  -50.9891 H         1 UNK         0.0600 
    213 H213       -7.4499  -25.6887  -49.6101 H         1 UNK         0.0600 
    214 H214       -5.9256  -26.4851  -49.9623 H         1 UNK         0.0600 
    215 H215       -4.7320  -22.3776  -48.1123 H         1 UNK         0.3000 
    216 H216       -5.2453  -20.2788  -47.7026 H         1 UNK         0.0600 
    217 H217       -7.4913  -19.5797  -47.0138 H         1 UNK         0.0600 
    218 H218       -7.1252  -21.1418  -46.3001 H         1 UNK         0.0600 
    219 H219       -8.2114  -21.0343  -47.6850 H         1 UNK         0.0600 
    220 H220       -4.5863  -20.9495  -50.1878 H         1 UNK         0.3000 
    221 H221       -4.3044  -20.2138  -52.2410 H         1 UNK         0.0600 
    222 H222       -5.9380  -17.7368  -51.4706 H         1 UNK         0.0600 
    223 H223       -4.2088  -17.9387  -51.2163 H         1 UNK         0.0600 
    224 H224       -4.8543  -17.8920  -52.8467 H         1 UNK         0.0600 
    225 H225       -5.8273  -22.2006  -52.3470 H         1 UNK         0.3000 
    226 H226       -8.4315  -21.8190  -53.5665 H         1 UNK         0.0600 
    227 H227       -7.9417  -23.8584  -52.3154 H         1 UNK         0.0600 
    228 H228       -8.2155  -24.2838  -53.9980 H         1 UNK         0.0600 
    229 H229       -6.5739  -24.2427  -53.3623 H         1 UNK         0.0600 
    230 H230       -8.3571  -20.5772  -55.3537 H         1 UNK         0.3000 
    231 H231       -8.1505  -19.8890  -57.4292 H         1 UNK         0.0600 
    232 H232       -8.7749  -22.2646  -58.0258 H         1 UNK         0.0600 
    233 H233       -7.0668  -22.6532  -58.1977 H         1 UNK         0.0600 
    234 H234       -7.8263  -21.4757  -59.2668 H         1 UNK         0.0600 
    235 H235       -5.9626  -20.8018  -59.3373 H         1 UNK         0.3000 
    236 H236       -3.9395  -18.8348  -58.5700 H         1 UNK         0.0600 
    237 H237       -3.0615  -19.3415  -60.8502 H         1 UNK         0.0600 
    238 H238       -4.2608  -20.6148  -61.0452 H         1 UNK         0.0600 
    239 H239       -4.7690  -18.9334  -60.8953 H         1 UNK         0.0600 
    240 H240       -3.4217  -20.0962  -56.5840 H         1 UNK         0.3000 
    241 H241       -2.0868  -22.5894  -56.6853 H         1 UNK         0.0600 
    242 H242        1.4542  -22.0419  -56.6872 H         1 UNK         0.3800 
    243 H243        0.2205  -23.1055  -56.0786 H         1 UNK         0.3800 
    244 H244       -3.1811  -21.8324  -54.6571 H         1 UNK         0.0800 
    245 H245       -1.5210  -22.1860  -54.3243 H         1 UNK         0.0800 
    246 H246       -0.2084  -20.9107  -52.9255 H         1 UNK         0.0800 
    247 H247        0.3862  -19.8055  -54.1360 H         1 UNK         0.0800 
@<TRIPOS>BOND
     1    1    2 1    
     2    1  127 1    
     3    1  128 1    
     4    1  129 1    
     5    2    3 2    
     6    2    4 am   BACKBONE|DICT|INTERRES
     7    4    5 1    
     8    4  130 1    
     9    5    6 1    
    10    5   65 1    
    11    5  131 1    
    12    6    7 1    
    13    6  132 1    
    14    6  133 1    
    15    7    8 1    
    16    8    9 1    
    17    8  134 1    
    18    8  135 1    
    19    9   10 ar   
    20    9   14 ar   
    21   10   11 ar   
    22   10  136 1    
    23   11   12 ar   
    24   11  126 1    
    25   12   13 ar   
    26   12  137 1    
    27   13   14 ar   
    28   13   15 1    
    29   14  138 1    
    30   15   16 1    
    31   15  139 1    
    32   15  140 1    
    33   16   17 1    
    34   17   18 1    
    35   17  141 1    
    36   17  142 1    
    37   18   19 1    
    38   18   67 1    
    39   18  143 1    
    40   19   20 am   BACKBONE|DICT|INTERRES
    41   19  144 1    
    42   20   21 2    
    43   20   22 1    
    44   22   23 1    
    45   22   24 1    
    46   22  145 1    
    47   23  146 1    
    48   23  147 1    
    49   23  148 1    
    50   24   25 am   BACKBONE|DICT|INTERRES
    51   24  149 1    
    52   25   26 2    
    53   25   27 1    
    54   27   28 1    
    55   27   29 1    
    56   27  150 1    
    57   28  151 1    
    58   28  152 1    
    59   28  153 1    
    60   29   30 am   BACKBONE|DICT|INTERRES
    61   29  154 1    
    62   30   31 2    
    63   30   32 1    
    64   32   33 1    
    65   32   34 1    
    66   32  155 1    
    67   33  156 1    
    68   33  157 1    
    69   33  158 1    
    70   34   35 am   BACKBONE|DICT|INTERRES
    71   34  159 1    
    72   35   36 2    
    73   35   37 1    
    74   37   38 1    
    75   37   39 1    
    76   37  160 1    
    77   38  161 1    
    78   38  162 1    
    79   38  163 1    
    80   39   40 am   BACKBONE|DICT|INTERRES
    81   39  164 1    
    82   40   41 2    
    83   40   42 1    
    84   42   43 1    
    85   42   44 1    
    86   42  165 1    
    87   43  166 1    
    88   43  167 1    
    89   43  168 1    
    90   44   45 am   BACKBONE|DICT|INTERRES
    91   44  169 1    
    92   45   46 2    
    93   45   47 1    
    94   47   48 1    
    95   47   49 1    
    96   47  170 1    
    97   48  171 1    
    98   48  172 1    
    99   48  173 1    
   100   49   50 am   BACKBONE|DICT|INTERRES
   101   49  174 1    
   102   50   51 2    
   103   50   52 1    
   104   52   53 1    
   105   52   54 1    
   106   52  175 1    
   107   53  176 1    
   108   53  177 1    
   109   53  178 1    
   110   54   55 am   BACKBONE|DICT|INTERRES
   111   54  179 1    
   112   55   56 2    
   113   55   57 1    
   114   57   58 1    
   115   57   59 1    
   116   57  180 1    
   117   58  181 1    
   118   58  182 1    
   119   58  183 1    
   120   59   60 am   BACKBONE|DICT|INTERRES
   121   59  184 1    
   122   60   61 2    
   123   60   62 1    
   124   62   63 1    
   125   62   64 1    
   126   62  185 1    
   127   63  186 1    
   128   63  187 1    
   129   63  188 1    
   130   64   65 am   BACKBONE|DICT|INTERRES
   131   64  189 1    
   132   65   66 2    
   133   67   68 2    
   134   67   69 am   BACKBONE|DICT|INTERRES
   135   69   70 1    
   136   69  190 1    
   137   70   71 1    
   138   70   72 1    
   139   70  191 1    
   140   71  192 1    
   141   71  193 1    
   142   71  194 1    
   143   72   73 2    
   144   72   74 am   BACKBONE|DICT|INTERRES
   145   74   75 1    
   146   74  195 1    
   147   75   76 1    
   148   75   77 1    
   149   75  196 1    
   150   76  197 1    
   151   76  198 1    
   152   76  199 1    
   153   77   78 2    
   154   77   79 am   BACKBONE|DICT|INTERRES
   155   79   80 1    
   156   79  200 1    
   157   80   81 1    
   158   80   82 1    
   159   80  201 1    
   160   81  202 1    
   161   81  203 1    
   162   81  204 1    
   163   82   83 2    
   164   82   84 am   BACKBONE|DICT|INTERRES
   165   84   85 1    
   166   84  205 1    
   167   85   86 1    
   168   85   87 1    
   169   85  206 1    
   170   86  207 1    
   171   86  208 1    
   172   86  209 1    
   173   87   88 2    
   174   87   89 am   BACKBONE|DICT|INTERRES
   175   89   90 1    
   176   89  210 1    
   177   90   91 1    
   178   90   92 1    
   179   90  211 1    
   180   91  212 1    
   181   91  213 1    
   182   91  214 1    
   183   92   93 2    
   184   92   94 am   BACKBONE|DICT|INTERRES
   185   94   95 1    
   186   94  215 1    
   187   95   96 1    
   188   95   97 1    
   189   95  216 1    
   190   96  217 1    
   191   96  218 1    
   192   96  219 1    
   193   97   98 2    
   194   97   99 am   BACKBONE|DICT|INTERRES
   195   99  100 1    
   196   99  220 1    
   197  100  101 1    
   198  100  102 1    
   199  100  221 1    
   200  101  222 1    
   201  101  223 1    
   202  101  224 1    
   203  102  103 2    
   204  102  104 am   BACKBONE|DICT|INTERRES
   205  104  105 1    
   206  104  225 1    
   207  105  106 1    
   208  105  107 1    
   209  105  226 1    
   210  106  227 1    
   211  106  228 1    
   212  106  229 1    
   213  107  108 2    
   214  107  109 am   BACKBONE|DICT|INTERRES
   215  109  110 1    
   216  109  230 1    
   217  110  111 1    
   218  110  112 1    
   219  110  231 1    
   220  111  232 1    
   221  111  233 1    
   222  111  234 1    
   223  112  113 2    
   224  112  114 am   BACKBONE|DICT|INTERRES
   225  114  115 1    
   226  114  235 1    
   227  115  116 1    
   228  115  117 1    
   229  115  236 1    
   230  116  237 1    
   231  116  238 1    
   232  116  239 1    
   233  117  118 2    
   234  117  119 am   BACKBONE|DICT|INTERRES
   235  119  120 1    
   236  119  240 1    
   237  120  121 1    
   238  120  124 1    
   239  120  241 1    
   240  121  122 am   BACKBONE|DICT|INTERRES
   241  121  123 2    
   242  122  242 1    
   243  122  243 1    
   244  124  125 1    
   245  124  244 1    
   246  124  245 1    
   247  125  126 1    
   248  126  246 1    
   249  126  247 1    
@<TRIPOS>SUBSTRUCTURE
     1 UNK         1 GROUP             0       ****    0 ROOT    
