@<TRIPOS>MOLECULE
3R540
247   249    1
SMALL
USER_CHARGES


@<TRIPOS>ATOM
      1 CA          0.7537  -12.3754  -51.3252 C.3       0 UNK        -0.1800 
      2 C           1.2241  -13.5762  -50.5164 C.2       0 UNK         0.5000 
      3 O           1.7936  -13.3925  -49.4414 O.2       0 UNK        -0.5000 
      4 N           0.9737  -14.7873  -51.0377 N.am      1 UNK        -0.5000 
      5 CA          1.3251  -16.1058  -50.4903 C.3       1 UNK         0.1400 
      6 C6          0.2576  -16.6851  -49.5121 C.3       23 UNK        -0.0398 
      7 S7          0.0755  -15.8931  -47.8769 S.3       23 UNK        -0.2404 
      8 C8         -1.2855  -14.7181  -48.1466 C.3       23 UNK        -0.0205 
      9 C9         -2.6562  -15.3395  -47.9271 C.ar      23 UNK        -0.0193 
     10 C10        -3.4164  -15.7795  -49.0159 C.ar      23 UNK        -0.1150 
     11 C11        -4.7150  -16.2601  -48.8243 C.ar      23 UNK        -0.0193 
     12 C12        -5.2440  -16.3135  -47.5324 C.ar      23 UNK        -0.1150 
     13 C13        -4.4892  -15.8932  -46.4330 C.ar      23 UNK        -0.0193 
     14 C14        -3.1942  -15.4075  -46.6373 C.ar      23 UNK        -0.1150 
     15 C15        -5.0905  -15.9362  -45.0327 C.3       23 UNK        -0.0205 
     16 S16        -4.4931  -17.3474  -44.0441 S.3       23 UNK        -0.2404 
     17 C17        -4.8913  -18.7582  -45.1320 C.3       23 UNK        -0.0398 
     18 CA         -3.6131  -19.2397  -45.8648 C.3       11 UNK         0.1400 
     19 N          -2.6841  -19.9100  -44.9426 N.am      11 UNK        -0.5000 
     20 C          -2.7275  -21.1678  -44.4745 C.2       10 UNK         0.5000 
     21 O          -3.4790  -22.0443  -44.8990 O.2       10 UNK        -0.5000 
     22 CA         -1.7982  -21.4917  -43.2902 C.3       10 UNK         0.1400 
     23 CB         -0.4148  -21.9554  -43.7683 C.3       10 UNK        -0.1800 
     24 N          -1.6488  -20.3556  -42.3795 N.am      10 UNK        -0.5000 
     25 C          -2.6139  -19.9164  -41.5575 C.2       9 UNK         0.5000 
     26 O          -3.7122  -20.4648  -41.4472 O.2       9 UNK        -0.5000 
     27 CA         -2.2936  -18.6532  -40.7322 C.3       9 UNK         0.1400 
     28 CB         -3.2593  -18.4336  -39.5493 C.3       9 UNK        -0.1800 
     29 N          -0.8985  -18.5988  -40.2879 N.am      9 UNK        -0.5000 
     30 C          -0.2568  -19.4479  -39.4706 C.2       8 UNK         0.5000 
     31 O          -0.7948  -20.4114  -38.9236 O.2       8 UNK        -0.5000 
     32 CA          1.2476  -19.1951  -39.2280 C.3       8 UNK         0.1400 
     33 CB          2.0870  -20.3075  -39.8762 C.3       8 UNK        -0.1800 
     34 N           1.7129  -17.9002  -39.7318 N.am      8 UNK        -0.5000 
     35 C           1.4652  -16.7161  -39.1552 C.2       7 UNK         0.5000 
     36 O           0.8892  -16.5892  -38.0744 O.2       7 UNK        -0.5000 
     37 CA          1.8893  -15.4615  -39.9437 C.3       7 UNK         0.1400 
     38 CB          3.3462  -15.0879  -39.6327 C.3       7 UNK        -0.1800 
     39 N           1.7182  -15.6108  -41.3921 N.am      7 UNK        -0.5000 
     40 C           0.5379  -15.7740  -42.0097 C.2       6 UNK         0.5000 
     41 O          -0.5438  -15.7825  -41.4239 O.2       6 UNK        -0.5000 
     42 CA          0.5746  -16.0237  -43.5272 C.3       6 UNK         0.1400 
     43 CB          0.7919  -14.7020  -44.2794 C.3       6 UNK        -0.1800 
     44 N           1.6126  -16.9865  -43.8957 N.am      6 UNK        -0.5000 
     45 C           1.6288  -18.2767  -43.5321 C.2       5 UNK         0.5000 
     46 O           0.7046  -18.8254  -42.9320 O.2       5 UNK        -0.5000 
     47 CA          2.9116  -19.0745  -43.8355 C.3       5 UNK         0.1400 
     48 CB          2.8819  -19.7012  -45.2337 C.3       5 UNK        -0.1800 
     49 N           4.1108  -18.2499  -43.7163 N.am      5 UNK        -0.5000 
     50 C           4.6416  -17.8500  -42.5546 C.2       4 UNK         0.5000 
     51 O           4.1793  -18.1471  -41.4536 O.2       4 UNK        -0.5000 
     52 CA          5.8768  -16.9364  -42.6476 C.3       4 UNK         0.1400 
     53 CB          7.1575  -17.7705  -42.7996 C.3       4 UNK        -0.1800 
     54 N           5.7837  -15.9822  -43.7551 N.am      4 UNK        -0.5000 
     55 C           4.9096  -14.9678  -43.7942 C.2       3 UNK         0.5000 
     56 O           4.1070  -14.7248  -42.8930 O.2       3 UNK        -0.5000 
     57 CA          4.9052  -14.1043  -45.0688 C.3       3 UNK         0.1400 
     58 CB          6.0008  -13.0301  -44.9963 C.3       3 UNK        -0.1800 
     59 N           5.0498  -14.8647  -46.3158 N.am      3 UNK        -0.5000 
     60 C           4.1930  -15.8036  -46.7376 C.2       2 UNK         0.5000 
     61 O           3.2621  -16.2362  -46.0570 O.2       2 UNK        -0.5000 
     62 CA          4.3979  -16.3589  -48.1510 C.3       2 UNK         0.1400 
     63 CB          5.0652  -17.7431  -48.1216 C.3       2 UNK        -0.1800 
     64 N           3.0813  -16.4495  -48.7713 N.am      2 UNK        -0.5000 
     65 C           2.8110  -16.1957  -50.0546 C.2       1 UNK         0.5000 
     66 O           3.6861  -16.0164  -50.9051 O.2       1 UNK        -0.5000 
     67 C          -3.9035  -20.0450  -47.1487 C.2       11 UNK         0.5000 
     68 O          -3.1312  -19.9522  -48.1036 O.2       11 UNK        -0.5000 
     69 N          -4.9605  -20.8694  -47.1424 N.am      12 UNK        -0.5000 
     70 CA         -5.3033  -21.7891  -48.2306 C.3       12 UNK         0.1400 
     71 CB         -6.6302  -22.4877  -47.9013 C.3       12 UNK        -0.1800 
     72 C          -4.2057  -22.8284  -48.5405 C.2       12 UNK         0.5000 
     73 O          -4.1520  -23.3166  -49.6665 O.2       12 UNK        -0.5000 
     74 N          -3.3453  -23.1313  -47.5599 N.am      13 UNK        -0.5000 
     75 CA         -2.1538  -23.9647  -47.7189 C.3       13 UNK         0.1400 
     76 CB         -2.0355  -24.8842  -46.4927 C.3       13 UNK        -0.1800 
     77 C          -0.8654  -23.1344  -47.9082 C.2       13 UNK         0.5000 
     78 O           0.1767  -23.7203  -48.2029 O.2       13 UNK        -0.5000 
     79 N          -0.9328  -21.8056  -47.7303 N.am      14 UNK        -0.5000 
     80 CA          0.1928  -20.8888  -47.9301 C.3       14 UNK         0.1400 
     81 CB         -0.0141  -19.6046  -47.1078 C.3       14 UNK        -0.1800 
     82 C           0.3708  -20.5213  -49.4101 C.2       14 UNK         0.5000 
     83 O           1.5050  -20.3870  -49.8704 O.2       14 UNK        -0.5000 
     84 N          -0.7525  -20.3207  -50.1134 N.am      15 UNK        -0.5000 
     85 CA         -0.8023  -19.9591  -51.5292 C.3       15 UNK         0.1400 
     86 CB         -2.2583  -19.6497  -51.9035 C.3       15 UNK        -0.1800 
     87 C          -0.2126  -21.0590  -52.4341 C.2       15 UNK         0.5000 
     88 O          -0.4001  -22.2452  -52.1563 O.2       15 UNK        -0.5000 
     89 N           0.4890  -20.6475  -53.4988 N.am      16 UNK        -0.5000 
     90 CA          1.1757  -21.5302  -54.4452 C.3       16 UNK         0.1400 
     91 CB          1.9825  -20.6778  -55.4374 C.3       16 UNK        -0.1800 
     92 C           0.1954  -22.4594  -55.1848 C.2       16 UNK         0.5000 
     93 O          -0.7010  -21.9643  -55.8656 O.2       16 UNK        -0.5000 
     94 N           0.3838  -23.7747  -55.0102 N.am      17 UNK        -0.5000 
     95 CA         -0.4595  -24.8902  -55.4700 C.3       17 UNK         0.1400 
     96 CB         -0.7870  -24.8047  -56.9759 C.3       17 UNK        -0.1800 
     97 C          -1.7196  -25.1364  -54.6090 C.2       17 UNK         0.5000 
     98 O          -2.4133  -26.1253  -54.8517 O.2       17 UNK        -0.5000 
     99 N          -1.9455  -24.2935  -53.5891 N.am      18 UNK        -0.5000 
    100 CA        -2.9638  -24.3745  -52.5362 C.3       18 UNK         0.1400 
    101 CB        -2.7143  -25.6262  -51.6658 C.3       18 UNK        -0.1800 
    102 C         -4.4317  -24.2964  -53.0138 C.2       18 UNK         0.5000 
    103 O         -4.7177  -24.2681  -54.2130 O.2       18 UNK        -0.5000 
    104 N         -5.3401  -24.2458  -52.0290 N.am      19 UNK        -0.5000 
    105 CA        -6.8011  -24.2920  -52.1240 C.3       19 UNK         0.1400 
    106 CB        -7.2601  -25.7146  -52.5127 C.3       19 UNK        -0.1800 
    107 C         -7.3651  -23.1875  -53.0369 C.2       19 UNK         0.5000 
    108 O         -7.4455  -22.0332  -52.6124 O.2       19 UNK        -0.5000 
    109 N         -7.7027  -23.5513  -54.2826 N.am      20 UNK        -0.5000 
    110 CA        -8.1951  -22.6698  -55.3446 C.3       20 UNK         0.1400 
    111 CB        -8.5159  -23.5185  -56.5840 C.3       20 UNK        -0.1800 
    112 C         -7.2365  -21.5190  -55.7119 C.2       20 UNK         0.5000 
    113 O         -7.6868  -20.5197  -56.2729 O.2       20 UNK        -0.5000 
    114 N         -5.9522  -21.6459  -55.3481 N.am      21 UNK        -0.5000 
    115 CA        -4.9290  -20.6034  -55.4439 C.3       21 UNK         0.1400 
    116 CB        -3.6013  -21.1787  -54.9413 C.3       21 UNK        -0.1800 
    117 C         -5.2707  -19.3046  -54.6813 C.2       21 UNK         0.5000 
    118 O         -4.8183  -18.2352  -55.0914 O.2       21 UNK        -0.5000 
    119 N         -6.0801  -19.4091  -53.6173 N.am      22 UNK        -0.5000 
    120 CA        -6.6772  -18.2626  -52.9122 C.3       22 UNK         0.1400 
    121 C         -7.9181  -17.6437  -53.6273 C.2       22 UNK         0.5000 
    122 N         -8.4118  -18.1815  -54.7363 N.am      22 UNK        -0.7600 
    123 O         -8.4413  -16.6303  -53.1718 O.2       22 UNK        -0.5000 
    124 C124       -6.9874  -18.5999  -51.4279 C.3       23 UNK        -0.0398 
    125 S125       -5.5222  -18.4429  -50.3527 S.3       23 UNK        -0.2404 
    126 C126       -5.5802  -16.6551  -50.0108 C.3       23 UNK        -0.0205 
    127 H127        0.2611  -12.6747  -52.2507 H         1 UNK         0.0600 
    128 H128        1.6019  -11.7405  -51.5816 H         1 UNK         0.0600 
    129 H129        0.0483  -11.7842  -50.7412 H         1 UNK         0.0600 
    130 H130        0.5241  -14.8220  -51.9415 H         1 UNK         0.3000 
    131 H131        1.2833  -16.7609  -51.3621 H         1 UNK         0.0600 
    132 H132        0.4913  -17.7304  -49.3272 H         1 UNK         0.0800 
    133 H133       -0.7162  -16.6991  -50.0021 H         1 UNK         0.0800 
    134 H134       -1.1555  -13.8818  -47.4583 H         1 UNK         0.0800 
    135 H135       -1.2204  -14.2916  -49.1473 H         1 UNK         0.0800 
    136 H136       -3.0121  -15.7155  -50.0161 H         1 UNK         0.1150 
    137 H137       -6.2535  -16.6716  -47.3869 H         1 UNK         0.1150 
    138 H138       -2.6110  -15.0652  -45.7937 H         1 UNK         0.1150 
    139 H139       -4.8487  -15.0116  -44.5067 H         1 UNK         0.0800 
    140 H140       -6.1796  -15.9761  -45.0863 H         1 UNK         0.0800 
    141 H141       -5.6763  -18.4639  -45.8292 H         1 UNK         0.0800 
    142 H142       -5.3152  -19.5575  -44.5221 H         1 UNK         0.0800 
    143 H143       -3.0795  -18.3561  -46.2186 H         1 UNK         0.0600 
    144 H144       -2.0106  -19.2948  -44.5104 H         1 UNK         0.3000 
    145 H145       -2.2519  -22.3165  -42.7365 H         1 UNK         0.0600 
    146 H146        0.1882  -22.3104  -42.9325 H         1 UNK         0.0600 
    147 H147       -0.4945  -22.7739  -44.4837 H         1 UNK         0.0600 
    148 H148        0.1345  -21.1508  -44.2507 H         1 UNK         0.0600 
    149 H149       -0.7734  -19.8380  -42.4295 H         1 UNK         0.3000 
    150 H150       -2.4238  -17.8139  -41.4166 H         1 UNK         0.0600 
    151 H151       -4.2863  -18.3252  -39.8998 H         1 UNK         0.0600 
    152 H152       -3.0079  -17.5261  -39.0002 H         1 UNK         0.0600 
    153 H153       -3.2397  -19.2679  -38.8477 H         1 UNK         0.0600 
    154 H154       -0.3590  -17.8419  -40.6884 H         1 UNK         0.3000 
    155 H155        1.4150  -19.2266  -38.1496 H         1 UNK         0.0600 
    156 H156        1.9365  -20.3463  -40.9549 H         1 UNK         0.0600 
    157 H157        1.8196  -21.2853  -39.4738 H         1 UNK         0.0600 
    158 H158        3.1510  -20.1603  -39.6901 H         1 UNK         0.0600 
    159 H159        2.2616  -17.9178  -40.5839 H         1 UNK         0.3000 
    160 H160        1.2517  -14.6371  -39.6181 H         1 UNK         0.0600 
    161 H161        4.0400  -15.8628  -39.9587 H         1 UNK         0.0600 
    162 H162        3.4929  -14.9448  -38.5615 H         1 UNK         0.0600 
    163 H163        3.6283  -14.1578  -40.1266 H         1 UNK         0.0600 
    164 H164        2.5611  -15.5576  -41.9563 H         1 UNK         0.3000 
    165 H165       -0.3894  -16.4374  -43.8312 H         1 UNK         0.0600 
    166 H166        0.8554  -14.8608  -45.3535 H         1 UNK         0.0600 
    167 H167       -0.0338  -14.0127  -44.1000 H         1 UNK         0.0600 
    168 H168        1.7090  -14.2027  -43.9683 H         1 UNK         0.0600 
    169 H169        2.3695  -16.6368  -44.4779 H         1 UNK         0.3000 
    170 H170        2.9790  -19.8859  -43.1082 H         1 UNK         0.0600 
    171 H171        2.0622  -20.4111  -45.3273 H         1 UNK         0.0600 
    172 H172        2.7661  -18.9432  -46.0070 H         1 UNK         0.0600 
    173 H173        3.8014  -20.2493  -45.4397 H         1 UNK         0.0600 
    174 H174        4.5152  -17.9097  -44.5759 H         1 UNK         0.3000 
    175 H175        5.9452  -16.3731  -41.7144 H         1 UNK         0.0600 
    176 H176        7.1601  -18.3419  -43.7287 H         1 UNK         0.0600 
    177 H177        8.0440  -17.1362  -42.7926 H         1 UNK         0.0600 
    178 H178        7.2602  -18.4799  -41.9773 H         1 UNK         0.0600 
    179 H179        6.4075  -16.1171  -44.5371 H         1 UNK         0.3000 
    180 H180        3.9393  -13.5965  -45.1097 H         1 UNK         0.0600 
    181 H181        6.9987  -13.4703  -44.9998 H         1 UNK         0.0600 
    182 H182        5.9067  -12.4368  -44.0857 H         1 UNK         0.0600 
    183 H183        5.9342  -12.3411  -45.8385 H         1 UNK         0.0600 
    184 H184        5.7985  -14.5762  -46.9291 H         1 UNK         0.3000 
    185 H185        5.0282  -15.6644  -48.7106 H         1 UNK         0.0600 
    186 H186        4.4550  -18.4756  -47.5939 H         1 UNK         0.0600 
    187 H187        5.2328  -18.1178  -49.1315 H         1 UNK         0.0600 
    188 H188        6.0349  -17.7002  -47.6246 H         1 UNK         0.0600 
    189 H189        2.3137  -16.5036  -48.1102 H         1 UNK         0.3000 
    190 H190       -5.5083  -20.9537  -46.2990 H         1 UNK         0.3000 
    191 H191       -5.4463  -21.1957  -49.1354 H         1 UNK         0.0600 
    192 H192       -7.4354  -21.7641  -47.7729 H         1 UNK         0.0600 
    193 H193       -6.9271  -23.1622  -48.7054 H         1 UNK         0.0600 
    194 H194       -6.5570  -23.0779  -46.9869 H         1 UNK         0.0600 
    195 H195       -3.4833  -22.7130  -46.6422 H         1 UNK         0.3000 
    196 H196       -2.2551  -24.5991  -48.6018 H         1 UNK         0.0600 
    197 H197       -1.1591  -25.5294  -46.5658 H         1 UNK         0.0600 
    198 H198       -2.9076  -25.5323  -46.4048 H         1 UNK         0.0600 
    199 H199       -1.9502  -24.3153  -45.5672 H         1 UNK         0.0600 
    200 H200       -1.8379  -21.3751  -47.5843 H         1 UNK         0.3000 
    201 H201        1.1111  -21.3678  -47.5837 H         1 UNK         0.0600 
    202 H202       -0.1402  -19.8162  -46.0495 H         1 UNK         0.0600 
    203 H203       -0.8798  -19.0334  -47.4389 H         1 UNK         0.0600 
    204 H204        0.8444  -18.9417  -47.2063 H         1 UNK         0.0600 
    205 H205       -1.6412  -20.4163  -49.6369 H         1 UNK         0.3000 
    206 H206       -0.2129  -19.0496  -51.6591 H         1 UNK         0.0600 
    207 H207       -2.3398  -19.3385  -52.9449 H         1 UNK         0.0600 
    208 H208       -2.9048  -20.5165  -51.7596 H         1 UNK         0.0600 
    209 H209       -2.6530  -18.8364  -51.2942 H         1 UNK         0.0600 
    210 H210        0.5672  -19.6584  -53.6824 H         1 UNK         0.3000 
    211 H211        1.8805  -22.1397  -53.8756 H         1 UNK         0.0600 
    212 H212        1.3391  -20.0088  -56.0104 H         1 UNK         0.0600 
    213 H213        2.5158  -21.3090  -56.1495 H         1 UNK         0.0600 
    214 H214        2.7265  -20.0697  -54.9227 H         1 UNK         0.0600 
    215 H215        1.1514  -24.0567  -54.4157 H         1 UNK         0.3000 
    216 H216        0.1580  -25.7794  -55.3347 H         1 UNK         0.0600 
    217 H217       -1.2134  -25.7430  -57.3322 H         1 UNK         0.0600 
    218 H218        0.1075  -24.6099  -57.5672 H         1 UNK         0.0600 
    219 H219       -1.5146  -24.0222  -57.1919 H         1 UNK         0.0600 
    220 H220       -1.2933  -23.5274  -53.4644 H         1 UNK         0.3000 
    221 H221       -2.7991  -23.4947  -51.9136 H         1 UNK         0.0600 
    222 H222       -1.6873  -25.6505  -51.3010 H         1 UNK         0.0600 
    223 H223       -3.3620  -25.6450  -50.7894 H         1 UNK         0.0600 
    224 H224       -2.8960  -26.5476  -52.2196 H         1 UNK         0.0600 
    225 H225       -4.9763  -24.1257  -51.0852 H         1 UNK         0.3000 
    226 H226       -7.1836  -24.0851  -51.1236 H         1 UNK         0.0600 
    227 H227       -6.9557  -26.4380  -51.7562 H         1 UNK         0.0600 
    228 H228       -8.3467  -25.7708  -52.5905 H         1 UNK         0.0600 
    229 H229       -6.8390  -26.0419  -53.4639 H         1 UNK         0.0600 
    230 H230       -7.5481  -24.5143  -54.5438 H         1 UNK         0.3000 
    231 H231       -9.1216  -22.2149  -54.9891 H         1 UNK         0.0600 
    232 H232       -7.6269  -24.0221  -56.9660 H         1 UNK         0.0600 
    233 H233       -8.9152  -22.9006  -57.3895 H         1 UNK         0.0600 
    234 H234       -9.2638  -24.2792  -56.3596 H         1 UNK         0.0600 
    235 H235       -5.6641  -22.5189  -54.9186 H         1 UNK         0.3000 
    236 H236       -4.8178  -20.3478  -56.4994 H         1 UNK         0.0600 
    237 H237       -3.3252  -22.0722  -55.5014 H         1 UNK         0.0600 
    238 H238       -2.7934  -20.4562  -55.0597 H         1 UNK         0.0600 
    239 H239       -3.6530  -21.4505  -53.8872 H         1 UNK         0.0600 
    240 H240       -6.4226  -20.3244  -53.3470 H         1 UNK         0.3000 
    241 H241       -5.9434  -17.4546  -52.9169 H         1 UNK         0.0600 
    242 H242       -9.2091  -17.7471  -55.1732 H         1 UNK         0.3800 
    243 H243       -8.0016  -19.0039  -55.1677 H         1 UNK         0.3800 
    244 H244       -7.3783  -19.6144  -51.3398 H         1 UNK         0.0800 
    245 H245       -7.7686  -17.9592  -51.0156 H         1 UNK         0.0800 
    246 H246       -6.6088  -16.3489  -49.8147 H         1 UNK         0.0800 
    247 H247       -5.2672  -16.1099  -50.9024 H         1 UNK         0.0800 
@<TRIPOS>BOND
     1    1    2 1    
     2    1  127 1    
     3    1  128 1    
     4    1  129 1    
     5    2    3 2    
     6    2    4 am   BACKBONE|DICT|INTERRES
     7    4    5 1    
     8    4  130 1    
     9    5    6 1    
    10    5   65 1    
    11    5  131 1    
    12    6    7 1    
    13    6  132 1    
    14    6  133 1    
    15    7    8 1    
    16    8    9 1    
    17    8  134 1    
    18    8  135 1    
    19    9   10 ar   
    20    9   14 ar   
    21   10   11 ar   
    22   10  136 1    
    23   11   12 ar   
    24   11  126 1    
    25   12   13 ar   
    26   12  137 1    
    27   13   14 ar   
    28   13   15 1    
    29   14  138 1    
    30   15   16 1    
    31   15  139 1    
    32   15  140 1    
    33   16   17 1    
    34   17   18 1    
    35   17  141 1    
    36   17  142 1    
    37   18   19 1    
    38   18   67 1    
    39   18  143 1    
    40   19   20 am   BACKBONE|DICT|INTERRES
    41   19  144 1    
    42   20   21 2    
    43   20   22 1    
    44   22   23 1    
    45   22   24 1    
    46   22  145 1    
    47   23  146 1    
    48   23  147 1    
    49   23  148 1    
    50   24   25 am   BACKBONE|DICT|INTERRES
    51   24  149 1    
    52   25   26 2    
    53   25   27 1    
    54   27   28 1    
    55   27   29 1    
    56   27  150 1    
    57   28  151 1    
    58   28  152 1    
    59   28  153 1    
    60   29   30 am   BACKBONE|DICT|INTERRES
    61   29  154 1    
    62   30   31 2    
    63   30   32 1    
    64   32   33 1    
    65   32   34 1    
    66   32  155 1    
    67   33  156 1    
    68   33  157 1    
    69   33  158 1    
    70   34   35 am   BACKBONE|DICT|INTERRES
    71   34  159 1    
    72   35   36 2    
    73   35   37 1    
    74   37   38 1    
    75   37   39 1    
    76   37  160 1    
    77   38  161 1    
    78   38  162 1    
    79   38  163 1    
    80   39   40 am   BACKBONE|DICT|INTERRES
    81   39  164 1    
    82   40   41 2    
    83   40   42 1    
    84   42   43 1    
    85   42   44 1    
    86   42  165 1    
    87   43  166 1    
    88   43  167 1    
    89   43  168 1    
    90   44   45 am   BACKBONE|DICT|INTERRES
    91   44  169 1    
    92   45   46 2    
    93   45   47 1    
    94   47   48 1    
    95   47   49 1    
    96   47  170 1    
    97   48  171 1    
    98   48  172 1    
    99   48  173 1    
   100   49   50 am   BACKBONE|DICT|INTERRES
   101   49  174 1    
   102   50   51 2    
   103   50   52 1    
   104   52   53 1    
   105   52   54 1    
   106   52  175 1    
   107   53  176 1    
   108   53  177 1    
   109   53  178 1    
   110   54   55 am   BACKBONE|DICT|INTERRES
   111   54  179 1    
   112   55   56 2    
   113   55   57 1    
   114   57   58 1    
   115   57   59 1    
   116   57  180 1    
   117   58  181 1    
   118   58  182 1    
   119   58  183 1    
   120   59   60 am   BACKBONE|DICT|INTERRES
   121   59  184 1    
   122   60   61 2    
   123   60   62 1    
   124   62   63 1    
   125   62   64 1    
   126   62  185 1    
   127   63  186 1    
   128   63  187 1    
   129   63  188 1    
   130   64   65 am   BACKBONE|DICT|INTERRES
   131   64  189 1    
   132   65   66 2    
   133   67   68 2    
   134   67   69 am   BACKBONE|DICT|INTERRES
   135   69   70 1    
   136   69  190 1    
   137   70   71 1    
   138   70   72 1    
   139   70  191 1    
   140   71  192 1    
   141   71  193 1    
   142   71  194 1    
   143   72   73 2    
   144   72   74 am   BACKBONE|DICT|INTERRES
   145   74   75 1    
   146   74  195 1    
   147   75   76 1    
   148   75   77 1    
   149   75  196 1    
   150   76  197 1    
   151   76  198 1    
   152   76  199 1    
   153   77   78 2    
   154   77   79 am   BACKBONE|DICT|INTERRES
   155   79   80 1    
   156   79  200 1    
   157   80   81 1    
   158   80   82 1    
   159   80  201 1    
   160   81  202 1    
   161   81  203 1    
   162   81  204 1    
   163   82   83 2    
   164   82   84 am   BACKBONE|DICT|INTERRES
   165   84   85 1    
   166   84  205 1    
   167   85   86 1    
   168   85   87 1    
   169   85  206 1    
   170   86  207 1    
   171   86  208 1    
   172   86  209 1    
   173   87   88 2    
   174   87   89 am   BACKBONE|DICT|INTERRES
   175   89   90 1    
   176   89  210 1    
   177   90   91 1    
   178   90   92 1    
   179   90  211 1    
   180   91  212 1    
   181   91  213 1    
   182   91  214 1    
   183   92   93 2    
   184   92   94 am   BACKBONE|DICT|INTERRES
   185   94   95 1    
   186   94  215 1    
   187   95   96 1    
   188   95   97 1    
   189   95  216 1    
   190   96  217 1    
   191   96  218 1    
   192   96  219 1    
   193   97   98 2    
   194   97   99 am   BACKBONE|DICT|INTERRES
   195   99  100 1    
   196   99  220 1    
   197  100  101 1    
   198  100  102 1    
   199  100  221 1    
   200  101  222 1    
   201  101  223 1    
   202  101  224 1    
   203  102  103 2    
   204  102  104 am   BACKBONE|DICT|INTERRES
   205  104  105 1    
   206  104  225 1    
   207  105  106 1    
   208  105  107 1    
   209  105  226 1    
   210  106  227 1    
   211  106  228 1    
   212  106  229 1    
   213  107  108 2    
   214  107  109 am   BACKBONE|DICT|INTERRES
   215  109  110 1    
   216  109  230 1    
   217  110  111 1    
   218  110  112 1    
   219  110  231 1    
   220  111  232 1    
   221  111  233 1    
   222  111  234 1    
   223  112  113 2    
   224  112  114 am   BACKBONE|DICT|INTERRES
   225  114  115 1    
   226  114  235 1    
   227  115  116 1    
   228  115  117 1    
   229  115  236 1    
   230  116  237 1    
   231  116  238 1    
   232  116  239 1    
   233  117  118 2    
   234  117  119 am   BACKBONE|DICT|INTERRES
   235  119  120 1    
   236  119  240 1    
   237  120  121 1    
   238  120  124 1    
   239  120  241 1    
   240  121  122 am   BACKBONE|DICT|INTERRES
   241  121  123 2    
   242  122  242 1    
   243  122  243 1    
   244  124  125 1    
   245  124  244 1    
   246  124  245 1    
   247  125  126 1    
   248  126  246 1    
   249  126  247 1    
@<TRIPOS>SUBSTRUCTURE
     1 UNK         1 GROUP             0       ****    0 ROOT    
