@<TRIPOS>MOLECULE
3R540
247   249    1
SMALL
USER_CHARGES


@<TRIPOS>ATOM
      1 CA          0.1847  -13.5126  -53.5034 C.3       0 UNK        -0.1800 
      2 C          -0.4136  -12.6087  -52.4359 C.2       0 UNK         0.5000 
      3 O          -0.8911  -11.5180  -52.7490 O.2       0 UNK        -0.5000 
      4 N          -0.3839  -13.0569  -51.1766 N.am      1 UNK        -0.5000 
      5 CA         -0.9879  -12.3867  -50.0233 C.3       1 UNK         0.1400 
      6 C6         -0.4668  -12.9623  -48.6787 C.3       23 UNK        -0.0398 
      7 S7         -0.4740  -14.7924  -48.6024 S.3       23 UNK        -0.2404 
      8 C8          1.3064  -15.1503  -48.5258 C.3       23 UNK        -0.0205 
      9 C9          1.6336  -16.4786  -49.1847 C.ar      23 UNK        -0.0193 
     10 C10         1.9088  -16.5234  -50.5546 C.ar      23 UNK        -0.1150 
     11 C11         2.2487  -17.7294  -51.1721 C.ar      23 UNK        -0.0193 
     12 C12         2.3262  -18.8931  -50.4024 C.ar      23 UNK        -0.1150 
     13 C13         2.0592  -18.8622  -49.0293 C.ar      23 UNK        -0.0193 
     14 C14         1.6985  -17.6527  -48.4280 C.ar      23 UNK        -0.1150 
     15 C15         2.2186  -20.1265  -48.1961 C.3       23 UNK        -0.0205 
     16 S16         1.1005  -21.4542  -48.7426 S.3       23 UNK        -0.2404 
     17 C17        -0.3115  -21.3119  -47.5959 C.3       23 UNK        -0.0398 
     18 CA         -0.4999  -22.6264  -46.8078 C.3       11 UNK         0.1400 
     19 N           0.6407  -22.9516  -45.9471 N.am      11 UNK        -0.5000 
     20 C           0.9324  -24.1967  -45.5480 C.2       10 UNK         0.5000 
     21 O           0.2695  -25.1865  -45.8568 O.2       10 UNK        -0.5000 
     22 CA          2.1387  -24.3480  -44.6059 C.3       10 UNK         0.1400 
     23 CB          3.4548  -24.3190  -45.3978 C.3       10 UNK        -0.1800 
     24 N           2.1787  -23.3213  -43.5623 N.am      10 UNK        -0.5000 
     25 C           1.2465  -23.1516  -42.6146 C.2       9 UNK         0.5000 
     26 O           0.2129  -23.8188  -42.5664 O.2       9 UNK        -0.5000 
     27 CA          1.4618  -22.0302  -41.5764 C.3       9 UNK         0.1400 
     28 CB          1.2399  -22.5338  -40.1364 C.3       9 UNK        -0.1800 
     29 N           2.7327  -21.3022  -41.6906 N.am      9 UNK        -0.5000 
     30 C           3.9791  -21.7550  -41.4744 C.2       8 UNK         0.5000 
     31 O           4.2458  -22.9230  -41.1926 O.2       8 UNK        -0.5000 
     32 CA          5.1310  -20.7372  -41.6198 C.3       8 UNK         0.1400 
     33 CB          5.8132  -20.9001  -42.9874 C.3       8 UNK        -0.1800 
     34 N           4.7014  -19.3448  -41.4723 N.am      8 UNK        -0.5000 
     35 C           4.2582  -18.7921  -40.3342 C.2       7 UNK         0.5000 
     36 O           4.2713  -19.3702  -39.2468 O.2       7 UNK        -0.5000 
     37 CA          3.6769  -17.3650  -40.4239 C.3       7 UNK         0.1400 
     38 CB          4.6921  -16.3406  -39.8933 C.3       7 UNK        -0.1800 
     39 N           3.2409  -16.9476  -41.7638 N.am      7 UNK        -0.5000 
     40 C           2.2991  -17.5439  -42.5073 C.2       6 UNK         0.5000 
     41 O           1.7334  -18.5948  -42.1908 O.2       6 UNK        -0.5000 
     42 CA          1.9630  -16.8716  -43.8456 C.3       6 UNK         0.1400 
     43 CB          3.0769  -17.1100  -44.8800 C.3       6 UNK        -0.1800 
     44 N           0.7087  -17.4260  -44.3443 N.am      6 UNK        -0.5000 
     45 C          -0.2570  -16.7383  -44.9578 C.2       5 UNK         0.5000 
     46 O          -0.1842  -15.5373  -45.2292 O.2       5 UNK        -0.5000 
     47 CA         -1.5265  -17.5278  -45.3060 C.3       5 UNK         0.1400 
     48 CB         -2.4039  -17.7428  -44.0578 C.3       5 UNK        -0.1800 
     49 N          -2.2669  -16.7995  -46.3286 N.am      5 UNK        -0.5000 
     50 C          -3.2342  -17.2998  -47.1045 C.2       4 UNK         0.5000 
     51 O          -3.6266  -18.4648  -47.0289 O.2       4 UNK        -0.5000 
     52 CA         -3.8494  -16.3323  -48.1425 C.3       4 UNK         0.1400 
     53 CB         -5.1679  -16.8443  -48.7522 C.3       4 UNK        -0.1800 
     54 N          -4.0169  -14.9667  -47.6385 N.am      4 UNK        -0.5000 
     55 C          -4.7278  -14.5710  -46.5702 C.2       3 UNK         0.5000 
     56 O          -5.3632  -15.3318  -45.8400 O.2       3 UNK        -0.5000 
     57 CA         -4.7221  -13.0619  -46.2542 C.3       3 UNK         0.1400 
     58 CB         -3.7025  -12.7597  -45.1445 C.3       3 UNK        -0.1800 
     59 N          -4.4116  -12.2289  -47.4176 N.am      3 UNK        -0.5000 
     60 C          -5.2257  -12.0309  -48.4651 C.2       2 UNK         0.5000 
     61 O          -6.3751  -12.4670  -48.5316 O.2       2 UNK        -0.5000 
     62 CA         -4.6450  -11.2272  -49.6462 C.3       2 UNK         0.1400 
     63 CB         -5.0399   -9.7466  -49.5370 C.3       2 UNK        -0.1800 
     64 N          -3.1847  -11.3295  -49.7439 N.am      2 UNK        -0.5000 
     65 C          -2.5276  -12.4447  -50.0911 C.2       1 UNK         0.5000 
     66 O          -3.0883  -13.4991  -50.3968 O.2       1 UNK        -0.5000 
     67 C          -1.8282  -22.6382  -46.0294 C.2       11 UNK         0.5000 
     68 O          -2.8583  -22.9630  -46.6172 O.2       11 UNK        -0.5000 
     69 N          -1.7880  -22.3472  -44.7205 N.am      12 UNK        -0.5000 
     70 CA         -2.9414  -22.4640  -43.8249 C.3       12 UNK         0.1400 
     71 CB         -2.6411  -21.7726  -42.4864 C.3       12 UNK        -0.1800 
     72 C          -3.3509  -23.9348  -43.6205 C.2       12 UNK         0.5000 
     73 O          -4.5391  -24.2497  -43.6864 O.2       12 UNK        -0.5000 
     74 N          -2.3557  -24.8195  -43.4576 N.am      13 UNK        -0.5000 
     75 CA         -2.5232  -26.2750  -43.4085 C.3       13 UNK         0.1400 
     76 CB         -1.1912  -26.9246  -43.0047 C.3       13 UNK        -0.1800 
     77 C          -3.0460  -26.8721  -44.7322 C.2       13 UNK         0.5000 
     78 O          -3.7583  -27.8757  -44.7054 O.2       13 UNK        -0.5000 
     79 N          -2.7294  -26.2168  -45.8579 N.am      14 UNK        -0.5000 
     80 CA         -3.2468  -26.5154  -47.1966 C.3       14 UNK         0.1400 
     81 CB         -2.2223  -26.0474  -48.2440 C.3       14 UNK        -0.1800 
     82 C          -4.6375  -25.8962  -47.4680 C.2       14 UNK         0.5000 
     83 O          -5.0916  -25.9242  -48.6128 O.2       14 UNK        -0.5000 
     84 N          -5.2845  -25.3380  -46.4326 N.am      15 UNK        -0.5000 
     85 CA         -6.6122  -24.7160  -46.4393 C.3       15 UNK         0.1400 
     86 CB         -7.7068  -25.7546  -46.7641 C.3       15 UNK        -0.1800 
     87 C          -6.6869  -23.4560  -47.3252 C.2       15 UNK         0.5000 
     88 O          -7.7054  -23.2188  -47.9755 O.2       15 UNK        -0.5000 
     89 N          -5.5934  -22.6792  -47.3382 N.am      16 UNK        -0.5000 
     90 CA         -5.3730  -21.4036  -48.0319 C.3       16 UNK         0.1400 
     91 CB         -6.4556  -20.3718  -47.6581 C.3       16 UNK        -0.1800 
     92 C          -5.1946  -21.5154  -49.5595 C.2       16 UNK         0.5000 
     93 O          -4.7669  -20.5438  -50.1814 O.2       16 UNK        -0.5000 
     94 N          -5.4846  -22.6857  -50.1444 N.am      17 UNK        -0.5000 
     95 CA         -5.4751  -22.9414  -51.5877 C.3       17 UNK         0.1400 
     96 CB         -6.1022  -24.3201  -51.8448 C.3       17 UNK        -0.1800 
     97 C          -4.0826  -22.8532  -52.2423 C.2       17 UNK         0.5000 
     98 O          -3.9936  -22.6125  -53.4466 O.2       17 UNK        -0.5000 
     99 N          -3.0263  -23.0533  -51.4447 N.am      18 UNK        -0.5000 
    100 CA        -1.6308  -22.9610  -51.8742 C.3       18 UNK         0.1400 
    101 CB        -0.7703  -23.7942  -50.9126 C.3       18 UNK        -0.1800 
    102 C         -1.1083  -21.5114  -51.9660 C.2       18 UNK         0.5000 
    103 O         -0.0615  -21.2963  -52.5780 O.2       18 UNK        -0.5000 
    104 N         -1.8271  -20.5548  -51.3646 N.am      19 UNK        -0.5000 
    105 CA        -1.4975  -19.1318  -51.3622 C.3       19 UNK         0.1400 
    106 CB        -1.5611  -18.6212  -49.9174 C.3       19 UNK        -0.1800 
    107 C         -2.4707  -18.3472  -52.2584 C.2       19 UNK         0.5000 
    108 O         -3.4136  -18.9211  -52.8090 O.2       19 UNK        -0.5000 
    109 N         -2.2097  -17.0387  -52.3948 N.am      20 UNK        -0.5000 
    110 CA        -2.9517  -16.0165  -53.1489 C.3       20 UNK         0.1400 
    111 CB        -4.3995  -15.8764  -52.6437 C.3       20 UNK        -0.1800 
    112 C         -2.9013  -16.1990  -54.6787 C.2       20 UNK         0.5000 
    113 O         -2.5706  -15.2512  -55.3920 O.2       20 UNK        -0.5000 
    114 N         -3.1667  -17.4211  -55.1581 N.am      21 UNK        -0.5000 
    115 CA        -3.0688  -17.8422  -56.5605 C.3       21 UNK         0.1400 
    116 CB        -3.6106  -19.2742  -56.6845 C.3       21 UNK        -0.1800 
    117 C         -1.6368  -17.7533  -57.1288 C.2       21 UNK         0.5000 
    118 O         -1.4638  -17.6404  -58.3427 O.2       21 UNK        -0.5000 
    119 N         -0.6459  -17.7754  -56.2312 N.am      22 UNK        -0.5000 
    120 CA         0.7692  -17.4736  -56.4791 C.3       22 UNK         0.1400 
    121 C          1.0774  -15.9846  -56.8272 C.2       22 UNK         0.5000 
    122 N          0.1434  -15.0495  -56.6917 N.am      22 UNK        -0.7600 
    123 O          2.1885  -15.6744  -57.2482 O.2       22 UNK        -0.5000 
    124 C124        1.6539  -17.9877  -55.3120 C.3       23 UNK        -0.0398 
    125 S125        1.0838  -17.4357  -53.6643 S.3       23 UNK        -0.2404 
    126 C126        2.5615  -17.7702  -52.6610 C.3       23 UNK        -0.0205 
    127 H127       -0.5520  -13.7021  -54.2829 H         1 UNK         0.0600 
    128 H128        0.4995  -14.4726  -53.0945 H         1 UNK         0.0600 
    129 H129        1.0514  -13.0360  -53.9610 H         1 UNK         0.0600 
    130 H130       -0.0133  -13.9745  -50.9793 H         1 UNK         0.3000 
    131 H131       -0.6927  -11.3359  -50.0661 H         1 UNK         0.0600 
    132 H132        0.5457  -12.5965  -48.5064 H         1 UNK         0.0800 
    133 H133       -1.0454  -12.5801  -47.8359 H         1 UNK         0.0800 
    134 H134        1.6252  -15.1495  -47.4825 H         1 UNK         0.0800 
    135 H135        1.8762  -14.3627  -49.0207 H         1 UNK         0.0800 
    136 H136        1.8663  -15.6181  -51.1433 H         1 UNK         0.1150 
    137 H137        2.6026  -19.8286  -50.8686 H         1 UNK         0.1150 
    138 H138        1.4897  -17.6189  -47.3691 H         1 UNK         0.1150 
    139 H139        3.2453  -20.4785  -48.3037 H         1 UNK         0.0800 
    140 H140        2.0816  -19.9236  -47.1332 H         1 UNK         0.0800 
    141 H141       -1.2005  -21.1048  -48.1943 H         1 UNK         0.0800 
    142 H142       -0.1838  -20.4609  -46.9261 H         1 UNK         0.0800 
    143 H143       -0.5834  -23.4245  -47.5471 H         1 UNK         0.0600 
    144 H144        1.2425  -22.1929  -45.6650 H         1 UNK         0.3000 
    145 H145        2.0552  -25.3199  -44.1148 H         1 UNK         0.0600 
    146 H146        4.3096  -24.5075  -44.7479 H         1 UNK         0.0600 
    147 H147        3.4609  -25.0873  -46.1722 H         1 UNK         0.0600 
    148 H148        3.6116  -23.3574  -45.8882 H         1 UNK         0.0600 
    149 H149        3.0034  -22.7421  -43.5220 H         1 UNK         0.3000 
    150 H150        0.6866  -21.2906  -41.7815 H         1 UNK         0.0600 
    151 H151        0.2324  -22.9327  -40.0118 H         1 UNK         0.0600 
    152 H152        1.3589  -21.7258  -39.4144 H         1 UNK         0.0600 
    153 H153        1.9382  -23.3278  -39.8711 H         1 UNK         0.0600 
    154 H154        2.6217  -20.3168  -41.9126 H         1 UNK         0.3000 
    155 H155        5.8637  -20.9544  -40.8397 H         1 UNK         0.0600 
    156 H156        5.1307  -20.6756  -43.8082 H         1 UNK         0.0600 
    157 H157        6.1710  -21.9211  -43.1276 H         1 UNK         0.0600 
    158 H158        6.6764  -20.2406  -43.0784 H         1 UNK         0.0600 
    159 H159        4.6693  -18.7880  -42.3131 H         1 UNK         0.3000 
    160 H160        2.7987  -17.3406  -39.7755 H         1 UNK         0.0600 
    161 H161        5.5818  -16.2943  -40.5226 H         1 UNK         0.0600 
    162 H162        5.0171  -16.5966  -38.8838 H         1 UNK         0.0600 
    163 H163        4.2588  -15.3412  -39.8480 H         1 UNK         0.0600 
    164 H164        3.6659  -16.1019  -42.1164 H         1 UNK         0.3000 
    165 H165        1.8567  -15.8001  -43.6627 H         1 UNK         0.0600 
    166 H166        2.8793  -16.5606  -45.7997 H         1 UNK         0.0600 
    167 H167        4.0443  -16.7690  -44.5098 H         1 UNK         0.0600 
    168 H168        3.1742  -18.1665  -45.1329 H         1 UNK         0.0600 
    169 H169        0.5418  -18.3806  -44.0545 H         1 UNK         0.3000 
    170 H170       -1.2258  -18.4951  -45.7130 H         1 UNK         0.0600 
    171 H171       -1.8487  -18.2453  -43.2650 H         1 UNK         0.0600 
    172 H172       -2.7656  -16.7950  -43.6573 H         1 UNK         0.0600 
    173 H173       -3.2720  -18.3625  -44.2829 H         1 UNK         0.0600 
    174 H174       -1.9490  -15.8478  -46.4688 H         1 UNK         0.3000 
    175 H175       -3.1298  -16.2582  -48.9577 H         1 UNK         0.0600 
    176 H176       -5.0081  -17.7785  -49.2918 H         1 UNK         0.0600 
    177 H177       -5.9229  -17.0221  -47.9861 H         1 UNK         0.0600 
    178 H178       -5.5780  -16.1277  -49.4635 H         1 UNK         0.0600 
    179 H179       -3.5582  -14.2540  -48.1890 H         1 UNK         0.3000 
    180 H180       -5.7170  -12.7935  -45.8926 H         1 UNK         0.0600 
    181 H181       -3.7240  -11.7066  -44.8635 H         1 UNK         0.0600 
    182 H182       -2.6854  -13.0062  -45.4530 H         1 UNK         0.0600 
    183 H183       -3.9204  -13.3388  -44.2461 H         1 UNK         0.0600 
    184 H184       -3.4979  -11.8024  -47.4377 H         1 UNK         0.3000 
    185 H185       -5.0783  -11.6305  -50.5642 H         1 UNK         0.0600 
    186 H186       -4.6948   -9.1813  -50.4029 H         1 UNK         0.0600 
    187 H187       -6.1239   -9.6344  -49.4888 H         1 UNK         0.0600 
    188 H188       -4.6219   -9.2822  -48.6430 H         1 UNK         0.0600 
    189 H189       -2.6613  -10.4957  -49.5175 H         1 UNK         0.3000 
    190 H190       -0.8974  -22.1463  -44.2933 H         1 UNK         0.3000 
    191 H191       -3.7833  -21.9447  -44.2887 H         1 UNK         0.0600 
    192 H192       -3.5171  -21.7923  -41.8370 H         1 UNK         0.0600 
    193 H193       -2.3710  -20.7270  -42.6339 H         1 UNK         0.0600 
    194 H194       -1.8276  -22.2573  -41.9475 H         1 UNK         0.0600 
    195 H195       -1.4063  -24.4716  -43.3504 H         1 UNK         0.3000 
    196 H196       -3.2595  -26.4990  -42.6340 H         1 UNK         0.0600 
    197 H197       -0.4065  -26.7217  -43.7336 H         1 UNK         0.0600 
    198 H198       -0.8506  -26.5557  -42.0370 H         1 UNK         0.0600 
    199 H199       -1.2928  -28.0075  -42.9235 H         1 UNK         0.0600 
    200 H200       -2.1025  -25.4269  -45.7864 H         1 UNK         0.3000 
    201 H201       -3.3533  -27.5975  -47.2948 H         1 UNK         0.0600 
    202 H202       -2.1678  -24.9612  -48.2921 H         1 UNK         0.0600 
    203 H203       -2.4920  -26.4017  -49.2396 H         1 UNK         0.0600 
    204 H204       -1.2242  -26.4273  -48.0248 H         1 UNK         0.0600 
    205 H205       -4.8122  -25.3142  -45.5371 H         1 UNK         0.3000 
    206 H206       -6.7860  -24.3713  -45.4191 H         1 UNK         0.0600 
    207 H207       -7.6296  -26.6252  -46.1128 H         1 UNK         0.0600 
    208 H208       -8.7016  -25.3313  -46.6207 H         1 UNK         0.0600 
    209 H209       -7.6463  -26.1008  -47.7963 H         1 UNK         0.0600 
    210 H210       -4.7719  -23.0109  -46.8395 H         1 UNK         0.3000 
    211 H211       -4.4237  -21.0246  -47.6516 H         1 UNK         0.0600 
    212 H212       -6.2084  -19.3923  -48.0615 H         1 UNK         0.0600 
    213 H213       -6.5402  -20.2621  -46.5771 H         1 UNK         0.0600 
    214 H214       -7.4359  -20.6394  -48.0517 H         1 UNK         0.0600 
    215 H215       -5.8193  -23.4367  -49.5564 H         1 UNK         0.3000 
    216 H216       -6.1036  -22.1850  -52.0620 H         1 UNK         0.0600 
    217 H217       -5.5276  -25.1165  -51.3697 H         1 UNK         0.0600 
    218 H218       -6.1469  -24.5381  -52.9126 H         1 UNK         0.0600 
    219 H219       -7.1215  -24.3680  -51.4608 H         1 UNK         0.0600 
    220 H220       -3.1965  -23.2533  -50.4704 H         1 UNK         0.3000 
    221 H221       -1.5389  -23.3993  -52.8703 H         1 UNK         0.0600 
    222 H222       -1.0560  -24.8458  -50.9377 H         1 UNK         0.0600 
    223 H223       -0.8695  -23.4441  -49.8865 H         1 UNK         0.0600 
    224 H224        0.2862  -23.7381  -51.1783 H         1 UNK         0.0600 
    225 H225       -2.7403  -20.7871  -50.9924 H         1 UNK         0.3000 
    226 H226       -0.4862  -18.9710  -51.7371 H         1 UNK         0.0600 
    227 H227       -2.5440  -18.8008  -49.4834 H         1 UNK         0.0600 
    228 H228       -0.8199  -19.1163  -49.2953 H         1 UNK         0.0600 
    229 H229       -1.3489  -17.5541  -49.8563 H         1 UNK         0.0600 
    230 H230       -1.3834  -16.6888  -51.9312 H         1 UNK         0.3000 
    231 H231       -2.4477  -15.0736  -52.9316 H         1 UNK         0.0600 
    232 H232       -4.9893  -16.7753  -52.8239 H         1 UNK         0.0600 
    233 H233       -4.9053  -15.0487  -53.1421 H         1 UNK         0.0600 
    234 H234       -4.4199  -15.6699  -51.5741 H         1 UNK         0.0600 
    235 H235       -3.4072  -18.1385  -54.4767 H         1 UNK         0.3000 
    236 H236       -3.7001  -17.1788  -57.1549 H         1 UNK         0.0600 
    237 H237       -4.6499  -19.3319  -56.3606 H         1 UNK         0.0600 
    238 H238       -3.5729  -19.6200  -57.7184 H         1 UNK         0.0600 
    239 H239       -3.0328  -19.9755  -56.0806 H         1 UNK         0.0600 
    240 H240       -0.8958  -17.8689  -55.2580 H         1 UNK         0.3000 
    241 H241        1.0570  -18.0371  -57.3685 H         1 UNK         0.0600 
    242 H242        0.3656  -14.0985  -56.9375 H         1 UNK         0.3800 
    243 H243       -0.7789  -15.2687  -56.3332 H         1 UNK         0.3800 
    244 H244        1.6485  -19.0786  -55.3116 H         1 UNK         0.0800 
    245 H245        2.6968  -17.6987  -55.4549 H         1 UNK         0.0800 
    246 H246        3.3320  -17.0337  -52.8932 H         1 UNK         0.0800 
    247 H247        2.9680  -18.7448  -52.9362 H         1 UNK         0.0800 
@<TRIPOS>BOND
     1    1    2 1    
     2    1  127 1    
     3    1  128 1    
     4    1  129 1    
     5    2    3 2    
     6    2    4 am   BACKBONE|DICT|INTERRES
     7    4    5 1    
     8    4  130 1    
     9    5    6 1    
    10    5   65 1    
    11    5  131 1    
    12    6    7 1    
    13    6  132 1    
    14    6  133 1    
    15    7    8 1    
    16    8    9 1    
    17    8  134 1    
    18    8  135 1    
    19    9   10 ar   
    20    9   14 ar   
    21   10   11 ar   
    22   10  136 1    
    23   11   12 ar   
    24   11  126 1    
    25   12   13 ar   
    26   12  137 1    
    27   13   14 ar   
    28   13   15 1    
    29   14  138 1    
    30   15   16 1    
    31   15  139 1    
    32   15  140 1    
    33   16   17 1    
    34   17   18 1    
    35   17  141 1    
    36   17  142 1    
    37   18   19 1    
    38   18   67 1    
    39   18  143 1    
    40   19   20 am   BACKBONE|DICT|INTERRES
    41   19  144 1    
    42   20   21 2    
    43   20   22 1    
    44   22   23 1    
    45   22   24 1    
    46   22  145 1    
    47   23  146 1    
    48   23  147 1    
    49   23  148 1    
    50   24   25 am   BACKBONE|DICT|INTERRES
    51   24  149 1    
    52   25   26 2    
    53   25   27 1    
    54   27   28 1    
    55   27   29 1    
    56   27  150 1    
    57   28  151 1    
    58   28  152 1    
    59   28  153 1    
    60   29   30 am   BACKBONE|DICT|INTERRES
    61   29  154 1    
    62   30   31 2    
    63   30   32 1    
    64   32   33 1    
    65   32   34 1    
    66   32  155 1    
    67   33  156 1    
    68   33  157 1    
    69   33  158 1    
    70   34   35 am   BACKBONE|DICT|INTERRES
    71   34  159 1    
    72   35   36 2    
    73   35   37 1    
    74   37   38 1    
    75   37   39 1    
    76   37  160 1    
    77   38  161 1    
    78   38  162 1    
    79   38  163 1    
    80   39   40 am   BACKBONE|DICT|INTERRES
    81   39  164 1    
    82   40   41 2    
    83   40   42 1    
    84   42   43 1    
    85   42   44 1    
    86   42  165 1    
    87   43  166 1    
    88   43  167 1    
    89   43  168 1    
    90   44   45 am   BACKBONE|DICT|INTERRES
    91   44  169 1    
    92   45   46 2    
    93   45   47 1    
    94   47   48 1    
    95   47   49 1    
    96   47  170 1    
    97   48  171 1    
    98   48  172 1    
    99   48  173 1    
   100   49   50 am   BACKBONE|DICT|INTERRES
   101   49  174 1    
   102   50   51 2    
   103   50   52 1    
   104   52   53 1    
   105   52   54 1    
   106   52  175 1    
   107   53  176 1    
   108   53  177 1    
   109   53  178 1    
   110   54   55 am   BACKBONE|DICT|INTERRES
   111   54  179 1    
   112   55   56 2    
   113   55   57 1    
   114   57   58 1    
   115   57   59 1    
   116   57  180 1    
   117   58  181 1    
   118   58  182 1    
   119   58  183 1    
   120   59   60 am   BACKBONE|DICT|INTERRES
   121   59  184 1    
   122   60   61 2    
   123   60   62 1    
   124   62   63 1    
   125   62   64 1    
   126   62  185 1    
   127   63  186 1    
   128   63  187 1    
   129   63  188 1    
   130   64   65 am   BACKBONE|DICT|INTERRES
   131   64  189 1    
   132   65   66 2    
   133   67   68 2    
   134   67   69 am   BACKBONE|DICT|INTERRES
   135   69   70 1    
   136   69  190 1    
   137   70   71 1    
   138   70   72 1    
   139   70  191 1    
   140   71  192 1    
   141   71  193 1    
   142   71  194 1    
   143   72   73 2    
   144   72   74 am   BACKBONE|DICT|INTERRES
   145   74   75 1    
   146   74  195 1    
   147   75   76 1    
   148   75   77 1    
   149   75  196 1    
   150   76  197 1    
   151   76  198 1    
   152   76  199 1    
   153   77   78 2    
   154   77   79 am   BACKBONE|DICT|INTERRES
   155   79   80 1    
   156   79  200 1    
   157   80   81 1    
   158   80   82 1    
   159   80  201 1    
   160   81  202 1    
   161   81  203 1    
   162   81  204 1    
   163   82   83 2    
   164   82   84 am   BACKBONE|DICT|INTERRES
   165   84   85 1    
   166   84  205 1    
   167   85   86 1    
   168   85   87 1    
   169   85  206 1    
   170   86  207 1    
   171   86  208 1    
   172   86  209 1    
   173   87   88 2    
   174   87   89 am   BACKBONE|DICT|INTERRES
   175   89   90 1    
   176   89  210 1    
   177   90   91 1    
   178   90   92 1    
   179   90  211 1    
   180   91  212 1    
   181   91  213 1    
   182   91  214 1    
   183   92   93 2    
   184   92   94 am   BACKBONE|DICT|INTERRES
   185   94   95 1    
   186   94  215 1    
   187   95   96 1    
   188   95   97 1    
   189   95  216 1    
   190   96  217 1    
   191   96  218 1    
   192   96  219 1    
   193   97   98 2    
   194   97   99 am   BACKBONE|DICT|INTERRES
   195   99  100 1    
   196   99  220 1    
   197  100  101 1    
   198  100  102 1    
   199  100  221 1    
   200  101  222 1    
   201  101  223 1    
   202  101  224 1    
   203  102  103 2    
   204  102  104 am   BACKBONE|DICT|INTERRES
   205  104  105 1    
   206  104  225 1    
   207  105  106 1    
   208  105  107 1    
   209  105  226 1    
   210  106  227 1    
   211  106  228 1    
   212  106  229 1    
   213  107  108 2    
   214  107  109 am   BACKBONE|DICT|INTERRES
   215  109  110 1    
   216  109  230 1    
   217  110  111 1    
   218  110  112 1    
   219  110  231 1    
   220  111  232 1    
   221  111  233 1    
   222  111  234 1    
   223  112  113 2    
   224  112  114 am   BACKBONE|DICT|INTERRES
   225  114  115 1    
   226  114  235 1    
   227  115  116 1    
   228  115  117 1    
   229  115  236 1    
   230  116  237 1    
   231  116  238 1    
   232  116  239 1    
   233  117  118 2    
   234  117  119 am   BACKBONE|DICT|INTERRES
   235  119  120 1    
   236  119  240 1    
   237  120  121 1    
   238  120  124 1    
   239  120  241 1    
   240  121  122 am   BACKBONE|DICT|INTERRES
   241  121  123 2    
   242  122  242 1    
   243  122  243 1    
   244  124  125 1    
   245  124  244 1    
   246  124  245 1    
   247  125  126 1    
   248  126  246 1    
   249  126  247 1    
@<TRIPOS>SUBSTRUCTURE
     1 UNK         1 GROUP             0       ****    0 ROOT    
