@<TRIPOS>MOLECULE
3R540
247   249    1
SMALL
USER_CHARGES


@<TRIPOS>ATOM
      1 CA          5.1974   -8.9018  -47.8202 C.3       0 UNK        -0.1800 
      2 C           4.2229   -9.7567  -47.0249 C.2       0 UNK         0.5000 
      3 O           4.2331   -9.7153  -45.7953 O.2       0 UNK        -0.5000 
      4 N           3.3635  -10.5162  -47.7157 N.am      1 UNK        -0.5000 
      5 CA          2.3940  -11.4649  -47.1422 C.3       1 UNK         0.1400 
      6 C6          1.7838  -12.3848  -48.2248 C.3       23 UNK        -0.0398 
      7 S7          3.0687  -13.4012  -49.0322 S.3       23 UNK        -0.2404 
      8 C8          2.8195  -15.0126  -48.2182 C.3       23 UNK        -0.0205 
      9 C9          2.0003  -15.9779  -49.0664 C.ar      23 UNK        -0.0193 
     10 C10         0.7359  -15.6212  -49.5485 C.ar      23 UNK        -0.1150 
     11 C11        -0.0027  -16.5086  -50.3349 C.ar      23 UNK        -0.0193 
     12 C12         0.5214  -17.7703  -50.6267 C.ar      23 UNK        -0.1150 
     13 C13         1.7766  -18.1455  -50.1409 C.ar      23 UNK        -0.0193 
     14 C14         2.5111  -17.2451  -49.3646 C.ar      23 UNK        -0.1150 
     15 C15         2.3460  -19.5185  -50.4651 C.3       23 UNK        -0.0205 
     16 S16         2.1930  -20.6681  -49.0635 S.3       23 UNK        -0.2404 
     17 C17         0.3809  -20.8135  -48.9246 C.3       23 UNK        -0.0398 
     18 CA         -0.0424  -21.9538  -47.9722 C.3       11 UNK         0.1400 
     19 N           0.3656  -21.6961  -46.5853 N.am      11 UNK        -0.5000 
     20 C           0.3747  -22.6159  -45.6112 C.2       10 UNK         0.5000 
     21 O           0.0507  -23.7903  -45.7830 O.2       10 UNK        -0.5000 
     22 CA          0.7562  -22.1335  -44.2001 C.3       10 UNK         0.1400 
     23 CB          2.2795  -22.0057  -44.0485 C.3       10 UNK        -0.1800 
     24 N           0.1075  -20.8655  -43.8629 N.am      10 UNK        -0.5000 
     25 C          -1.2108  -20.7317  -43.6594 C.2       9 UNK         0.5000 
     26 O          -1.9927  -21.6818  -43.6479 O.2       9 UNK        -0.5000 
     27 CA         -1.7601  -19.3054  -43.4640 C.3       9 UNK         0.1400 
     28 CB         -1.7110  -18.9052  -41.9824 C.3       9 UNK        -0.1800 
     29 N          -1.0608  -18.2994  -44.2644 N.am      9 UNK        -0.5000 
     30 C          -1.0543  -18.2515  -45.6046 C.2       8 UNK         0.5000 
     31 O          -1.6739  -19.0378  -46.3187 O.2       8 UNK        -0.5000 
     32 CA         -0.1501  -17.1863  -46.2532 C.3       8 UNK         0.1400 
     33 CB         -0.8295  -15.8084  -46.2624 C.3       8 UNK        -0.1800 
     34 N           1.1520  -17.0917  -45.5896 N.am      8 UNK        -0.5000 
     35 C           2.0460  -18.0903  -45.5511 C.2       7 UNK         0.5000 
     36 O           1.8786  -19.1774  -46.1003 O.2       7 UNK        -0.5000 
     37 CA          3.3011  -17.8636  -44.6931 C.3       7 UNK         0.1400 
     38 CB          4.3595  -17.0513  -45.4533 C.3       7 UNK        -0.1800 
     39 N           2.9744  -17.2031  -43.4292 N.am      7 UNK        -0.5000 
     40 C           2.3316  -17.8087  -42.4188 C.2       6 UNK         0.5000 
     41 O           2.0002  -18.9934  -42.4377 O.2       6 UNK        -0.5000 
     42 CA          1.9605  -16.9436  -41.1988 C.3       6 UNK         0.1400 
     43 CB          3.1034  -16.9406  -40.1732 C.3       6 UNK        -0.1800 
     44 N           1.6278  -15.5639  -41.5532 N.am      6 UNK        -0.5000 
     45 C           0.5980  -15.1973  -42.3294 C.2       5 UNK         0.5000 
     46 O          -0.2278  -15.9893  -42.7804 O.2       5 UNK        -0.5000 
     47 CA          0.5021  -13.7070  -42.7058 C.3       5 UNK         0.1400 
     48 CB         -0.4901  -12.9765  -41.7902 C.3       5 UNK        -0.1800 
     49 N           1.7910  -13.0138  -42.6638 N.am      5 UNK        -0.5000 
     50 C           2.8356  -13.2721  -43.4602 C.2       4 UNK         0.5000 
     51 O           2.8305  -14.1630  -44.3123 O.2       4 UNK        -0.5000 
     52 CA          4.0851  -12.3920  -43.2494 C.3       4 UNK         0.1400 
     53 CB          5.2087  -12.7014  -44.2554 C.3       4 UNK        -0.1800 
     54 N           3.7638  -10.9652  -43.3144 N.am      4 UNK        -0.5000 
     55 C           3.2246  -10.2345  -42.3282 C.2       3 UNK         0.5000 
     56 O           2.9318  -10.6952  -41.2241 O.2       3 UNK        -0.5000 
     57 CA          2.9138   -8.7644  -42.6485 C.3       3 UNK         0.1400 
     58 CB          4.2036   -7.9311  -42.7152 C.3       3 UNK        -0.1800 
     59 N           2.2032   -8.6680  -43.9217 N.am      3 UNK        -0.5000 
     60 C           0.8699   -8.6124  -44.0519 C.2       2 UNK         0.5000 
     61 O           0.0906   -8.5333  -43.1017 O.2       2 UNK        -0.5000 
     62 CA          0.3070   -8.6706  -45.4876 C.3       2 UNK         0.1400 
     63 CB          0.1632   -7.2562  -46.0692 C.3       2 UNK        -0.1800 
     64 N           1.1392   -9.4751  -46.3835 N.am      2 UNK        -0.5000 
     65 C           1.2886  -10.8040  -46.2881 C.2       1 UNK         0.5000 
     66 O           0.6131  -11.5054  -45.5357 O.2       1 UNK        -0.5000 
     67 C          -1.5526  -22.2513  -48.1140 C.2       11 UNK         0.5000 
     68 O          -1.9448  -22.8896  -49.0895 O.2       11 UNK        -0.5000 
     69 N          -2.3722  -21.8118  -47.1473 N.am      12 UNK        -0.5000 
     70 CA         -3.8103  -22.0815  -47.0762 C.3       12 UNK         0.1400 
     71 CB         -4.4639  -21.1329  -46.0604 C.3       12 UNK        -0.1800 
     72 C          -4.1593  -23.5529  -46.7585 C.2       12 UNK         0.5000 
     73 O          -5.3078  -23.9511  -46.9639 O.2       12 UNK        -0.5000 
     74 N          -3.1841  -24.3423  -46.2844 N.am      13 UNK        -0.5000 
     75 CA         -3.3157  -25.7808  -46.0429 C.3       13 UNK         0.1400 
     76 CB         -2.0503  -26.2849  -45.3333 C.3       13 UNK        -0.1800 
     77 C          -3.5598  -26.5822  -47.3385 C.2       13 UNK         0.5000 
     78 O          -3.2362  -26.1111  -48.4316 O.2       13 UNK        -0.5000 
     79 N          -4.1262  -27.7883  -47.1847 N.am      14 UNK        -0.5000 
     80 CA         -4.4813  -28.7309  -48.2559 C.3       14 UNK         0.1400 
     81 CB         -3.2117  -29.3033  -48.9217 C.3       14 UNK        -0.1800 
     82 C          -5.4714  -28.1210  -49.2711 C.2       14 UNK         0.5000 
     83 O          -5.2784  -28.2462  -50.4822 O.2       14 UNK        -0.5000 
     84 N          -6.4933  -27.4304  -48.7401 N.am      15 UNK        -0.5000 
     85 CA         -7.5143  -26.6674  -49.4673 C.3       15 UNK         0.1400 
     86 CB         -8.4536  -27.6162  -50.2418 C.3       15 UNK        -0.1800 
     87 C          -6.8854  -25.5801  -50.3615 C.2       15 UNK         0.5000 
     88 O          -7.1731  -25.5186  -51.5574 O.2       15 UNK        -0.5000 
     89 N          -5.9930  -24.7768  -49.7644 N.am      16 UNK        -0.5000 
     90 CA         -5.1712  -23.7492  -50.4083 C.3       16 UNK         0.1400 
     91 CB         -6.0456  -22.5649  -50.8646 C.3       16 UNK        -0.1800 
     92 C          -4.2788  -24.3211  -51.5244 C.2       16 UNK         0.5000 
     93 O          -4.2627  -23.7883  -52.6352 O.2       16 UNK        -0.5000 
     94 N          -3.5827  -25.4231  -51.2103 N.am      17 UNK        -0.5000 
     95 CA         -2.7374  -26.2150  -52.1084 C.3       17 UNK         0.1400 
     96 CB         -1.4437  -25.4402  -52.4354 C.3       17 UNK        -0.1800 
     97 C          -3.5009  -26.6873  -53.3656 C.2       17 UNK         0.5000 
     98 O          -3.0143  -26.5222  -54.4849 O.2       17 UNK        -0.5000 
     99 N          -4.7074  -27.2304  -53.1441 N.am      18 UNK        -0.5000 
    100 CA        -5.7091  -27.6087  -54.1460 C.3       18 UNK         0.1400 
    101 CB        -5.2206  -28.8045  -54.9901 C.3       18 UNK        -0.1800 
    102 C         -6.1731  -26.4046  -54.9964 C.2       18 UNK         0.5000 
    103 O         -6.1646  -26.4682  -56.2274 O.2       18 UNK        -0.5000 
    104 N         -6.5714  -25.3285  -54.3028 N.am      19 UNK        -0.5000 
    105 CA        -7.0846  -24.0559  -54.8215 C.3       19 UNK         0.1400 
    106 CB        -8.4633  -24.2615  -55.4830 C.3       19 UNK        -0.1800 
    107 C         -6.0910  -23.2896  -55.7229 C.2       19 UNK         0.5000 
    108 O         -6.5117  -22.6061  -56.6588 O.2       19 UNK        -0.5000 
    109 N         -4.7928  -23.4075  -55.4231 N.am      20 UNK        -0.5000 
    110 CA        -3.7089  -22.7151  -56.1190 C.3       20 UNK         0.1400 
    111 CB        -2.5290  -23.6828  -56.2930 C.3       20 UNK        -0.1800 
    112 C         -3.2549  -21.4549  -55.3616 C.2       20 UNK         0.5000 
    113 O         -2.8493  -20.4820  -55.9996 O.2       20 UNK        -0.5000 
    114 N         -3.3151  -21.4943  -54.0251 N.am      21 UNK        -0.5000 
    115 CA        -2.9177  -20.4093  -53.1313 C.3       21 UNK         0.1400 
    116 CB        -2.2502  -21.0272  -51.8900 C.3       21 UNK        -0.1800 
    117 C         -4.1196  -19.5317  -52.7330 C.2       21 UNK         0.5000 
    118 O         -5.2536  -19.7861  -53.1458 O.2       21 UNK        -0.5000 
    119 N         -3.8379  -18.5127  -51.9138 N.am      22 UNK        -0.5000 
    120 CA        -4.8221  -17.6049  -51.3024 C.3       22 UNK         0.1400 
    121 C         -5.6848  -18.2349  -50.1684 C.2       22 UNK         0.5000 
    122 N         -5.2965  -19.3616  -49.5838 N.am      22 UNK        -0.7600 
    123 O         -6.7302  -17.6927  -49.8203 O.2       22 UNK        -0.5000 
    124 C124       -4.1550  -16.2828  -50.8364 C.3       23 UNK        -0.0398 
    125 S125       -2.7020  -16.5377  -49.7512 S.3       23 UNK        -0.2404 
    126 C126       -1.3553  -16.0974  -50.8902 C.3       23 UNK        -0.0205 
    127 H127        6.2226   -9.1723  -47.5680 H         1 UNK         0.0600 
    128 H128        5.0529   -7.8483  -47.5810 H         1 UNK         0.0600 
    129 H129        5.0654   -9.0295  -48.8948 H         1 UNK         0.0600 
    130 H130        3.4078  -10.5082  -48.7251 H         1 UNK         0.3000 
    131 H131        2.9457  -12.1037  -46.4510 H         1 UNK         0.0600 
    132 H132        1.2761  -11.7941  -48.9890 H         1 UNK         0.0800 
    133 H133        1.0236  -13.0384  -47.7941 H         1 UNK         0.0800 
    134 H134        3.8067  -15.4330  -48.0229 H         1 UNK         0.0800 
    135 H135        2.3484  -14.8858  -47.2427 H         1 UNK         0.0800 
    136 H136        0.3265  -14.6476  -49.3245 H         1 UNK         0.1150 
    137 H137       -0.0463  -18.4596  -51.2350 H         1 UNK         0.1150 
    138 H138        3.4815  -17.5388  -48.9897 H         1 UNK         0.1150 
    139 H139        1.8548  -19.9451  -51.3411 H         1 UNK         0.0800 
    140 H140        3.4006  -19.4200  -50.7262 H         1 UNK         0.0800 
    141 H141       -0.0076  -20.9906  -49.9280 H         1 UNK         0.0800 
    142 H142       -0.0318  -19.8603  -48.5887 H         1 UNK         0.0800 
    143 H143        0.4724  -22.8611  -48.2962 H         1 UNK         0.0600 
    144 H144        0.7016  -20.7589  -46.3807 H         1 UNK         0.3000 
    145 H145        0.4137  -22.8873  -43.4879 H         1 UNK         0.0600 
    146 H146        2.7713  -22.9567  -44.2563 H         1 UNK         0.0600 
    147 H147        2.6972  -21.2668  -44.7314 H         1 UNK         0.0600 
    148 H148        2.5511  -21.7142  -43.0338 H         1 UNK         0.0600 
    149 H149        0.7026  -20.0485  -43.7972 H         1 UNK         0.3000 
    150 H150       -2.8053  -19.3091  -43.7801 H         1 UNK         0.0600 
    151 H151       -2.2657  -19.6151  -41.3676 H         1 UNK         0.0600 
    152 H152       -2.1535  -17.9216  -41.8239 H         1 UNK         0.0600 
    153 H153       -0.6877  -18.8767  -41.6084 H         1 UNK         0.0600 
    154 H154       -0.5719  -17.5707  -43.7507 H         1 UNK         0.3000 
    155 H155        0.0239  -17.4866  -47.2887 H         1 UNK         0.0600 
    156 H156       -0.2003  -15.0591  -46.7418 H         1 UNK         0.0600 
    157 H157       -1.0573  -15.4586  -45.2559 H         1 UNK         0.0600 
    158 H158       -1.7685  -15.8454  -46.8155 H         1 UNK         0.0600 
    159 H159        1.3524  -16.2403  -45.0846 H         1 UNK         0.3000 
    160 H160        3.7308  -18.8426  -44.4697 H         1 UNK         0.0600 
    161 H161        4.0156  -16.0420  -45.6741 H         1 UNK         0.0600 
    162 H162        4.6094  -17.5285  -46.4019 H         1 UNK         0.0600 
    163 H163        5.2809  -16.9699  -44.8768 H         1 UNK         0.0600 
    164 H164        3.1643  -16.2112  -43.3720 H         1 UNK         0.3000 
    165 H165        1.0814  -17.3899  -40.7300 H         1 UNK         0.0600 
    166 H166        2.8225  -16.3974  -39.2707 H         1 UNK         0.0600 
    167 H167        3.3599  -17.9573  -39.8723 H         1 UNK         0.0600 
    168 H168        4.0061  -16.4798  -40.5764 H         1 UNK         0.0600 
    169 H169        2.2522  -14.8444  -41.2208 H         1 UNK         0.3000 
    170 H170        0.1277  -13.6527  -43.7301 H         1 UNK         0.0600 
    171 H171       -1.4710  -13.4531  -41.8178 H         1 UNK         0.0600 
    172 H172       -0.1535  -12.9735  -40.7528 H         1 UNK         0.0600 
    173 H173       -0.6236  -11.9407  -42.1038 H         1 UNK         0.0600 
    174 H174        1.8882  -12.2602  -41.9919 H         1 UNK         0.3000 
    175 H175        4.4686  -12.6192  -42.2527 H         1 UNK         0.0600 
    176 H176        6.0952  -12.1013  -44.0501 H         1 UNK         0.0600 
    177 H177        5.5073  -13.7491  -44.2001 H         1 UNK         0.0600 
    178 H178        4.9038  -12.5017  -45.2822 H         1 UNK         0.0600 
    179 H179        3.9569  -10.5080  -44.2034 H         1 UNK         0.3000 
    180 H180        2.2975   -8.3638  -41.8409 H         1 UNK         0.0600 
    181 H181        4.8711   -8.2734  -43.5068 H         1 UNK         0.0600 
    182 H182        4.7531   -7.9880  -41.7747 H         1 UNK         0.0600 
    183 H183        3.9813   -6.8798  -42.8986 H         1 UNK         0.0600 
    184 H184        2.7697   -8.7856  -44.7541 H         1 UNK         0.3000 
    185 H185       -0.6852   -9.1245  -45.4393 H         1 UNK         0.0600 
    186 H186       -0.4717   -6.6364  -45.4346 H         1 UNK         0.0600 
    187 H187        1.1285   -6.7558  -46.1564 H         1 UNK         0.0600 
    188 H188       -0.2936   -7.2810  -47.0588 H         1 UNK         0.0600 
    189 H189        1.7248   -8.9749  -47.0361 H         1 UNK         0.3000 
    190 H190       -1.9843  -21.2211  -46.4222 H         1 UNK         0.3000 
    191 H191       -4.2358  -21.8451  -48.0515 H         1 UNK         0.0600 
    192 H192       -4.2396  -20.0907  -46.2883 H         1 UNK         0.0600 
    193 H193       -5.5492  -21.2401  -46.0727 H         1 UNK         0.0600 
    194 H194       -4.1313  -21.3364  -45.0438 H         1 UNK         0.0600 
    195 H195       -2.2572  -23.9519  -46.1756 H         1 UNK         0.3000 
    196 H196       -4.1705  -25.9288  -45.3800 H         1 UNK         0.0600 
    197 H197       -2.1490  -27.3331  -45.0487 H         1 UNK         0.0600 
    198 H198       -1.8536  -25.7185  -44.4226 H         1 UNK         0.0600 
    199 H199       -1.1726  -26.2027  -45.9756 H         1 UNK         0.0600 
    200 H200       -4.3544  -28.0936  -46.2485 H         1 UNK         0.3000 
    201 H201       -5.0056  -29.5612  -47.7808 H         1 UNK         0.0600 
    202 H202       -2.5477  -29.7508  -48.1823 H         1 UNK         0.0600 
    203 H203       -2.6496  -28.5364  -49.4549 H         1 UNK         0.0600 
    204 H204       -3.4655  -30.0816  -49.6422 H         1 UNK         0.0600 
    205 H205       -6.5423  -27.3711  -47.7328 H         1 UNK         0.3000 
    206 H206       -8.1124  -26.1457  -48.7188 H         1 UNK         0.0600 
    207 H207       -8.8987  -28.3576  -49.5786 H         1 UNK         0.0600 
    208 H208       -9.2712  -27.0622  -50.7045 H         1 UNK         0.0600 
    209 H209       -7.9306  -28.1489  -51.0368 H         1 UNK         0.0600 
    210 H210       -5.8174  -24.8994  -48.7732 H         1 UNK         0.3000 
    211 H211       -4.4829  -23.3826  -49.6526 H         1 UNK         0.0600 
    212 H212       -6.7514  -22.8533  -51.6428 H         1 UNK         0.0600 
    213 H213       -5.4323  -21.7604  -51.2661 H         1 UNK         0.0600 
    214 H214       -6.6151  -22.1525  -50.0320 H         1 UNK         0.0600 
    215 H215       -3.6251  -25.7538  -50.2486 H         1 UNK         0.3000 
    216 H216       -2.4585  -27.1149  -51.5591 H         1 UNK         0.0600 
    217 H217       -0.7641  -26.0464  -53.0352 H         1 UNK         0.0600 
    218 H218       -0.9140  -25.1617  -51.5242 H         1 UNK         0.0600 
    219 H219       -1.6481  -24.5256  -52.9924 H         1 UNK         0.0600 
    220 H220       -4.9943  -27.3602  -52.1767 H         1 UNK         0.3000 
    221 H221       -6.5843  -27.9407  -53.5854 H         1 UNK         0.0600 
    222 H222       -4.3656  -28.5420  -55.6137 H         1 UNK         0.0600 
    223 H223       -4.9287  -29.6408  -54.3550 H         1 UNK         0.0600 
    224 H224       -6.0101  -29.1603  -55.6528 H         1 UNK         0.0600 
    225 H225       -6.5710  -25.3978  -53.2863 H         1 UNK         0.3000 
    226 H226       -7.2360  -23.4216  -53.9477 H         1 UNK         0.0600 
    227 H227       -9.1489  -24.7776  -54.8108 H         1 UNK         0.0600 
    228 H228       -8.9223  -23.3062  -55.7398 H         1 UNK         0.0600 
    229 H229       -8.3882  -24.8461  -56.4003 H         1 UNK         0.0600 
    230 H230       -4.5405  -23.9351  -54.5932 H         1 UNK         0.3000 
    231 H231       -4.0366  -22.4073  -57.1140 H         1 UNK         0.0600 
    232 H232       -2.1294  -24.0066  -55.3317 H         1 UNK         0.0600 
    233 H233       -1.7152  -23.2125  -56.8462 H         1 UNK         0.0600 
    234 H234       -2.8286  -24.5736  -56.8455 H         1 UNK         0.0600 
    235 H235       -3.7078  -22.3184  -53.5758 H         1 UNK         0.3000 
    236 H236       -2.1863  -19.7693  -53.6291 H         1 UNK         0.0600 
    237 H237       -1.4239  -21.6814  -52.1693 H         1 UNK         0.0600 
    238 H238       -1.8439  -20.2598  -51.2318 H         1 UNK         0.0600 
    239 H239       -2.9552  -21.6174  -51.3057 H         1 UNK         0.0600 
    240 H240       -2.8876  -18.3763  -51.6049 H         1 UNK         0.3000 
    241 H241       -5.5338  -17.3377  -52.0861 H         1 UNK         0.0600 
    242 H242       -5.8680  -19.7509  -48.8525 H         1 UNK         0.3800 
    243 H243       -4.4261  -19.7941  -49.8390 H         1 UNK         0.3800 
    244 H244       -3.8523  -15.7059  -51.7111 H         1 UNK         0.0800 
    245 H245       -4.8720  -15.6479  -50.3128 H         1 UNK         0.0800 
    246 H246       -1.3758  -15.0218  -51.0728 H         1 UNK         0.0800 
    247 H247       -1.5143  -16.5747  -51.8582 H         1 UNK         0.0800 
@<TRIPOS>BOND
     1    1    2 1    
     2    1  127 1    
     3    1  128 1    
     4    1  129 1    
     5    2    3 2    
     6    2    4 am   BACKBONE|DICT|INTERRES
     7    4    5 1    
     8    4  130 1    
     9    5    6 1    
    10    5   65 1    
    11    5  131 1    
    12    6    7 1    
    13    6  132 1    
    14    6  133 1    
    15    7    8 1    
    16    8    9 1    
    17    8  134 1    
    18    8  135 1    
    19    9   10 ar   
    20    9   14 ar   
    21   10   11 ar   
    22   10  136 1    
    23   11   12 ar   
    24   11  126 1    
    25   12   13 ar   
    26   12  137 1    
    27   13   14 ar   
    28   13   15 1    
    29   14  138 1    
    30   15   16 1    
    31   15  139 1    
    32   15  140 1    
    33   16   17 1    
    34   17   18 1    
    35   17  141 1    
    36   17  142 1    
    37   18   19 1    
    38   18   67 1    
    39   18  143 1    
    40   19   20 am   BACKBONE|DICT|INTERRES
    41   19  144 1    
    42   20   21 2    
    43   20   22 1    
    44   22   23 1    
    45   22   24 1    
    46   22  145 1    
    47   23  146 1    
    48   23  147 1    
    49   23  148 1    
    50   24   25 am   BACKBONE|DICT|INTERRES
    51   24  149 1    
    52   25   26 2    
    53   25   27 1    
    54   27   28 1    
    55   27   29 1    
    56   27  150 1    
    57   28  151 1    
    58   28  152 1    
    59   28  153 1    
    60   29   30 am   BACKBONE|DICT|INTERRES
    61   29  154 1    
    62   30   31 2    
    63   30   32 1    
    64   32   33 1    
    65   32   34 1    
    66   32  155 1    
    67   33  156 1    
    68   33  157 1    
    69   33  158 1    
    70   34   35 am   BACKBONE|DICT|INTERRES
    71   34  159 1    
    72   35   36 2    
    73   35   37 1    
    74   37   38 1    
    75   37   39 1    
    76   37  160 1    
    77   38  161 1    
    78   38  162 1    
    79   38  163 1    
    80   39   40 am   BACKBONE|DICT|INTERRES
    81   39  164 1    
    82   40   41 2    
    83   40   42 1    
    84   42   43 1    
    85   42   44 1    
    86   42  165 1    
    87   43  166 1    
    88   43  167 1    
    89   43  168 1    
    90   44   45 am   BACKBONE|DICT|INTERRES
    91   44  169 1    
    92   45   46 2    
    93   45   47 1    
    94   47   48 1    
    95   47   49 1    
    96   47  170 1    
    97   48  171 1    
    98   48  172 1    
    99   48  173 1    
   100   49   50 am   BACKBONE|DICT|INTERRES
   101   49  174 1    
   102   50   51 2    
   103   50   52 1    
   104   52   53 1    
   105   52   54 1    
   106   52  175 1    
   107   53  176 1    
   108   53  177 1    
   109   53  178 1    
   110   54   55 am   BACKBONE|DICT|INTERRES
   111   54  179 1    
   112   55   56 2    
   113   55   57 1    
   114   57   58 1    
   115   57   59 1    
   116   57  180 1    
   117   58  181 1    
   118   58  182 1    
   119   58  183 1    
   120   59   60 am   BACKBONE|DICT|INTERRES
   121   59  184 1    
   122   60   61 2    
   123   60   62 1    
   124   62   63 1    
   125   62   64 1    
   126   62  185 1    
   127   63  186 1    
   128   63  187 1    
   129   63  188 1    
   130   64   65 am   BACKBONE|DICT|INTERRES
   131   64  189 1    
   132   65   66 2    
   133   67   68 2    
   134   67   69 am   BACKBONE|DICT|INTERRES
   135   69   70 1    
   136   69  190 1    
   137   70   71 1    
   138   70   72 1    
   139   70  191 1    
   140   71  192 1    
   141   71  193 1    
   142   71  194 1    
   143   72   73 2    
   144   72   74 am   BACKBONE|DICT|INTERRES
   145   74   75 1    
   146   74  195 1    
   147   75   76 1    
   148   75   77 1    
   149   75  196 1    
   150   76  197 1    
   151   76  198 1    
   152   76  199 1    
   153   77   78 2    
   154   77   79 am   BACKBONE|DICT|INTERRES
   155   79   80 1    
   156   79  200 1    
   157   80   81 1    
   158   80   82 1    
   159   80  201 1    
   160   81  202 1    
   161   81  203 1    
   162   81  204 1    
   163   82   83 2    
   164   82   84 am   BACKBONE|DICT|INTERRES
   165   84   85 1    
   166   84  205 1    
   167   85   86 1    
   168   85   87 1    
   169   85  206 1    
   170   86  207 1    
   171   86  208 1    
   172   86  209 1    
   173   87   88 2    
   174   87   89 am   BACKBONE|DICT|INTERRES
   175   89   90 1    
   176   89  210 1    
   177   90   91 1    
   178   90   92 1    
   179   90  211 1    
   180   91  212 1    
   181   91  213 1    
   182   91  214 1    
   183   92   93 2    
   184   92   94 am   BACKBONE|DICT|INTERRES
   185   94   95 1    
   186   94  215 1    
   187   95   96 1    
   188   95   97 1    
   189   95  216 1    
   190   96  217 1    
   191   96  218 1    
   192   96  219 1    
   193   97   98 2    
   194   97   99 am   BACKBONE|DICT|INTERRES
   195   99  100 1    
   196   99  220 1    
   197  100  101 1    
   198  100  102 1    
   199  100  221 1    
   200  101  222 1    
   201  101  223 1    
   202  101  224 1    
   203  102  103 2    
   204  102  104 am   BACKBONE|DICT|INTERRES
   205  104  105 1    
   206  104  225 1    
   207  105  106 1    
   208  105  107 1    
   209  105  226 1    
   210  106  227 1    
   211  106  228 1    
   212  106  229 1    
   213  107  108 2    
   214  107  109 am   BACKBONE|DICT|INTERRES
   215  109  110 1    
   216  109  230 1    
   217  110  111 1    
   218  110  112 1    
   219  110  231 1    
   220  111  232 1    
   221  111  233 1    
   222  111  234 1    
   223  112  113 2    
   224  112  114 am   BACKBONE|DICT|INTERRES
   225  114  115 1    
   226  114  235 1    
   227  115  116 1    
   228  115  117 1    
   229  115  236 1    
   230  116  237 1    
   231  116  238 1    
   232  116  239 1    
   233  117  118 2    
   234  117  119 am   BACKBONE|DICT|INTERRES
   235  119  120 1    
   236  119  240 1    
   237  120  121 1    
   238  120  124 1    
   239  120  241 1    
   240  121  122 am   BACKBONE|DICT|INTERRES
   241  121  123 2    
   242  122  242 1    
   243  122  243 1    
   244  124  125 1    
   245  124  244 1    
   246  124  245 1    
   247  125  126 1    
   248  126  246 1    
   249  126  247 1    
@<TRIPOS>SUBSTRUCTURE
     1 UNK         1 GROUP             0       ****    0 ROOT    
