@<TRIPOS>MOLECULE
3R540
247   249    1
SMALL
USER_CHARGES


@<TRIPOS>ATOM
      1 CA         -7.1857  -14.7884  -48.2046 C.3       0 UNK        -0.1800 
      2 C          -5.7666  -14.5407  -48.6946 C.2       0 UNK         0.5000 
      3 O          -5.5502  -13.6310  -49.4953 O.2       0 UNK        -0.5000 
      4 N          -4.8059  -15.3493  -48.2301 N.am      1 UNK        -0.5000 
      5 CA         -3.3756  -15.2183  -48.5251 C.3       1 UNK         0.1400 
      6 C6         -2.5679  -16.4099  -47.9539 C.3       23 UNK        -0.0398 
      7 S7         -0.8740  -16.5075  -48.6333 S.3       23 UNK        -0.2404 
      8 C8         -0.8428  -18.2013  -49.3000 C.3       23 UNK        -0.0205 
      9 C9          0.5379  -18.5961  -49.8075 C.ar      23 UNK        -0.0193 
     10 C10         0.7059  -18.9988  -51.1356 C.ar      23 UNK        -0.1150 
     11 C11         1.9609  -19.4013  -51.6100 C.ar      23 UNK        -0.0193 
     12 C12         3.0517  -19.3823  -50.7378 C.ar      23 UNK        -0.1150 
     13 C13         2.9064  -18.9706  -49.4108 C.ar      23 UNK        -0.0193 
     14 C14         1.6439  -18.5828  -48.9497 C.ar      23 UNK        -0.1150 
     15 C15         4.1314  -18.9197  -48.5031 C.3       23 UNK        -0.0205 
     16 S16         3.9410  -19.8575  -46.9537 S.3       23 UNK        -0.2404 
     17 C17         3.3627  -21.4858  -47.5380 C.3       23 UNK        -0.0398 
     18 CA          3.9401  -22.6900  -46.7482 C.3       11 UNK         0.1400 
     19 N           3.7667  -22.5573  -45.2934 N.am      11 UNK        -0.5000 
     20 C           4.3576  -23.3311  -44.3701 C.2       10 UNK         0.5000 
     21 O           5.2019  -24.1864  -44.6377 O.2       10 UNK        -0.5000 
     22 CA          3.8935  -23.1600  -42.9113 C.3       10 UNK         0.1400 
     23 CB          4.7686  -22.1380  -42.1690 C.3       10 UNK        -0.1800 
     24 N           2.4860  -22.7624  -42.8268 N.am      10 UNK        -0.5000 
     25 C           1.4502  -23.6033  -42.9622 C.2       9 UNK         0.5000 
     26 O           1.5773  -24.8170  -43.1240 O.2       9 UNK        -0.5000 
     27 CA          0.0344  -22.9900  -42.9500 C.3       9 UNK         0.1400 
     28 CB         -0.4884  -22.8713  -41.5108 C.3       9 UNK        -0.1800 
     29 N          -0.0399  -21.6790  -43.5936 N.am      9 UNK        -0.5000 
     30 C           0.2329  -21.4431  -44.8840 C.2       8 UNK         0.5000 
     31 O           0.5210  -22.3220  -45.6963 O.2       8 UNK        -0.5000 
     32 CA          0.2520  -19.9690  -45.3287 C.3       8 UNK         0.1400 
     33 CB         -1.1570  -19.5172  -45.7238 C.3       8 UNK        -0.1800 
     34 N           0.7924  -19.0468  -44.3250 N.am      8 UNK        -0.5000 
     35 C           1.9970  -19.1555  -43.7431 C.2       7 UNK         0.5000 
     36 O           2.7714  -20.0886  -43.9401 O.2       7 UNK        -0.5000 
     37 CA          2.3845  -18.0672  -42.7353 C.3       7 UNK         0.1400 
     38 CB          2.7751  -16.7766  -43.4626 C.3       7 UNK        -0.1800 
     39 N           1.2867  -17.8090  -41.8084 N.am      7 UNK        -0.5000 
     40 C           1.0085  -18.5853  -40.7516 C.2       6 UNK         0.5000 
     41 O           1.7029  -19.5393  -40.3995 O.2       6 UNK        -0.5000 
     42 CA         -0.2782  -18.2588  -39.9711 C.3       6 UNK         0.1400 
     43 CB         -0.0003  -17.2098  -38.8838 C.3       6 UNK        -0.1800 
     44 N          -1.3656  -17.7864  -40.8291 N.am      6 UNK        -0.5000 
     45 C          -1.9601  -18.5188  -41.7812 C.2       5 UNK         0.5000 
     46 O          -1.6631  -19.6859  -42.0376 O.2       5 UNK        -0.5000 
     47 CA         -3.0462  -17.8119  -42.6118 C.3       5 UNK         0.1400 
     48 CB         -4.4241  -17.9791  -41.9552 C.3       5 UNK        -0.1800 
     49 N          -2.7901  -16.3887  -42.8509 N.am      5 UNK        -0.5000 
     50 C          -1.7329  -15.8947  -43.5099 C.2       4 UNK         0.5000 
     51 O          -0.7995  -16.5915  -43.9188 O.2       4 UNK        -0.5000 
     52 CA         -1.7548  -14.3727  -43.7464 C.3       4 UNK         0.1400 
     53 CB         -1.5175  -13.5856  -42.4411 C.3       4 UNK        -0.1800 
     54 N          -0.8518  -13.9594  -44.8257 N.am      4 UNK        -0.5000 
     55 C           0.4861  -13.8432  -44.8143 C.2       3 UNK         0.5000 
     56 O           1.1791  -13.9215  -43.8004 O.2       3 UNK        -0.5000 
     57 CA          1.1836  -13.5979  -46.1709 C.3       3 UNK         0.1400 
     58 CB          1.9784  -14.8422  -46.6019 C.3       3 UNK        -0.1800 
     59 N           0.2519  -13.2499  -47.2448 N.am      3 UNK        -0.5000 
     60 C          -0.3061  -12.0434  -47.4163 C.2       2 UNK         0.5000 
     61 O          -0.0343  -11.0605  -46.7265 O.2       2 UNK        -0.5000 
     62 CA         -1.3678  -11.9211  -48.5285 C.3       2 UNK         0.1400 
     63 CB         -0.7410  -11.3538  -49.8112 C.3       2 UNK        -0.1800 
     64 N          -2.0354  -13.1872  -48.8469 N.am      2 UNK        -0.5000 
     65 C          -2.8175  -13.8772  -48.0052 C.2       1 UNK         0.5000 
     66 O          -3.0593  -13.5233  -46.8490 O.2       1 UNK        -0.5000 
     67 C           3.3090  -23.9913  -47.2982 C.2       11 UNK         0.5000 
     68 O           3.6512  -24.4023  -48.4073 O.2       11 UNK        -0.5000 
     69 N           2.3796  -24.5818  -46.5296 N.am      12 UNK        -0.5000 
     70 CA          1.4929  -25.6960  -46.8761 C.3       12 UNK         0.1400 
     71 CB          2.2887  -26.9790  -47.1948 C.3       12 UNK        -0.1800 
     72 C           0.4770  -25.3109  -47.9727 C.2       12 UNK         0.5000 
     73 O           0.0925  -26.1519  -48.7875 O.2       12 UNK        -0.5000 
     74 N           0.0564  -24.0404  -47.9626 N.am      13 UNK        -0.5000 
     75 CA         -0.9834  -23.4893  -48.8229 C.3       13 UNK         0.1400 
     76 CB         -0.6379  -22.0199  -49.1179 C.3       13 UNK        -0.1800 
     77 C          -2.3512  -23.6003  -48.1265 C.2       13 UNK         0.5000 
     78 O          -2.4188  -23.7132  -46.9001 O.2       13 UNK        -0.5000 
     79 N          -3.4263  -23.5313  -48.9201 N.am      14 UNK        -0.5000 
     80 CA         -4.8169  -23.6113  -48.4550 C.3       14 UNK         0.1400 
     81 CB         -5.7308  -23.9243  -49.6515 C.3       14 UNK        -0.1800 
     82 C          -5.3139  -22.3600  -47.6953 C.2       14 UNK         0.5000 
     83 O          -6.4144  -22.3960  -47.1457 O.2       14 UNK        -0.5000 
     84 N          -4.5206  -21.2767  -47.6933 N.am      15 UNK        -0.5000 
     85 CA         -4.6772  -20.0066  -46.9641 C.3       15 UNK         0.1400 
     86 CB         -4.7378  -20.2516  -45.4441 C.3       15 UNK        -0.1800 
     87 C          -5.8408  -19.0972  -47.4094 C.2       15 UNK         0.5000 
     88 O          -5.7727  -17.8905  -47.1743 O.2       15 UNK        -0.5000 
     89 N          -6.8704  -19.6673  -48.0449 N.am      16 UNK        -0.5000 
     90 CA         -8.0981  -18.9979  -48.4861 C.3       16 UNK         0.1400 
     91 CB         -9.1427  -20.0792  -48.8066 C.3       16 UNK        -0.1800 
     92 C          -7.9246  -18.0432  -49.6869 C.2       16 UNK         0.5000 
     93 O          -8.8694  -17.3330  -50.0327 O.2       16 UNK        -0.5000 
     94 N          -6.7411  -18.0416  -50.3037 N.am      17 UNK        -0.5000 
     95 CA         -6.3427  -17.2011  -51.4251 C.3       17 UNK         0.1400 
     96 CB         -6.8622  -17.8110  -52.7406 C.3       17 UNK        -0.1800 
     97 C          -4.8107  -17.0911  -51.4152 C.2       17 UNK         0.5000 
     98 O          -4.1636  -17.7020  -50.5617 O.2       17 UNK        -0.5000 
     99 N          -4.2581  -16.3194  -52.3579 N.am      18 UNK        -0.5000 
    100 CA        -2.8207  -16.2162  -52.6043 C.3       18 UNK         0.1400 
    101 CB        -2.5084  -14.8147  -53.1641 C.3       18 UNK        -0.1800 
    102 C         -2.3662  -17.3769  -53.5134 C.2       18 UNK         0.5000 
    103 O         -2.3553  -18.5221  -53.0644 O.2       18 UNK        -0.5000 
    104 N         -2.0259  -17.0843  -54.7775 N.am      19 UNK        -0.5000 
    105 CA        -1.5088  -18.0434  -55.7629 C.3       19 UNK         0.1400 
    106 CB        -1.2280  -17.3094  -57.0823 C.3       19 UNK        -0.1800 
    107 C         -2.4215  -19.2619  -56.0095 C.2       19 UNK         0.5000 
    108 O         -1.9269  -20.3741  -56.1975 O.2       19 UNK        -0.5000 
    109 N         -3.7418  -19.0441  -55.9551 N.am      20 UNK        -0.5000 
    110 CA        -4.7613  -20.0838  -56.1073 C.3       20 UNK         0.1400 
    111 CB        -6.1314  -19.4150  -56.2958 C.3       20 UNK        -0.1800 
    112 C         -4.8023  -21.1017  -54.9474 C.2       20 UNK         0.5000 
    113 O         -5.3573  -22.1859  -55.1287 O.2       20 UNK        -0.5000 
    114 N         -4.2212  -20.7544  -53.7896 N.am      21 UNK        -0.5000 
    115 CA        -4.1453  -21.6225  -52.6148 C.3       21 UNK         0.1400 
    116 CB        -4.2227  -20.7583  -51.3504 C.3       21 UNK        -0.1800 
    117 C         -2.8749  -22.4901  -52.5814 C.2       21 UNK         0.5000 
    118 O         -2.7863  -23.3581  -51.7114 O.2       21 UNK        -0.5000 
    119 N         -1.9193  -22.2419  -53.4853 N.am      22 UNK        -0.5000 
    120 CA        -0.6379  -22.9607  -53.5748 C.3       22 UNK         0.1400 
    121 C         -0.3411  -23.5479  -54.9834 C.2       22 UNK         0.5000 
    122 N         -0.9083  -23.0286  -56.0657 N.am      22 UNK        -0.7600 
    123 O          0.4037  -24.5178  -55.0952 O.2       22 UNK        -0.5000 
    124 C124        0.5415  -22.1089  -53.0382 C.3       23 UNK        -0.0398 
    125 S125        0.7552  -20.5249  -53.9202 S.3       23 UNK        -0.2404 
    126 C126        2.1974  -19.8151  -53.0624 C.3       23 UNK        -0.0205 
    127 H127       -7.5317  -13.9383  -47.6171 H         1 UNK         0.0600 
    128 H128       -7.2525  -15.6807  -47.5825 H         1 UNK         0.0600 
    129 H129       -7.8592  -14.9130  -49.0523 H         1 UNK         0.0600 
    130 H130       -5.0679  -16.1228  -47.6255 H         1 UNK         0.3000 
    131 H131       -3.2802  -15.2307  -49.6121 H         1 UNK         0.0600 
    132 H132       -2.5118  -16.3636  -46.8646 H         1 UNK         0.0800 
    133 H133       -3.0855  -17.3410  -48.1830 H         1 UNK         0.0800 
    134 H134       -1.1451  -18.9060  -48.5275 H         1 UNK         0.0800 
    135 H135       -1.5838  -18.2816  -50.0971 H         1 UNK         0.0800 
    136 H136       -0.1467  -18.9998  -51.7982 H         1 UNK         0.1150 
    137 H137        4.0270  -19.6743  -51.1016 H         1 UNK         0.1150 
    138 H138        1.5238  -18.2614  -47.9247 H         1 UNK         0.1150 
    139 H139        5.0145  -19.2941  -49.0231 H         1 UNK         0.0800 
    140 H140        4.3407  -17.8780  -48.2569 H         1 UNK         0.0800 
    141 H141        2.2727  -21.4799  -47.5002 H         1 UNK         0.0800 
    142 H142        3.6225  -21.5867  -48.5934 H         1 UNK         0.0800 
    143 H143        5.0125  -22.7404  -46.9477 H         1 UNK         0.0600 
    144 H144        3.1562  -21.8111  -44.9768 H         1 UNK         0.3000 
    145 H145        4.0123  -24.1233  -42.4106 H         1 UNK         0.0600 
    146 H146        4.4421  -22.0150  -41.1362 H         1 UNK         0.0600 
    147 H147        4.7480  -21.1583  -42.6457 H         1 UNK         0.0600 
    148 H148        5.8087  -22.4650  -42.1451 H         1 UNK         0.0600 
    149 H149        2.3072  -21.7660  -42.7850 H         1 UNK         0.3000 
    150 H150       -0.6235  -23.6664  -43.4999 H         1 UNK         0.0600 
    151 H151       -0.4550  -23.8344  -41.0000 H         1 UNK         0.0600 
    152 H152       -1.5239  -22.5305  -41.4954 H         1 UNK         0.0600 
    153 H153        0.1037  -22.1657  -40.9261 H         1 UNK         0.0600 
    154 H154       -0.3249  -20.8999  -43.0088 H         1 UNK         0.3000 
    155 H155        0.8918  -19.8991  -46.2091 H         1 UNK         0.0600 
    156 H156       -1.5643  -20.1517  -46.5097 H         1 UNK         0.0600 
    157 H157       -1.1604  -18.4892  -46.0854 H         1 UNK         0.0600 
    158 H158       -1.8358  -19.5810  -44.8771 H         1 UNK         0.0600 
    159 H159        0.2235  -18.2329  -44.1091 H         1 UNK         0.3000 
    160 H160        3.2553  -18.4131  -42.1738 H         1 UNK         0.0600 
    161 H161        1.9580  -16.4155  -44.0852 H         1 UNK         0.0600 
    162 H162        3.6346  -16.9406  -44.1137 H         1 UNK         0.0600 
    163 H163        3.0396  -15.9862  -42.7602 H         1 UNK         0.0600 
    164 H164        0.6390  -17.0766  -42.0647 H         1 UNK         0.3000 
    165 H165       -0.6109  -19.1779  -39.4840 H         1 UNK         0.0600 
    166 H166       -0.8848  -17.0316  -38.2720 H         1 UNK         0.0600 
    167 H167        0.7944  -17.5426  -38.2148 H         1 UNK         0.0600 
    168 H168        0.3097  -16.2563  -39.3134 H         1 UNK         0.0600 
    169 H169       -1.6722  -16.8342  -40.6957 H         1 UNK         0.3000 
    170 H170       -3.0819  -18.2970  -43.5856 H         1 UNK         0.0600 
    171 H171       -4.6523  -19.0332  -41.7906 H         1 UNK         0.0600 
    172 H172       -4.4737  -17.4769  -40.9883 H         1 UNK         0.0600 
    173 H173       -5.2144  -17.5733  -42.5871 H         1 UNK         0.0600 
    174 H174       -3.5097  -15.7515  -42.5411 H         1 UNK         0.3000 
    175 H175       -2.7548  -14.1228  -44.1042 H         1 UNK         0.0600 
    176 H176       -0.6018  -13.8942  -41.9361 H         1 UNK         0.0600 
    177 H177       -1.4533  -12.5143  -42.6313 H         1 UNK         0.0600 
    178 H178       -2.3368  -13.7396  -41.7384 H         1 UNK         0.0600 
    179 H179       -1.3161  -13.8395  -45.7176 H         1 UNK         0.3000 
    180 H180        1.8870  -12.7733  -46.0381 H         1 UNK         0.0600 
    181 H181        2.7901  -15.0447  -45.9029 H         1 UNK         0.0600 
    182 H182        2.4292  -14.7073  -47.5853 H         1 UNK         0.0600 
    183 H183        1.3479  -15.7316  -46.6399 H         1 UNK         0.0600 
    184 H184       -0.0240  -14.0008  -47.8618 H         1 UNK         0.3000 
    185 H185       -2.1288  -11.2204  -48.1788 H         1 UNK         0.0600 
    186 H186       -0.2578  -10.3949  -49.6189 H         1 UNK         0.0600 
    187 H187        0.0143  -12.0255  -50.2213 H         1 UNK         0.0600 
    188 H188       -1.4960  -11.1867  -50.5796 H         1 UNK         0.0600 
    189 H189       -1.8745  -13.5518  -49.7744 H         1 UNK         0.3000 
    190 H190        2.1615  -24.1220  -45.6558 H         1 UNK         0.3000 
    191 H191        0.9033  -25.8937  -45.9797 H         1 UNK         0.0600 
    192 H192        1.6223  -27.8378  -47.2812 H         1 UNK         0.0600 
    193 H193        3.0062  -27.2038  -46.4056 H         1 UNK         0.0600 
    194 H194        2.8357  -26.8978  -48.1342 H         1 UNK         0.0600 
    195 H195        0.3415  -23.4463  -47.1874 H         1 UNK         0.3000 
    196 H196       -1.0167  -24.0394  -49.7655 H         1 UNK         0.0600 
    197 H197       -0.6166  -21.4215  -48.2082 H         1 UNK         0.0600 
    198 H198        0.3426  -21.9331  -49.5861 H         1 UNK         0.0600 
    199 H199       -1.3626  -21.5690  -49.7969 H         1 UNK         0.0600 
    200 H200       -3.2811  -23.4692  -49.9263 H         1 UNK         0.3000 
    201 H201       -4.8859  -24.4491  -47.7580 H         1 UNK         0.0600 
    202 H202       -6.7549  -24.1053  -49.3226 H         1 UNK         0.0600 
    203 H203       -5.3992  -24.8191  -50.1787 H         1 UNK         0.0600 
    204 H204       -5.7622  -23.1056  -50.3688 H         1 UNK         0.0600 
    205 H205       -3.6593  -21.3629  -48.2112 H         1 UNK         0.3000 
    206 H206       -3.7681  -19.4415  -47.1690 H         1 UNK         0.0600 
    207 H207       -3.8838  -20.8348  -45.1001 H         1 UNK         0.0600 
    208 H208       -4.7354  -19.3080  -44.8988 H         1 UNK         0.0600 
    209 H209       -5.6431  -20.7854  -45.1542 H         1 UNK         0.0600 
    210 H210       -6.8568  -20.6779  -48.1162 H         1 UNK         0.3000 
    211 H211       -8.4708  -18.3978  -47.6536 H         1 UNK         0.0600 
    212 H212       -8.8178  -20.7182  -49.6287 H         1 UNK         0.0600 
    213 H213      -10.0966  -19.6341  -49.0928 H         1 UNK         0.0600 
    214 H214       -9.3304  -20.7154  -47.9413 H         1 UNK         0.0600 
    215 H215       -5.9814  -18.5850  -49.9137 H         1 UNK         0.3000 
    216 H216       -6.7547  -16.1989  -51.2914 H         1 UNK         0.0600 
    217 H217       -7.9465  -17.9213  -52.7257 H         1 UNK         0.0600 
    218 H218       -6.4308  -18.7956  -52.9236 H         1 UNK         0.0600 
    219 H219       -6.6188  -17.1779  -53.5940 H         1 UNK         0.0600 
    220 H220       -4.8593  -15.8509  -53.0197 H         1 UNK         0.3000 
    221 H221       -2.2776  -16.3227  -51.6628 H         1 UNK         0.0600 
    222 H222       -1.4430  -14.7001  -53.3690 H         1 UNK         0.0600 
    223 H223       -3.0543  -14.6063  -54.0850 H         1 UNK         0.0600 
    224 H224       -2.7782  -14.0428  -52.4429 H         1 UNK         0.0600 
    225 H225       -2.0732  -16.1209  -55.0752 H         1 UNK         0.3000 
    226 H226       -0.5592  -18.4181  -55.3805 H         1 UNK         0.0600 
    227 H227       -0.4990  -16.5110  -56.9427 H         1 UNK         0.0600 
    228 H228       -0.8202  -17.9918  -57.8294 H         1 UNK         0.0600 
    229 H229       -2.1345  -16.8691  -57.4993 H         1 UNK         0.0600 
    230 H230       -4.0673  -18.1048  -55.7822 H         1 UNK         0.3000 
    231 H231       -4.5334  -20.6450  -57.0160 H         1 UNK         0.0600 
    232 H232       -6.9157  -20.1602  -56.4356 H         1 UNK         0.0600 
    233 H233       -6.1380  -18.7710  -57.1753 H         1 UNK         0.0600 
    234 H234       -6.4061  -18.8084  -55.4340 H         1 UNK         0.0600 
    235 H235       -3.7359  -19.8658  -53.7155 H         1 UNK         0.3000 
    236 H236       -5.0003  -22.3014  -52.6059 H         1 UNK         0.0600 
    237 H237       -5.1402  -20.1734  -51.3312 H         1 UNK         0.0600 
    238 H238       -4.2141  -21.3685  -50.4521 H         1 UNK         0.0600 
    239 H239       -3.3746  -20.0788  -51.2766 H         1 UNK         0.0600 
    240 H240       -2.0583  -21.5003  -54.1575 H         1 UNK         0.3000 
    241 H241       -0.6918  -23.8407  -52.9309 H         1 UNK         0.0600 
    242 H242       -1.4156  -22.1485  -56.0321 H         1 UNK         0.3800 
    243 H243       -0.7079  -23.4411  -56.9625 H         1 UNK         0.3800 
    244 H244        1.4754  -22.6716  -53.0837 H         1 UNK         0.0800 
    245 H245        0.3752  -21.8900  -51.9838 H         1 UNK         0.0800 
    246 H246        2.5223  -18.9334  -53.6158 H         1 UNK         0.0800 
    247 H247        3.0166  -20.5336  -53.1198 H         1 UNK         0.0800 
@<TRIPOS>BOND
     1    1    2 1    
     2    1  127 1    
     3    1  128 1    
     4    1  129 1    
     5    2    3 2    
     6    2    4 am   BACKBONE|DICT|INTERRES
     7    4    5 1    
     8    4  130 1    
     9    5    6 1    
    10    5   65 1    
    11    5  131 1    
    12    6    7 1    
    13    6  132 1    
    14    6  133 1    
    15    7    8 1    
    16    8    9 1    
    17    8  134 1    
    18    8  135 1    
    19    9   10 ar   
    20    9   14 ar   
    21   10   11 ar   
    22   10  136 1    
    23   11   12 ar   
    24   11  126 1    
    25   12   13 ar   
    26   12  137 1    
    27   13   14 ar   
    28   13   15 1    
    29   14  138 1    
    30   15   16 1    
    31   15  139 1    
    32   15  140 1    
    33   16   17 1    
    34   17   18 1    
    35   17  141 1    
    36   17  142 1    
    37   18   19 1    
    38   18   67 1    
    39   18  143 1    
    40   19   20 am   BACKBONE|DICT|INTERRES
    41   19  144 1    
    42   20   21 2    
    43   20   22 1    
    44   22   23 1    
    45   22   24 1    
    46   22  145 1    
    47   23  146 1    
    48   23  147 1    
    49   23  148 1    
    50   24   25 am   BACKBONE|DICT|INTERRES
    51   24  149 1    
    52   25   26 2    
    53   25   27 1    
    54   27   28 1    
    55   27   29 1    
    56   27  150 1    
    57   28  151 1    
    58   28  152 1    
    59   28  153 1    
    60   29   30 am   BACKBONE|DICT|INTERRES
    61   29  154 1    
    62   30   31 2    
    63   30   32 1    
    64   32   33 1    
    65   32   34 1    
    66   32  155 1    
    67   33  156 1    
    68   33  157 1    
    69   33  158 1    
    70   34   35 am   BACKBONE|DICT|INTERRES
    71   34  159 1    
    72   35   36 2    
    73   35   37 1    
    74   37   38 1    
    75   37   39 1    
    76   37  160 1    
    77   38  161 1    
    78   38  162 1    
    79   38  163 1    
    80   39   40 am   BACKBONE|DICT|INTERRES
    81   39  164 1    
    82   40   41 2    
    83   40   42 1    
    84   42   43 1    
    85   42   44 1    
    86   42  165 1    
    87   43  166 1    
    88   43  167 1    
    89   43  168 1    
    90   44   45 am   BACKBONE|DICT|INTERRES
    91   44  169 1    
    92   45   46 2    
    93   45   47 1    
    94   47   48 1    
    95   47   49 1    
    96   47  170 1    
    97   48  171 1    
    98   48  172 1    
    99   48  173 1    
   100   49   50 am   BACKBONE|DICT|INTERRES
   101   49  174 1    
   102   50   51 2    
   103   50   52 1    
   104   52   53 1    
   105   52   54 1    
   106   52  175 1    
   107   53  176 1    
   108   53  177 1    
   109   53  178 1    
   110   54   55 am   BACKBONE|DICT|INTERRES
   111   54  179 1    
   112   55   56 2    
   113   55   57 1    
   114   57   58 1    
   115   57   59 1    
   116   57  180 1    
   117   58  181 1    
   118   58  182 1    
   119   58  183 1    
   120   59   60 am   BACKBONE|DICT|INTERRES
   121   59  184 1    
   122   60   61 2    
   123   60   62 1    
   124   62   63 1    
   125   62   64 1    
   126   62  185 1    
   127   63  186 1    
   128   63  187 1    
   129   63  188 1    
   130   64   65 am   BACKBONE|DICT|INTERRES
   131   64  189 1    
   132   65   66 2    
   133   67   68 2    
   134   67   69 am   BACKBONE|DICT|INTERRES
   135   69   70 1    
   136   69  190 1    
   137   70   71 1    
   138   70   72 1    
   139   70  191 1    
   140   71  192 1    
   141   71  193 1    
   142   71  194 1    
   143   72   73 2    
   144   72   74 am   BACKBONE|DICT|INTERRES
   145   74   75 1    
   146   74  195 1    
   147   75   76 1    
   148   75   77 1    
   149   75  196 1    
   150   76  197 1    
   151   76  198 1    
   152   76  199 1    
   153   77   78 2    
   154   77   79 am   BACKBONE|DICT|INTERRES
   155   79   80 1    
   156   79  200 1    
   157   80   81 1    
   158   80   82 1    
   159   80  201 1    
   160   81  202 1    
   161   81  203 1    
   162   81  204 1    
   163   82   83 2    
   164   82   84 am   BACKBONE|DICT|INTERRES
   165   84   85 1    
   166   84  205 1    
   167   85   86 1    
   168   85   87 1    
   169   85  206 1    
   170   86  207 1    
   171   86  208 1    
   172   86  209 1    
   173   87   88 2    
   174   87   89 am   BACKBONE|DICT|INTERRES
   175   89   90 1    
   176   89  210 1    
   177   90   91 1    
   178   90   92 1    
   179   90  211 1    
   180   91  212 1    
   181   91  213 1    
   182   91  214 1    
   183   92   93 2    
   184   92   94 am   BACKBONE|DICT|INTERRES
   185   94   95 1    
   186   94  215 1    
   187   95   96 1    
   188   95   97 1    
   189   95  216 1    
   190   96  217 1    
   191   96  218 1    
   192   96  219 1    
   193   97   98 2    
   194   97   99 am   BACKBONE|DICT|INTERRES
   195   99  100 1    
   196   99  220 1    
   197  100  101 1    
   198  100  102 1    
   199  100  221 1    
   200  101  222 1    
   201  101  223 1    
   202  101  224 1    
   203  102  103 2    
   204  102  104 am   BACKBONE|DICT|INTERRES
   205  104  105 1    
   206  104  225 1    
   207  105  106 1    
   208  105  107 1    
   209  105  226 1    
   210  106  227 1    
   211  106  228 1    
   212  106  229 1    
   213  107  108 2    
   214  107  109 am   BACKBONE|DICT|INTERRES
   215  109  110 1    
   216  109  230 1    
   217  110  111 1    
   218  110  112 1    
   219  110  231 1    
   220  111  232 1    
   221  111  233 1    
   222  111  234 1    
   223  112  113 2    
   224  112  114 am   BACKBONE|DICT|INTERRES
   225  114  115 1    
   226  114  235 1    
   227  115  116 1    
   228  115  117 1    
   229  115  236 1    
   230  116  237 1    
   231  116  238 1    
   232  116  239 1    
   233  117  118 2    
   234  117  119 am   BACKBONE|DICT|INTERRES
   235  119  120 1    
   236  119  240 1    
   237  120  121 1    
   238  120  124 1    
   239  120  241 1    
   240  121  122 am   BACKBONE|DICT|INTERRES
   241  121  123 2    
   242  122  242 1    
   243  122  243 1    
   244  124  125 1    
   245  124  244 1    
   246  124  245 1    
   247  125  126 1    
   248  126  246 1    
   249  126  247 1    
@<TRIPOS>SUBSTRUCTURE
     1 UNK         1 GROUP             0       ****    0 ROOT    
