@<TRIPOS>MOLECULE
3R540
247   249    1
SMALL
USER_CHARGES


@<TRIPOS>ATOM
      1 CA          1.5020   -9.4869  -46.3057 C.3       0 UNK        -0.1800 
      2 C           0.7831  -10.8263  -46.2421 C.2       0 UNK         0.5000 
      3 O          -0.3814  -10.8751  -45.8441 O.2       0 UNK        -0.5000 
      4 N           1.4757  -11.9123  -46.6169 N.am      1 UNK        -0.5000 
      5 CA          0.9975  -13.3000  -46.5918 C.3       1 UNK         0.1400 
      6 C6         -0.0713  -13.5762  -47.6861 C.3       23 UNK        -0.0398 
      7 S7         -0.3986  -15.3571  -47.9296 S.3       23 UNK        -0.2404 
      8 C8          0.4868  -15.6841  -49.4821 C.3       23 UNK        -0.0205 
      9 C9          0.3284  -17.1335  -49.9175 C.ar      23 UNK        -0.0193 
     10 C10        -0.8302  -17.5419  -50.5830 C.ar      23 UNK        -0.1150 
     11 C11        -0.9829  -18.8661  -51.0209 C.ar      23 UNK        -0.0193 
     12 C12         0.0552  -19.7739  -50.7865 C.ar      23 UNK        -0.1150 
     13 C13         1.2168  -19.3828  -50.1110 C.ar      23 UNK        -0.0193 
     14 C14         1.3440  -18.0606  -49.6762 C.ar      23 UNK        -0.1150 
     15 C15         2.3547  -20.3690  -49.8730 C.3       23 UNK        -0.0205 
     16 S16         1.8305  -21.9036  -49.0426 S.3       23 UNK        -0.2404 
     17 C17         1.2589  -21.2804  -47.4266 C.3       23 UNK        -0.0398 
     18 CA         -0.0762  -21.9179  -46.9713 C.3       11 UNK         0.1400 
     19 N          -0.2703  -21.7831  -45.5240 N.am      11 UNK        -0.5000 
     20 C          -1.2572  -22.3562  -44.8203 C.2       10 UNK         0.5000 
     21 O          -2.0919  -23.1172  -45.3065 O.2       10 UNK        -0.5000 
     22 CA         -1.3671  -21.9697  -43.3341 C.3       10 UNK         0.1400 
     23 CB         -0.3726  -22.7667  -42.4773 C.3       10 UNK        -0.1800 
     24 N          -1.1698  -20.5366  -43.1180 N.am      10 UNK        -0.5000 
     25 C          -1.9762  -19.5803  -43.6000 C.2       9 UNK         0.5000 
     26 O          -3.0146  -19.8097  -44.2203 O.2       9 UNK        -0.5000 
     27 CA         -1.5162  -18.1249  -43.3977 C.3       9 UNK         0.1400 
     28 CB         -1.8458  -17.6521  -41.9709 C.3       9 UNK        -0.1800 
     29 N          -0.0880  -17.9474  -43.6848 N.am      9 UNK        -0.5000 
     30 C           0.4687  -18.1635  -44.8878 C.2       8 UNK         0.5000 
     31 O          -0.1787  -18.4530  -45.8906 O.2       8 UNK        -0.5000 
     32 CA          2.0047  -18.1352  -44.9832 C.3       8 UNK         0.1400 
     33 CB          2.5344  -16.7298  -45.2835 C.3       8 UNK        -0.1800 
     34 N           2.6392  -18.6538  -43.7748 N.am      8 UNK        -0.5000 
     35 C           2.6499  -19.9491  -43.4330 C.2       7 UNK         0.5000 
     36 O           2.1770  -20.8432  -44.1340 O.2       7 UNK        -0.5000 
     37 CA          3.2379  -20.2878  -42.0512 C.3       7 UNK         0.1400 
     38 CB          4.7681  -20.3974  -42.1237 C.3       7 UNK        -0.1800 
     39 N           2.8676  -19.2959  -41.0394 N.am      7 UNK        -0.5000 
     40 C           1.6139  -19.0875  -40.6117 C.2       6 UNK         0.5000 
     41 O           0.6547  -19.7689  -40.9710 O.2       6 UNK        -0.5000 
     42 CA          1.3865  -17.8925  -39.6661 C.3       6 UNK         0.1400 
     43 CB          1.4764  -18.3418  -38.2005 C.3       6 UNK        -0.1800 
     44 N           2.3323  -16.7970  -39.8969 N.am      6 UNK        -0.5000 
     45 C           2.3505  -16.0219  -40.9896 C.2       5 UNK         0.5000 
     46 O           1.5490  -16.1278  -41.9199 O.2       5 UNK        -0.5000 
     47 CA          3.5169  -15.0318  -41.0864 C.3       5 UNK         0.1400 
     48 CB          4.6962  -15.6727  -41.8415 C.3       5 UNK        -0.1800 
     49 N           3.1140  -13.7979  -41.7584 N.am      5 UNK        -0.5000 
     50 C           3.7139  -12.6153  -41.5591 C.2       4 UNK         0.5000 
     51 O           4.6374  -12.4486  -40.7605 O.2       4 UNK        -0.5000 
     52 CA          3.2179  -11.4100  -42.3738 C.3       4 UNK         0.1400 
     53 CB          3.8829  -11.3808  -43.7596 C.3       4 UNK        -0.1800 
     54 N           1.7650  -11.4102  -42.5266 N.am      4 UNK        -0.5000 
     55 C           0.9155  -10.7713  -41.7094 C.2       3 UNK         0.5000 
     56 O           1.2768  -10.1192  -40.7289 O.2       3 UNK        -0.5000 
     57 CA         -0.5889  -10.8467  -42.0396 C.3       3 UNK         0.1400 
     58 CB         -1.0631   -9.5347  -42.6839 C.3       3 UNK        -0.1800 
     59 N          -0.9189  -11.9598  -42.9289 N.am      3 UNK        -0.5000 
     60 C          -1.0655  -13.2283  -42.5206 C.2       2 UNK         0.5000 
     61 O          -1.0266  -13.5723  -41.3392 O.2       2 UNK        -0.5000 
     62 CA         -1.2698  -14.2982  -43.6120 C.3       2 UNK         0.1400 
     63 CB         -2.7650  -14.6044  -43.7880 C.3       2 UNK        -0.1800 
     64 N          -0.7047  -13.9493  -44.9149 N.am      2 UNK        -0.5000 
     65 C           0.5871  -13.6884  -45.1524 C.2       1 UNK         0.5000 
     66 O           1.4469  -13.6885  -44.2706 O.2       1 UNK        -0.5000 
     67 C          -1.2864  -21.3843  -47.7705 C.2       11 UNK         0.5000 
     68 O          -1.7601  -22.0682  -48.6768 O.2       11 UNK        -0.5000 
     69 N          -1.8019  -20.2088  -47.3821 N.am      12 UNK        -0.5000 
     70 CA         -3.0011  -19.5938  -47.9492 C.3       12 UNK         0.1400 
     71 CB         -3.1854  -18.1788  -47.3836 C.3       12 UNK        -0.1800 
     72 C          -4.2643  -20.4460  -47.7437 C.2       12 UNK         0.5000 
     73 O          -5.0215  -20.6429  -48.6944 O.2       12 UNK        -0.5000 
     74 N          -4.4473  -20.9647  -46.5212 N.am      13 UNK        -0.5000 
     75 CA         -5.5538  -21.8472  -46.1466 C.3       13 UNK         0.1400 
     76 CB         -5.5518  -22.0483  -44.6236 C.3       13 UNK        -0.1800 
     77 C          -5.5208  -23.2037  -46.8766 C.2       13 UNK         0.5000 
     78 O          -6.5701  -23.6948  -47.2942 O.2       13 UNK        -0.5000 
     79 N          -4.3192  -23.7742  -47.0338 N.am      14 UNK        -0.5000 
     80 CA         -4.0752  -25.0291  -47.7478 C.3       14 UNK         0.1400 
     81 CB         -2.7094  -25.5845  -47.3136 C.3       14 UNK        -0.1800 
     82 C          -4.1203  -24.8885  -49.2821 C.2       14 UNK         0.5000 
     83 O          -4.1611  -25.9073  -49.9737 O.2       14 UNK        -0.5000 
     84 N          -4.0582  -23.6489  -49.7888 N.am      15 UNK        -0.5000 
     85 CA         -3.9179  -23.2227  -51.1864 C.3       15 UNK         0.1400 
     86 CB         -5.0501  -23.7725  -52.0731 C.3       15 UNK        -0.1800 
     87 C          -2.5155  -23.5169  -51.7567 C.2       15 UNK         0.5000 
     88 O          -1.8727  -22.6026  -52.2734 O.2       15 UNK        -0.5000 
     89 N          -2.0579  -24.7672  -51.5923 N.am      16 UNK        -0.5000 
     90 CA         -0.6879  -25.2714  -51.7195 C.3       16 UNK         0.1400 
     91 CB          0.0907  -24.9267  -50.4340 C.3       16 UNK        -0.1800 
     92 C           0.0421  -24.8330  -53.0055 C.2       16 UNK         0.5000 
     93 O          -0.1085  -25.4870  -54.0378 O.2       16 UNK        -0.5000 
     94 N           0.8188  -23.7431  -52.9175 N.am      17 UNK        -0.5000 
     95 CA          1.5913  -23.1459  -54.0099 C.3       17 UNK         0.1400 
     96 CB          2.4430  -22.0004  -53.4436 C.3       17 UNK        -0.1800 
     97 C           0.7329  -22.6423  -55.1876 C.2       17 UNK         0.5000 
     98 O           1.2229  -22.6044  -56.3171 O.2       17 UNK        -0.5000 
     99 N          -0.5275  -22.2914  -54.9118 N.am      18 UNK        -0.5000 
    100 CA        -1.5464  -21.9646  -55.9000 C.3       18 UNK         0.1400 
    101 CB        -1.8010  -20.4477  -55.9042 C.3       18 UNK        -0.1800 
    102 C         -2.7840  -22.7967  -55.5457 C.2       18 UNK         0.5000 
    103 O         -3.7704  -22.2631  -55.0386 O.2       18 UNK        -0.5000 
    104 N         -2.6728  -24.1132  -55.7752 N.am      19 UNK        -0.5000 
    105 CA        -3.6114  -25.1659  -55.3686 C.3       19 UNK         0.1400 
    106 CB        -3.0928  -26.5172  -55.8828 C.3       19 UNK        -0.1800 
    107 C         -5.0791  -24.9652  -55.7960 C.2       19 UNK         0.5000 
    108 O         -5.9735  -25.5029  -55.1421 O.2       19 UNK        -0.5000 
    109 N         -5.3149  -24.1702  -56.8476 N.am      20 UNK        -0.5000 
    110 CA        -6.6289  -23.7418  -57.3332 C.3       20 UNK         0.1400 
    111 CB        -6.4784  -23.2682  -58.7903 C.3       20 UNK        -0.1800 
    112 C         -7.2862  -22.6753  -56.4226 C.2       20 UNK         0.5000 
    113 O         -7.7116  -21.6259  -56.9072 O.2       20 UNK        -0.5000 
    114 N         -7.3600  -22.9763  -55.1187 N.am      21 UNK        -0.5000 
    115 CA        -7.9772  -22.1983  -54.0391 C.3       21 UNK         0.1400 
    116 CB        -9.5027  -22.0940  -54.2511 C.3       21 UNK        -0.1800 
    117 C         -7.3173  -20.8277  -53.7639 C.2       21 UNK         0.5000 
    118 O         -7.9840  -19.9351  -53.2361 O.2       21 UNK        -0.5000 
    119 N         -6.0216  -20.6869  -54.0802 N.am      22 UNK        -0.5000 
    120 CA        -5.2238  -19.4629  -53.8992 C.3       22 UNK         0.1400 
    121 C         -5.7153  -18.2653  -54.7774 C.2       22 UNK         0.5000 
    122 N         -5.3945  -17.0281  -54.4248 N.am      22 UNK        -0.7600 
    123 O         -6.3456  -18.4450  -55.8169 O.2       22 UNK        -0.5000 
    124 C124       -5.0148  -19.1384  -52.3893 C.3       23 UNK        -0.0398 
    125 S125       -3.5388  -18.1226  -52.0333 S.3       23 UNK        -0.2404 
    126 C126       -2.2445  -19.3766  -51.7260 C.3       23 UNK        -0.0205 
    127 H127        1.5538   -9.0438  -45.3111 H         1 UNK         0.0600 
    128 H128        0.9610   -8.8017  -46.9581 H         1 UNK         0.0600 
    129 H129        2.5184   -9.5893  -46.6863 H         1 UNK         0.0600 
    130 H130        2.4365  -11.7980  -46.9078 H         1 UNK         0.3000 
    131 H131        1.8704  -13.9105  -46.8271 H         1 UNK         0.0600 
    132 H132        0.2647  -13.1537  -48.6340 H         1 UNK         0.0800 
    133 H133       -1.0103  -13.0668  -47.4650 H         1 UNK         0.0800 
    134 H134        1.5421  -15.4374  -49.3553 H         1 UNK         0.0800 
    135 H135        0.1056  -15.0260  -50.2644 H         1 UNK         0.0800 
    136 H136       -1.6069  -16.8103  -50.7455 H         1 UNK         0.1150 
    137 H137       -0.0499  -20.7980  -51.1181 H         1 UNK         0.1150 
    138 H138        2.2401  -17.7465  -49.1598 H         1 UNK         0.1150 
    139 H139        2.8031  -20.6231  -50.8330 H         1 UNK         0.0800 
    140 H140        3.1482  -19.9103  -49.2808 H         1 UNK         0.0800 
    141 H141        1.1834  -20.1929  -47.4423 H         1 UNK         0.0800 
    142 H142        2.0468  -21.5155  -46.7104 H         1 UNK         0.0800 
    143 H143       -0.0151  -22.9910  -47.1660 H         1 UNK         0.0600 
    144 H144        0.4057  -21.2122  -45.0280 H         1 UNK         0.3000 
    145 H145       -2.3761  -22.2199  -43.0001 H         1 UNK         0.0600 
    146 H146       -0.4919  -22.5352  -41.4187 H         1 UNK         0.0600 
    147 H147        0.6607  -22.5535  -42.7501 H         1 UNK         0.0600 
    148 H148       -0.5289  -23.8395  -42.5964 H         1 UNK         0.0600 
    149 H149       -0.3684  -20.2620  -42.5575 H         1 UNK         0.3000 
    150 H150       -2.0672  -17.5013  -44.1027 H         1 UNK         0.0600 
    151 H151       -2.9241  -17.5520  -41.8433 H         1 UNK         0.0600 
    152 H152       -1.4007  -16.6858  -41.7401 H         1 UNK         0.0600 
    153 H153       -1.5017  -18.3580  -41.2164 H         1 UNK         0.0600 
    154 H154        0.5060  -17.6479  -42.9207 H         1 UNK         0.3000 
    155 H155        2.2908  -18.7752  -45.8201 H         1 UNK         0.0600 
    156 H156        3.6040  -16.7486  -45.4918 H         1 UNK         0.0600 
    157 H157        2.0396  -16.3058  -46.1574 H         1 UNK         0.0600 
    158 H158        2.3720  -16.0576  -44.4436 H         1 UNK         0.0600 
    159 H159        3.0075  -17.9743  -43.1270 H         1 UNK         0.3000 
    160 H160        2.8372  -21.2565  -41.7449 H         1 UNK         0.0600 
    161 H161        5.1868  -20.7044  -41.1652 H         1 UNK         0.0600 
    162 H162        5.2294  -19.4494  -42.4039 H         1 UNK         0.0600 
    163 H163        5.0706  -21.1409  -42.8624 H         1 UNK         0.0600 
    164 H164        3.6048  -18.7075  -40.6815 H         1 UNK         0.3000 
    165 H165        0.3786  -17.5135  -39.8453 H         1 UNK         0.0600 
    166 H166        1.2460  -17.5206  -37.5215 H         1 UNK         0.0600 
    167 H167        0.7642  -19.1419  -37.9938 H         1 UNK         0.0600 
    168 H168        2.4707  -18.7151  -37.9524 H         1 UNK         0.0600 
    169 H169        3.0303  -16.6519  -39.1813 H         1 UNK         0.3000 
    170 H170        3.8345  -14.7957  -40.0683 H         1 UNK         0.0600 
    171 H171        4.4383  -15.8868  -42.8793 H         1 UNK         0.0600 
    172 H172        5.5670  -15.0171  -41.8447 H         1 UNK         0.0600 
    173 H173        5.0024  -16.6105  -41.3764 H         1 UNK         0.0600 
    174 H174        2.3648  -13.8855  -42.4397 H         1 UNK         0.3000 
    175 H175        3.5285  -10.5049  -41.8473 H         1 UNK         0.0600 
    176 H176        3.6437  -12.2664  -44.3480 H         1 UNK         0.0600 
    177 H177        3.5707  -10.5047  -44.3272 H         1 UNK         0.0600 
    178 H178        4.9687  -11.3362  -43.6672 H         1 UNK         0.0600 
    179 H179        1.3959  -12.0025  -43.2621 H         1 UNK         0.3000 
    180 H180       -1.1279  -10.9723  -41.0981 H         1 UNK         0.0600 
    181 H181       -2.1301   -9.5657  -42.9049 H         1 UNK         0.0600 
    182 H182       -0.5333   -9.3263  -43.6137 H         1 UNK         0.0600 
    183 H183       -0.8944   -8.6892  -42.0159 H         1 UNK         0.0600 
    184 H184       -0.9502  -11.7545  -43.9215 H         1 UNK         0.3000 
    185 H185       -0.7554  -15.1999  -43.2819 H         1 UNK         0.0600 
    186 H186       -3.3213  -13.7167  -44.0919 H         1 UNK         0.0600 
    187 H187       -2.9301  -15.3728  -44.5428 H         1 UNK         0.0600 
    188 H188       -3.2028  -14.9624  -42.8554 H         1 UNK         0.0600 
    189 H189       -1.3526  -13.9160  -45.6880 H         1 UNK         0.3000 
    190 H190       -1.3136  -19.6698  -46.6703 H         1 UNK         0.3000 
    191 H191       -2.8436  -19.4967  -49.0201 H         1 UNK         0.0600 
    192 H192       -2.3169  -17.5591  -47.6019 H         1 UNK         0.0600 
    193 H193       -3.3275  -18.1854  -46.3035 H         1 UNK         0.0600 
    194 H194       -4.0529  -17.6906  -47.8287 H         1 UNK         0.0600 
    195 H195       -3.7930  -20.7158  -45.7844 H         1 UNK         0.3000 
    196 H196       -6.4846  -21.3467  -46.4210 H         1 UNK         0.0600 
    197 H197       -5.6526  -21.0971  -44.1005 H         1 UNK         0.0600 
    198 H198       -4.6308  -22.5210  -44.2813 H         1 UNK         0.0600 
    199 H199       -6.3829  -22.6818  -44.3115 H         1 UNK         0.0600 
    200 H200       -3.5092  -23.3374  -46.6012 H         1 UNK         0.3000 
    201 H201       -4.8442  -25.7493  -47.4614 H         1 UNK         0.0600 
    202 H202       -2.6780  -25.7580  -46.2379 H         1 UNK         0.0600 
    203 H203       -1.9009  -24.8966  -47.5654 H         1 UNK         0.0600 
    204 H204       -2.4961  -26.5362  -47.8021 H         1 UNK         0.0600 
    205 H205       -3.9464  -22.8996  -49.1174 H         1 UNK         0.3000 
    206 H206       -4.0254  -22.1389  -51.1630 H         1 UNK         0.0600 
    207 H207       -4.9747  -24.8492  -52.2245 H         1 UNK         0.0600 
    208 H208       -6.0253  -23.5645  -51.6338 H         1 UNK         0.0600 
    209 H209       -5.0323  -23.3058  -53.0557 H         1 UNK         0.0600 
    210 H210       -2.7137  -25.4169  -51.1684 H         1 UNK         0.3000 
    211 H211       -0.7640  -26.3584  -51.7718 H         1 UNK         0.0600 
    212 H212        0.0517  -23.8602  -50.2147 H         1 UNK         0.0600 
    213 H213        1.1388  -25.2199  -50.5067 H         1 UNK         0.0600 
    214 H214       -0.3305  -25.4482  -49.5745 H         1 UNK         0.0600 
    215 H215        0.8455  -23.2571  -52.0331 H         1 UNK         0.3000 
    216 H216        2.2619  -23.9147  -54.3986 H         1 UNK         0.0600 
    217 H217        3.0693  -21.5581  -54.2194 H         1 UNK         0.0600 
    218 H218        3.1063  -22.3540  -52.6540 H         1 UNK         0.0600 
    219 H219        1.8197  -21.2051  -53.0327 H         1 UNK         0.0600 
    220 H220       -0.8639  -22.3913  -53.9562 H         1 UNK         0.3000 
    221 H221       -1.2327  -22.2616  -56.9029 H         1 UNK         0.0600 
    222 H222       -2.0515  -20.0781  -54.9123 H         1 UNK         0.0600 
    223 H223       -0.9189  -19.9058  -56.2451 H         1 UNK         0.0600 
    224 H224       -2.6229  -20.1890  -56.5728 H         1 UNK         0.0600 
    225 H225       -1.7995  -24.4443  -56.1602 H         1 UNK         0.3000 
    226 H226       -3.5983  -25.1951  -54.2782 H         1 UNK         0.0600 
    227 H227       -2.1010  -26.7371  -55.4878 H         1 UNK         0.0600 
    228 H228       -3.7488  -27.3327  -55.5751 H         1 UNK         0.0600 
    229 H229       -3.0332  -26.5359  -56.9716 H         1 UNK         0.0600 
    230 H230       -4.5171  -23.7435  -57.2943 H         1 UNK         0.3000 
    231 H231       -7.2935  -24.6082  -57.3352 H         1 UNK         0.0600 
    232 H232       -7.4449  -22.9966  -59.2168 H         1 UNK         0.0600 
    233 H233       -6.0591  -24.0537  -59.4193 H         1 UNK         0.0600 
    234 H234       -5.8282  -22.3955  -58.8640 H         1 UNK         0.0600 
    235 H235       -6.9654  -23.8716  -54.8445 H         1 UNK         0.3000 
    236 H236       -7.8218  -22.7828  -53.1320 H         1 UNK         0.0600 
    237 H237       -9.7499  -21.4605  -55.1034 H         1 UNK         0.0600 
    238 H238       -9.9458  -23.0752  -54.4218 H         1 UNK         0.0600 
    239 H239       -9.9935  -21.6682  -53.3751 H         1 UNK         0.0600 
    240 H240       -5.5286  -21.4525  -54.5286 H         1 UNK         0.3000 
    241 H241       -4.2500  -19.7185  -54.3116 H         1 UNK         0.0600 
    242 H242       -4.8401  -16.8586  -53.5977 H         1 UNK         0.3800 
    243 H243       -5.6924  -16.2547  -54.9984 H         1 UNK         0.3800 
    244 H244       -4.9332  -20.0602  -51.8134 H         1 UNK         0.0800 
    245 H245       -5.8907  -18.6271  -51.9872 H         1 UNK         0.0800 
    246 H246       -2.6632  -20.1883  -51.1323 H         1 UNK         0.0800 
    247 H247       -1.9568  -19.8203  -52.6779 H         1 UNK         0.0800 
@<TRIPOS>BOND
     1    1    2 1    
     2    1  127 1    
     3    1  128 1    
     4    1  129 1    
     5    2    3 2    
     6    2    4 am   BACKBONE|DICT|INTERRES
     7    4    5 1    
     8    4  130 1    
     9    5    6 1    
    10    5   65 1    
    11    5  131 1    
    12    6    7 1    
    13    6  132 1    
    14    6  133 1    
    15    7    8 1    
    16    8    9 1    
    17    8  134 1    
    18    8  135 1    
    19    9   10 ar   
    20    9   14 ar   
    21   10   11 ar   
    22   10  136 1    
    23   11   12 ar   
    24   11  126 1    
    25   12   13 ar   
    26   12  137 1    
    27   13   14 ar   
    28   13   15 1    
    29   14  138 1    
    30   15   16 1    
    31   15  139 1    
    32   15  140 1    
    33   16   17 1    
    34   17   18 1    
    35   17  141 1    
    36   17  142 1    
    37   18   19 1    
    38   18   67 1    
    39   18  143 1    
    40   19   20 am   BACKBONE|DICT|INTERRES
    41   19  144 1    
    42   20   21 2    
    43   20   22 1    
    44   22   23 1    
    45   22   24 1    
    46   22  145 1    
    47   23  146 1    
    48   23  147 1    
    49   23  148 1    
    50   24   25 am   BACKBONE|DICT|INTERRES
    51   24  149 1    
    52   25   26 2    
    53   25   27 1    
    54   27   28 1    
    55   27   29 1    
    56   27  150 1    
    57   28  151 1    
    58   28  152 1    
    59   28  153 1    
    60   29   30 am   BACKBONE|DICT|INTERRES
    61   29  154 1    
    62   30   31 2    
    63   30   32 1    
    64   32   33 1    
    65   32   34 1    
    66   32  155 1    
    67   33  156 1    
    68   33  157 1    
    69   33  158 1    
    70   34   35 am   BACKBONE|DICT|INTERRES
    71   34  159 1    
    72   35   36 2    
    73   35   37 1    
    74   37   38 1    
    75   37   39 1    
    76   37  160 1    
    77   38  161 1    
    78   38  162 1    
    79   38  163 1    
    80   39   40 am   BACKBONE|DICT|INTERRES
    81   39  164 1    
    82   40   41 2    
    83   40   42 1    
    84   42   43 1    
    85   42   44 1    
    86   42  165 1    
    87   43  166 1    
    88   43  167 1    
    89   43  168 1    
    90   44   45 am   BACKBONE|DICT|INTERRES
    91   44  169 1    
    92   45   46 2    
    93   45   47 1    
    94   47   48 1    
    95   47   49 1    
    96   47  170 1    
    97   48  171 1    
    98   48  172 1    
    99   48  173 1    
   100   49   50 am   BACKBONE|DICT|INTERRES
   101   49  174 1    
   102   50   51 2    
   103   50   52 1    
   104   52   53 1    
   105   52   54 1    
   106   52  175 1    
   107   53  176 1    
   108   53  177 1    
   109   53  178 1    
   110   54   55 am   BACKBONE|DICT|INTERRES
   111   54  179 1    
   112   55   56 2    
   113   55   57 1    
   114   57   58 1    
   115   57   59 1    
   116   57  180 1    
   117   58  181 1    
   118   58  182 1    
   119   58  183 1    
   120   59   60 am   BACKBONE|DICT|INTERRES
   121   59  184 1    
   122   60   61 2    
   123   60   62 1    
   124   62   63 1    
   125   62   64 1    
   126   62  185 1    
   127   63  186 1    
   128   63  187 1    
   129   63  188 1    
   130   64   65 am   BACKBONE|DICT|INTERRES
   131   64  189 1    
   132   65   66 2    
   133   67   68 2    
   134   67   69 am   BACKBONE|DICT|INTERRES
   135   69   70 1    
   136   69  190 1    
   137   70   71 1    
   138   70   72 1    
   139   70  191 1    
   140   71  192 1    
   141   71  193 1    
   142   71  194 1    
   143   72   73 2    
   144   72   74 am   BACKBONE|DICT|INTERRES
   145   74   75 1    
   146   74  195 1    
   147   75   76 1    
   148   75   77 1    
   149   75  196 1    
   150   76  197 1    
   151   76  198 1    
   152   76  199 1    
   153   77   78 2    
   154   77   79 am   BACKBONE|DICT|INTERRES
   155   79   80 1    
   156   79  200 1    
   157   80   81 1    
   158   80   82 1    
   159   80  201 1    
   160   81  202 1    
   161   81  203 1    
   162   81  204 1    
   163   82   83 2    
   164   82   84 am   BACKBONE|DICT|INTERRES
   165   84   85 1    
   166   84  205 1    
   167   85   86 1    
   168   85   87 1    
   169   85  206 1    
   170   86  207 1    
   171   86  208 1    
   172   86  209 1    
   173   87   88 2    
   174   87   89 am   BACKBONE|DICT|INTERRES
   175   89   90 1    
   176   89  210 1    
   177   90   91 1    
   178   90   92 1    
   179   90  211 1    
   180   91  212 1    
   181   91  213 1    
   182   91  214 1    
   183   92   93 2    
   184   92   94 am   BACKBONE|DICT|INTERRES
   185   94   95 1    
   186   94  215 1    
   187   95   96 1    
   188   95   97 1    
   189   95  216 1    
   190   96  217 1    
   191   96  218 1    
   192   96  219 1    
   193   97   98 2    
   194   97   99 am   BACKBONE|DICT|INTERRES
   195   99  100 1    
   196   99  220 1    
   197  100  101 1    
   198  100  102 1    
   199  100  221 1    
   200  101  222 1    
   201  101  223 1    
   202  101  224 1    
   203  102  103 2    
   204  102  104 am   BACKBONE|DICT|INTERRES
   205  104  105 1    
   206  104  225 1    
   207  105  106 1    
   208  105  107 1    
   209  105  226 1    
   210  106  227 1    
   211  106  228 1    
   212  106  229 1    
   213  107  108 2    
   214  107  109 am   BACKBONE|DICT|INTERRES
   215  109  110 1    
   216  109  230 1    
   217  110  111 1    
   218  110  112 1    
   219  110  231 1    
   220  111  232 1    
   221  111  233 1    
   222  111  234 1    
   223  112  113 2    
   224  112  114 am   BACKBONE|DICT|INTERRES
   225  114  115 1    
   226  114  235 1    
   227  115  116 1    
   228  115  117 1    
   229  115  236 1    
   230  116  237 1    
   231  116  238 1    
   232  116  239 1    
   233  117  118 2    
   234  117  119 am   BACKBONE|DICT|INTERRES
   235  119  120 1    
   236  119  240 1    
   237  120  121 1    
   238  120  124 1    
   239  120  241 1    
   240  121  122 am   BACKBONE|DICT|INTERRES
   241  121  123 2    
   242  122  242 1    
   243  122  243 1    
   244  124  125 1    
   245  124  244 1    
   246  124  245 1    
   247  125  126 1    
   248  126  246 1    
   249  126  247 1    
@<TRIPOS>SUBSTRUCTURE
     1 UNK         1 GROUP             0       ****    0 ROOT    
