@<TRIPOS>MOLECULE
3R540
247   249    1
SMALL
USER_CHARGES


@<TRIPOS>ATOM
      1 CA          3.0254   -9.7010  -47.3783 C.3       0 UNK        -0.1800 
      2 C           2.4066  -11.0168  -46.9307 C.2       0 UNK         0.5000 
      3 O           2.6070  -11.4289  -45.7880 O.2       0 UNK        -0.5000 
      4 N           1.6529  -11.6785  -47.8194 N.am      1 UNK        -0.5000 
      5 CA          0.9539  -12.9406  -47.5522 C.3       1 UNK         0.1400 
      6 C6          0.2868  -13.5103  -48.8271 C.3       23 UNK        -0.0398 
      7 S7          0.1627  -15.3312  -48.7904 S.3       23 UNK        -0.2404 
      8 C8          1.6106  -15.7794  -49.7936 C.3       23 UNK        -0.0205 
      9 C9          1.6165  -17.2509  -50.1774 C.ar      23 UNK        -0.0193 
     10 C10         0.8505  -17.6895  -51.2610 C.ar      23 UNK        -0.1150 
     11 C11         0.9239  -19.0161  -51.6940 C.ar      23 UNK        -0.0193 
     12 C12         1.7666  -19.9099  -51.0266 C.ar      23 UNK        -0.1150 
     13 C13         2.5309  -19.4874  -49.9336 C.ar      23 UNK        -0.0193 
     14 C14         2.4418  -18.1580  -49.5063 C.ar      23 UNK        -0.1150 
     15 C15         3.5149  -20.4414  -49.2670 C.3       23 UNK        -0.0205 
     16 S16         2.7146  -21.8626  -48.4588 S.3       23 UNK        -0.2404 
     17 C17         1.8382  -21.0601  -47.0749 C.3       23 UNK        -0.0398 
     18 CA          0.3883  -21.5723  -46.9121 C.3       11 UNK         0.1400 
     19 N          -0.1429  -21.2928  -45.5705 N.am      11 UNK        -0.5000 
     20 C          -1.3439  -21.6729  -45.1053 C.2       10 UNK         0.5000 
     21 O          -2.1789  -22.2824  -45.7738 O.2       10 UNK        -0.5000 
     22 CA         -1.6929  -21.2617  -43.6650 C.3       10 UNK         0.1400 
     23 CB         -0.8933  -22.0798  -42.6397 C.3       10 UNK        -0.1800 
     24 N          -1.4692  -19.8358  -43.4461 N.am      10 UNK        -0.5000 
     25 C          -2.1854  -18.8608  -44.0229 C.2       9 UNK         0.5000 
     26 O          -3.1874  -19.0591  -44.7092 O.2       9 UNK        -0.5000 
     27 CA         -1.6729  -17.4228  -43.8259 C.3       9 UNK         0.1400 
     28 CB         -2.1899  -16.8464  -42.4965 C.3       9 UNK        -0.1800 
     29 N          -0.2096  -17.3359  -43.8823 N.am      9 UNK        -0.5000 
     30 C           0.5252  -17.6297  -44.9670 C.2       8 UNK         0.5000 
     31 O           0.0468  -17.9649  -46.0482 O.2       8 UNK        -0.5000 
     32 CA          2.0542  -17.5976  -44.8030 C.3       8 UNK         0.1400 
     33 CB          2.6091  -16.1837  -45.0367 C.3       8 UNK        -0.1800 
     34 N           2.4699  -18.0922  -43.4904 N.am      8 UNK        -0.5000 
     35 C           2.3846  -19.3783  -43.1171 C.2       7 UNK         0.5000 
     36 O           1.9892  -20.2772  -43.8582 O.2       7 UNK        -0.5000 
     37 CA          2.7398  -19.7054  -41.6550 C.3       7 UNK         0.1400 
     38 CB          4.2594  -19.8481  -41.4848 C.3       7 UNK        -0.1800 
     39 N           2.2391  -18.6958  -40.7223 N.am      7 UNK        -0.5000 
     40 C           0.9431  -18.4078  -40.5329 C.2       6 UNK         0.5000 
     41 O           0.0265  -19.0374  -41.0588 O.2       6 UNK        -0.5000 
     42 CA          0.6183  -17.1816  -39.6559 C.3       6 UNK         0.1400 
     43 CB          0.2864  -17.6187  -38.2219 C.3       6 UNK        -0.1800 
     44 N           1.7034  -16.1962  -39.6230 N.am      6 UNK        -0.5000 
     45 C           2.1211  -15.4844  -40.6781 C.2       5 UNK         0.5000 
     46 O           1.6000  -15.5369  -41.7960 O.2       5 UNK        -0.5000 
     47 CA          3.3971  -14.6632  -40.4637 C.3       5 UNK         0.1400 
     48 CB          4.6307  -15.5766  -40.6245 C.3       5 UNK        -0.1800 
     49 N           3.4482  -13.5677  -41.4262 N.am      5 UNK        -0.5000 
     50 C           4.3021  -12.5379  -41.3727 C.2       4 UNK         0.5000 
     51 O           5.1322  -12.3819  -40.4757 O.2       4 UNK        -0.5000 
     52 CA          4.2232  -11.5032  -42.5086 C.3       4 UNK         0.1400 
     53 CB          5.0429  -11.9749  -43.7197 C.3       4 UNK        -0.1800 
     54 N           2.8553  -11.2045  -42.9326 N.am      4 UNK        -0.5000 
     55 C           1.9535  -10.5500  -42.1866 C.2       3 UNK         0.5000 
     56 O           2.1712  -10.1479  -41.0429 O.2       3 UNK        -0.5000 
     57 CA          0.5777  -10.2946  -42.8269 C.3       3 UNK         0.1400 
     58 CB          0.6137   -9.0352  -43.7061 C.3       3 UNK        -0.1800 
     59 N           0.1160  -11.4257  -43.6282 N.am      3 UNK        -0.5000 
     60 C          -0.3313  -12.5856  -43.1338 C.2       2 UNK         0.5000 
     61 O          -0.4356  -12.8082  -41.9277 O.2       2 UNK        -0.5000 
     62 CA         -0.7154  -13.6954  -44.1348 C.3       2 UNK         0.1400 
     63 CB         -2.2396  -13.7364  -44.3611 C.3       2 UNK        -0.1800 
     64 N           0.0191  -13.6680  -45.4077 N.am      2 UNK        -0.5000 
     65 C          -0.0607  -12.7742  -46.4016 C.2       1 UNK         0.5000 
     66 O          -0.8376  -11.8172  -46.4123 O.2       1 UNK        -0.5000 
     67 C          -0.5275  -21.0730  -48.0497 C.2       11 UNK         0.5000 
     68 O          -0.7000  -21.7887  -49.0361 O.2       11 UNK        -0.5000 
     69 N          -1.1652  -19.9101  -47.8476 N.am      12 UNK        -0.5000 
     70 CA         -2.1523  -19.3044  -48.7456 C.3       12 UNK         0.1400 
     71 CB         -2.6331  -17.9776  -48.1393 C.3       12 UNK        -0.1800 
     72 C          -3.3645  -20.2007  -49.0822 C.2       12 UNK         0.5000 
     73 O          -4.0310  -19.9440  -50.0833 O.2       12 UNK        -0.5000 
     74 N          -3.6280  -21.2260  -48.2610 N.am      13 UNK        -0.5000 
     75 CA         -4.5649  -22.3038  -48.5565 C.3       13 UNK         0.1400 
     76 CB         -5.5713  -22.4409  -47.4040 C.3       13 UNK        -0.1800 
     77 C          -3.8073  -23.6199  -48.7857 C.2       13 UNK         0.5000 
     78 O          -4.0162  -24.2685  -49.8101 O.2       13 UNK        -0.5000 
     79 N          -2.9358  -23.9961  -47.8387 N.am      14 UNK        -0.5000 
     80 CA         -2.2723  -25.3010  -47.7492 C.3       14 UNK         0.1400 
     81 CB         -1.4815  -25.3756  -46.4338 C.3       14 UNK        -0.1800 
     82 C          -1.3751  -25.6867  -48.9412 C.2       14 UNK         0.5000 
     83 O          -1.0901  -26.8737  -49.1050 O.2       14 UNK        -0.5000 
     84 N          -0.9625  -24.7102  -49.7615 N.am      15 UNK        -0.5000 
     85 CA         -0.2000  -24.9295  -50.9916 C.3       15 UNK         0.1400 
     86 CB          0.2455  -23.5754  -51.5595 C.3       15 UNK        -0.1800 
     87 C          -0.9503  -25.7463  -52.0657 C.2       15 UNK         0.5000 
     88 O          -0.2916  -26.4116  -52.8668 O.2       15 UNK        -0.5000 
     89 N          -2.2919  -25.7010  -52.0683 N.am      16 UNK        -0.5000 
     90 CA         -3.1255  -26.4274  -53.0343 C.3       16 UNK         0.1400 
     91 CB         -3.3047  -25.5677  -54.2980 C.3       16 UNK        -0.1800 
     92 C          -4.4905  -26.8768  -52.4838 C.2       16 UNK         0.5000 
     93 O          -5.2560  -27.4854  -53.2325 O.2       16 UNK        -0.5000 
     94 N          -4.8140  -26.5328  -51.2289 N.am      17 UNK        -0.5000 
     95 CA         -6.1140  -26.6384  -50.5485 C.3       17 UNK         0.1400 
     96 CB         -6.6697  -28.0754  -50.5404 C.3       17 UNK        -0.1800 
     97 C          -7.1404  -25.6214  -51.0852 C.2       17 UNK         0.5000 
     98 O          -7.7840  -24.9294  -50.2954 O.2       17 UNK        -0.5000 
     99 N          -7.2372  -25.5108  -52.4151 N.am      18 UNK        -0.5000 
    100 CA        -7.9248  -24.4471  -53.1343 C.3       18 UNK         0.1400 
    101 CB        -8.1506  -24.8935  -54.5886 C.3       18 UNK        -0.1800 
    102 C         -7.0912  -23.1557  -53.0618 C.2       18 UNK         0.5000 
    103 O         -6.1613  -22.9768  -53.8529 O.2       18 UNK        -0.5000 
    104 N         -7.4340  -22.2804  -52.1086 N.am      19 UNK        -0.5000 
    105 CA        -6.7621  -21.0010  -51.8554 C.3       19 UNK         0.1400 
    106 CB        -7.3640  -20.3673  -50.5911 C.3       19 UNK        -0.1800 
    107 C         -6.8346  -20.0127  -53.0366 C.2       19 UNK         0.5000 
    108 O         -5.9455  -19.1759  -53.1909 O.2       19 UNK        -0.5000 
    109 N         -7.8811  -20.1444  -53.8637 N.am      20 UNK        -0.5000 
    110 CA        -8.0640  -19.3933  -55.1056 C.3       20 UNK         0.1400 
    111 CB        -9.5071  -19.5878  -55.5958 C.3       20 UNK        -0.1800 
    112 C         -7.0622  -19.7917  -56.2083 C.2       20 UNK         0.5000 
    113 O         -6.7770  -18.9714  -57.0818 O.2       20 UNK        -0.5000 
    114 N         -6.5522  -21.0305  -56.1546 N.am      21 UNK        -0.5000 
    115 CA        -5.5321  -21.5419  -57.0646 C.3       21 UNK         0.1400 
    116 CB        -5.7691  -23.0401  -57.3228 C.3       21 UNK        -0.1800 
    117 C         -4.1325  -21.2866  -56.4863 C.2       21 UNK         0.5000 
    118 O         -3.3175  -20.6341  -57.1387 O.2       21 UNK        -0.5000 
    119 N         -3.8865  -21.8001  -55.2716 N.am      22 UNK        -0.5000 
    120 CA        -2.6140  -21.7033  -54.5292 C.3       22 UNK         0.1400 
    121 C         -1.3986  -22.4342  -55.1907 C.2       22 UNK         0.5000 
    122 N         -1.5854  -23.2377  -56.2308 N.am      22 UNK        -0.7600 
    123 O         -0.2640  -22.2975  -54.7467 O.2       22 UNK        -0.5000 
    124 C124       -2.2924  -20.2348  -54.1237 C.3       23 UNK        -0.0398 
    125 S125       -1.5104  -20.0823  -52.4802 S.3       23 UNK        -0.2404 
    126 C126        0.1402  -19.4604  -52.9199 C.3       23 UNK        -0.0205 
    127 H127        2.6613   -8.8847  -46.7547 H         1 UNK         0.0600 
    128 H128        2.7841   -9.4714  -48.4163 H         1 UNK         0.0600 
    129 H129        4.1102   -9.7467  -47.2823 H         1 UNK         0.0600 
    130 H130        1.4979  -11.2718  -48.7304 H         1 UNK         0.3000 
    131 H131        1.7300  -13.6389  -47.2306 H         1 UNK         0.0600 
    132 H132        0.8568  -13.2240  -49.7117 H         1 UNK         0.0800 
    133 H133       -0.7086  -13.0891  -48.9819 H         1 UNK         0.0800 
    134 H134        2.5187  -15.5228  -49.2458 H         1 UNK         0.0800 
    135 H135        1.6245  -15.1816  -50.7062 H         1 UNK         0.0800 
    136 H136        0.2172  -16.9883  -51.7863 H         1 UNK         0.1150 
    137 H137        1.8434  -20.9314  -51.3704 H         1 UNK         0.1150 
    138 H138        3.0460  -17.8172  -48.6773 H         1 UNK         0.1150 
    139 H139        4.2023  -20.8171  -50.0261 H         1 UNK         0.0800 
    140 H140        4.1311  -19.9180  -48.5342 H         1 UNK         0.0800 
    141 H141        1.8557  -19.9746  -47.1806 H         1 UNK         0.0800 
    142 H142        2.4167  -21.2868  -46.1797 H         1 UNK         0.0800 
    143 H143        0.4162  -22.6602  -46.9920 H         1 UNK         0.0600 
    144 H144        0.4880  -20.8092  -44.9373 H         1 UNK         0.3000 
    145 H145       -2.7536  -21.4676  -43.5059 H         1 UNK         0.0600 
    146 H146       -1.1895  -21.8286  -41.6210 H         1 UNK         0.0600 
    147 H147        0.1792  -21.9059  -42.7251 H         1 UNK         0.0600 
    148 H148       -1.0647  -23.1484  -42.7754 H         1 UNK         0.0600 
    149 H149       -0.7099  -19.5779  -42.8238 H         1 UNK         0.3000 
    150 H150       -2.0668  -16.8150  -44.6423 H         1 UNK         0.0600 
    151 H151       -3.2687  -16.6940  -42.5411 H         1 UNK         0.0600 
    152 H152       -1.7359  -15.8857  -42.2587 H         1 UNK         0.0600 
    153 H153       -1.9977  -17.5164  -41.6594 H         1 UNK         0.0600 
    154 H154        0.2697  -17.0702  -43.0326 H         1 UNK         0.3000 
    155 H155        2.4844  -18.2520  -45.5638 H         1 UNK         0.0600 
    156 H156        2.3638  -15.8347  -46.0405 H         1 UNK         0.0600 
    157 H157        3.6954  -16.1686  -44.9474 H         1 UNK         0.0600 
    158 H158        2.2074  -15.4622  -44.3262 H         1 UNK         0.0600 
    159 H159        2.7473  -17.3991  -42.8105 H         1 UNK         0.3000 
    160 H160        2.2732  -20.6602  -41.4034 H         1 UNK         0.0600 
    161 H161        4.7802  -18.9132  -41.6961 H         1 UNK         0.0600 
    162 H162        4.6577  -20.6061  -42.1607 H         1 UNK         0.0600 
    163 H163        4.5153  -20.1530  -40.4700 H         1 UNK         0.0600 
    164 H164        2.9283  -18.1448  -40.2340 H         1 UNK         0.3000 
    165 H165       -0.2633  -16.6966  -40.0793 H         1 UNK         0.0600 
    166 H166       -0.0165  -16.7686  -37.6104 H         1 UNK         0.0600 
    167 H167       -0.5377  -18.3335  -38.2129 H         1 UNK         0.0600 
    168 H168        1.1397  -18.0952  -37.7376 H         1 UNK         0.0600 
    169 H169        2.1918  -16.1004  -38.7439 H         1 UNK         0.3000 
    170 H170        3.3753  -14.2445  -39.4555 H         1 UNK         0.0600 
    171 H171        4.7003  -15.9809  -41.6352 H         1 UNK         0.0600 
    172 H172        5.5577  -15.0429  -40.4165 H         1 UNK         0.0600 
    173 H173        4.5926  -16.4201  -39.9344 H         1 UNK         0.0600 
    174 H174        2.7615  -13.6196  -42.1673 H         1 UNK         0.3000 
    175 H175        4.6698  -10.5767  -42.1415 H         1 UNK         0.0600 
    176 H176        4.6148  -12.8710  -44.1710 H         1 UNK         0.0600 
    177 H177        5.0890  -11.2029  -44.4880 H         1 UNK         0.0600 
    178 H178        6.0691  -12.2081  -43.4326 H         1 UNK         0.0600 
    179 H179        2.6189  -11.4399  -43.8936 H         1 UNK         0.3000 
    180 H180       -0.1410  -10.1264  -42.0220 H         1 UNK         0.0600 
    181 H181       -0.3711   -8.8135  -44.1178 H         1 UNK         0.0600 
    182 H182        1.3082   -9.1450  -44.5395 H         1 UNK         0.0600 
    183 H183        0.9285   -8.1651  -43.1287 H         1 UNK         0.0600 
    184 H184        0.1346  -11.3165  -44.6349 H         1 UNK         0.3000 
    185 H185       -0.4206  -14.6304  -43.6623 H         1 UNK         0.0600 
    186 H186       -2.6198  -12.7911  -44.7486 H         1 UNK         0.0600 
    187 H187       -2.5168  -14.5201  -45.0652 H         1 UNK         0.0600 
    188 H188       -2.7661  -13.9331  -43.4267 H         1 UNK         0.0600 
    189 H189        0.7141  -14.3931  -45.5002 H         1 UNK         0.3000 
    190 H190       -0.9161  -19.3618  -47.0296 H         1 UNK         0.3000 
    191 H191       -1.6357  -19.0838  -49.6808 H         1 UNK         0.0600 
    192 H192       -3.1819  -18.1364  -47.2113 H         1 UNK         0.0600 
    193 H193       -3.2956  -17.4513  -48.8274 H         1 UNK         0.0600 
    194 H194       -1.7977  -17.3140  -47.9232 H         1 UNK         0.0600 
    195 H195       -3.0251  -21.3618  -47.4580 H         1 UNK         0.3000 
    196 H196       -5.1251  -22.0950  -49.4686 H         1 UNK         0.0600 
    197 H197       -6.1584  -21.5298  -47.2885 H         1 UNK         0.0600 
    198 H198       -5.0763  -22.6407  -46.4526 H         1 UNK         0.0600 
    199 H199       -6.2704  -23.2570  -47.5923 H         1 UNK         0.0600 
    200 H200       -2.7749  -23.3749  -47.0482 H         1 UNK         0.3000 
    201 H201       -3.0641  -26.0513  -47.7033 H         1 UNK         0.0600 
    202 H202       -2.1258  -25.1925  -45.5737 H         1 UNK         0.0600 
    203 H203       -0.6734  -24.6455  -46.4089 H         1 UNK         0.0600 
    204 H204       -1.0352  -26.3617  -46.2991 H         1 UNK         0.0600 
    205 H205       -1.1910  -23.7470  -49.5361 H         1 UNK         0.3000 
    206 H206        0.6969  -25.4929  -50.7265 H         1 UNK         0.0600 
    207 H207        0.8105  -23.7001  -52.4840 H         1 UNK         0.0600 
    208 H208       -0.6072  -22.9323  -51.7793 H         1 UNK         0.0600 
    209 H209        0.8896  -23.0499  -50.8552 H         1 UNK         0.0600 
    210 H210       -2.7612  -25.1132  -51.3899 H         1 UNK         0.3000 
    211 H211       -2.6187  -27.3515  -53.3201 H         1 UNK         0.0600 
    212 H212       -3.7697  -24.6091  -54.0671 H         1 UNK         0.0600 
    213 H213       -3.9296  -26.0663  -55.0399 H         1 UNK         0.0600 
    214 H214       -2.3427  -25.3773  -54.7706 H         1 UNK         0.0600 
    215 H215       -4.1623  -25.9482  -50.7185 H         1 UNK         0.3000 
    216 H216       -5.9181  -26.3643  -49.5106 H         1 UNK         0.0600 
    217 H217       -7.5455  -28.1441  -49.8942 H         1 UNK         0.0600 
    218 H218       -5.9304  -28.7818  -50.1630 H         1 UNK         0.0600 
    219 H219       -6.9770  -28.4067  -51.5323 H         1 UNK         0.0600 
    220 H220       -6.6555  -26.1305  -52.9698 H         1 UNK         0.3000 
    221 H221       -8.8999  -24.2711  -52.6755 H         1 UNK         0.0600 
    222 H222       -7.2140  -25.1553  -55.0827 H         1 UNK         0.0600 
    223 H223       -8.8042  -25.7647  -54.6340 H         1 UNK         0.0600 
    224 H224       -8.6214  -24.1019  -55.1731 H         1 UNK         0.0600 
    225 H225       -8.1789  -22.5292  -51.4726 H         1 UNK         0.3000 
    226 H226       -5.7071  -21.2151  -51.6764 H         1 UNK         0.0600 
    227 H227       -7.2817  -21.0339  -49.7330 H         1 UNK         0.0600 
    228 H228       -6.8432  -19.4440  -50.3339 H         1 UNK         0.0600 
    229 H229       -8.4185  -20.1238  -50.7260 H         1 UNK         0.0600 
    230 H230       -8.5745  -20.8456  -53.6494 H         1 UNK         0.3000 
    231 H231       -7.9148  -18.3332  -54.8899 H         1 UNK         0.0600 
    232 H232       -9.6896  -19.0181  -56.5081 H         1 UNK         0.0600 
    233 H233      -10.2266  -19.2456  -54.8517 H         1 UNK         0.0600 
    234 H234       -9.7205  -20.6348  -55.8147 H         1 UNK         0.0600 
    235 H235       -6.7841  -21.6206  -55.3659 H         1 UNK         0.3000 
    236 H236       -5.6009  -21.0284  -58.0262 H         1 UNK         0.0600 
    237 H237       -5.7014  -23.6335  -56.4110 H         1 UNK         0.0600 
    238 H238       -6.7542  -23.2114  -57.7569 H         1 UNK         0.0600 
    239 H239       -5.0329  -23.4342  -58.0242 H         1 UNK         0.0600 
    240 H240       -4.6317  -22.3065  -54.8003 H         1 UNK         0.3000 
    241 H241       -2.8051  -22.2649  -53.6139 H         1 UNK         0.0600 
    242 H242       -2.5030  -23.3682  -56.6220 H         1 UNK         0.3800 
    243 H243       -0.7915  -23.7032  -56.6405 H         1 UNK         0.3800 
    244 H244       -1.6923  -19.7386  -54.8882 H         1 UNK         0.0800 
    245 H245       -3.2159  -19.6568  -54.0626 H         1 UNK         0.0800 
    246 H246        0.0409  -18.6239  -53.6132 H         1 UNK         0.0800 
    247 H247        0.6923  -20.2361  -53.4512 H         1 UNK         0.0800 
@<TRIPOS>BOND
     1    1    2 1    
     2    1  127 1    
     3    1  128 1    
     4    1  129 1    
     5    2    3 2    
     6    2    4 am   BACKBONE|DICT|INTERRES
     7    4    5 1    
     8    4  130 1    
     9    5    6 1    
    10    5   65 1    
    11    5  131 1    
    12    6    7 1    
    13    6  132 1    
    14    6  133 1    
    15    7    8 1    
    16    8    9 1    
    17    8  134 1    
    18    8  135 1    
    19    9   10 ar   
    20    9   14 ar   
    21   10   11 ar   
    22   10  136 1    
    23   11   12 ar   
    24   11  126 1    
    25   12   13 ar   
    26   12  137 1    
    27   13   14 ar   
    28   13   15 1    
    29   14  138 1    
    30   15   16 1    
    31   15  139 1    
    32   15  140 1    
    33   16   17 1    
    34   17   18 1    
    35   17  141 1    
    36   17  142 1    
    37   18   19 1    
    38   18   67 1    
    39   18  143 1    
    40   19   20 am   BACKBONE|DICT|INTERRES
    41   19  144 1    
    42   20   21 2    
    43   20   22 1    
    44   22   23 1    
    45   22   24 1    
    46   22  145 1    
    47   23  146 1    
    48   23  147 1    
    49   23  148 1    
    50   24   25 am   BACKBONE|DICT|INTERRES
    51   24  149 1    
    52   25   26 2    
    53   25   27 1    
    54   27   28 1    
    55   27   29 1    
    56   27  150 1    
    57   28  151 1    
    58   28  152 1    
    59   28  153 1    
    60   29   30 am   BACKBONE|DICT|INTERRES
    61   29  154 1    
    62   30   31 2    
    63   30   32 1    
    64   32   33 1    
    65   32   34 1    
    66   32  155 1    
    67   33  156 1    
    68   33  157 1    
    69   33  158 1    
    70   34   35 am   BACKBONE|DICT|INTERRES
    71   34  159 1    
    72   35   36 2    
    73   35   37 1    
    74   37   38 1    
    75   37   39 1    
    76   37  160 1    
    77   38  161 1    
    78   38  162 1    
    79   38  163 1    
    80   39   40 am   BACKBONE|DICT|INTERRES
    81   39  164 1    
    82   40   41 2    
    83   40   42 1    
    84   42   43 1    
    85   42   44 1    
    86   42  165 1    
    87   43  166 1    
    88   43  167 1    
    89   43  168 1    
    90   44   45 am   BACKBONE|DICT|INTERRES
    91   44  169 1    
    92   45   46 2    
    93   45   47 1    
    94   47   48 1    
    95   47   49 1    
    96   47  170 1    
    97   48  171 1    
    98   48  172 1    
    99   48  173 1    
   100   49   50 am   BACKBONE|DICT|INTERRES
   101   49  174 1    
   102   50   51 2    
   103   50   52 1    
   104   52   53 1    
   105   52   54 1    
   106   52  175 1    
   107   53  176 1    
   108   53  177 1    
   109   53  178 1    
   110   54   55 am   BACKBONE|DICT|INTERRES
   111   54  179 1    
   112   55   56 2    
   113   55   57 1    
   114   57   58 1    
   115   57   59 1    
   116   57  180 1    
   117   58  181 1    
   118   58  182 1    
   119   58  183 1    
   120   59   60 am   BACKBONE|DICT|INTERRES
   121   59  184 1    
   122   60   61 2    
   123   60   62 1    
   124   62   63 1    
   125   62   64 1    
   126   62  185 1    
   127   63  186 1    
   128   63  187 1    
   129   63  188 1    
   130   64   65 am   BACKBONE|DICT|INTERRES
   131   64  189 1    
   132   65   66 2    
   133   67   68 2    
   134   67   69 am   BACKBONE|DICT|INTERRES
   135   69   70 1    
   136   69  190 1    
   137   70   71 1    
   138   70   72 1    
   139   70  191 1    
   140   71  192 1    
   141   71  193 1    
   142   71  194 1    
   143   72   73 2    
   144   72   74 am   BACKBONE|DICT|INTERRES
   145   74   75 1    
   146   74  195 1    
   147   75   76 1    
   148   75   77 1    
   149   75  196 1    
   150   76  197 1    
   151   76  198 1    
   152   76  199 1    
   153   77   78 2    
   154   77   79 am   BACKBONE|DICT|INTERRES
   155   79   80 1    
   156   79  200 1    
   157   80   81 1    
   158   80   82 1    
   159   80  201 1    
   160   81  202 1    
   161   81  203 1    
   162   81  204 1    
   163   82   83 2    
   164   82   84 am   BACKBONE|DICT|INTERRES
   165   84   85 1    
   166   84  205 1    
   167   85   86 1    
   168   85   87 1    
   169   85  206 1    
   170   86  207 1    
   171   86  208 1    
   172   86  209 1    
   173   87   88 2    
   174   87   89 am   BACKBONE|DICT|INTERRES
   175   89   90 1    
   176   89  210 1    
   177   90   91 1    
   178   90   92 1    
   179   90  211 1    
   180   91  212 1    
   181   91  213 1    
   182   91  214 1    
   183   92   93 2    
   184   92   94 am   BACKBONE|DICT|INTERRES
   185   94   95 1    
   186   94  215 1    
   187   95   96 1    
   188   95   97 1    
   189   95  216 1    
   190   96  217 1    
   191   96  218 1    
   192   96  219 1    
   193   97   98 2    
   194   97   99 am   BACKBONE|DICT|INTERRES
   195   99  100 1    
   196   99  220 1    
   197  100  101 1    
   198  100  102 1    
   199  100  221 1    
   200  101  222 1    
   201  101  223 1    
   202  101  224 1    
   203  102  103 2    
   204  102  104 am   BACKBONE|DICT|INTERRES
   205  104  105 1    
   206  104  225 1    
   207  105  106 1    
   208  105  107 1    
   209  105  226 1    
   210  106  227 1    
   211  106  228 1    
   212  106  229 1    
   213  107  108 2    
   214  107  109 am   BACKBONE|DICT|INTERRES
   215  109  110 1    
   216  109  230 1    
   217  110  111 1    
   218  110  112 1    
   219  110  231 1    
   220  111  232 1    
   221  111  233 1    
   222  111  234 1    
   223  112  113 2    
   224  112  114 am   BACKBONE|DICT|INTERRES
   225  114  115 1    
   226  114  235 1    
   227  115  116 1    
   228  115  117 1    
   229  115  236 1    
   230  116  237 1    
   231  116  238 1    
   232  116  239 1    
   233  117  118 2    
   234  117  119 am   BACKBONE|DICT|INTERRES
   235  119  120 1    
   236  119  240 1    
   237  120  121 1    
   238  120  124 1    
   239  120  241 1    
   240  121  122 am   BACKBONE|DICT|INTERRES
   241  121  123 2    
   242  122  242 1    
   243  122  243 1    
   244  124  125 1    
   245  124  244 1    
   246  124  245 1    
   247  125  126 1    
   248  126  246 1    
   249  126  247 1    
@<TRIPOS>SUBSTRUCTURE
     1 UNK         1 GROUP             0       ****    0 ROOT    
