@<TRIPOS>MOLECULE
3R540
247   249    1
SMALL
USER_CHARGES


@<TRIPOS>ATOM
      1 CA          3.6865  -10.4107  -51.5845 C.3       0 UNK        -0.1800 
      2 C           3.4482  -11.6691  -50.7617 C.2       0 UNK         0.5000 
      3 O           4.3803  -12.4435  -50.5420 O.2       0 UNK        -0.5000 
      4 N           2.2040  -11.8801  -50.3170 N.am      1 UNK        -0.5000 
      5 CA          1.7932  -13.0093  -49.4755 C.3       1 UNK         0.1400 
      6 C6          0.2598  -13.2490  -49.5199 C.3       23 UNK        -0.0398 
      7 S7         -0.4816  -13.2678  -51.1922 S.3       23 UNK        -0.2404 
      8 C8          0.4502  -14.5710  -52.0616 C.3       23 UNK        -0.0205 
      9 C9          0.1928  -15.9576  -51.4907 C.ar      23 UNK        -0.0193 
     10 C10        -1.0497  -16.5744  -51.6793 C.ar      23 UNK        -0.1150 
     11 C11        -1.2839  -17.8587  -51.1812 C.ar      23 UNK        -0.0193 
     12 C12        -0.2621  -18.5291  -50.5100 C.ar      23 UNK        -0.1150 
     13 C13         0.9729  -17.9171  -50.2901 C.ar      23 UNK        -0.0193 
     14 C14         1.1996  -16.6322  -50.7904 C.ar      23 UNK        -0.1150 
     15 C15         2.0459  -18.6496  -49.4976 C.3       23 UNK        -0.0205 
     16 S16         2.0915  -18.1558  -47.7399 S.3       23 UNK        -0.2404 
     17 C17         0.3509  -18.3103  -47.2093 C.3       23 UNK        -0.0398 
     18 CA         -0.1430  -19.7712  -47.0866 C.3       11 UNK         0.1400 
     19 N           0.5852  -20.5343  -46.0727 N.am      11 UNK        -0.5000 
     20 C           0.4773  -21.8555  -45.8784 C.2       10 UNK         0.5000 
     21 O          -0.2151  -22.5856  -46.5899 O.2       10 UNK        -0.5000 
     22 CA          1.1930  -22.4413  -44.6439 C.3       10 UNK         0.1400 
     23 CB          1.8034  -23.8314  -44.9140 C.3       10 UNK        -0.1800 
     24 N           2.1633  -21.5222  -44.0354 N.am      10 UNK        -0.5000 
     25 C           3.3480  -21.1232  -44.5235 C.2       9 UNK         0.5000 
     26 O           3.8313  -21.5307  -45.5794 O.2       9 UNK        -0.5000 
     27 CA          4.1125  -20.0587  -43.7097 C.3       9 UNK         0.1400 
     28 CB          4.0602  -18.7013  -44.4286 C.3       9 UNK        -0.1800 
     29 N           3.6017  -19.8811  -42.3485 N.am      9 UNK        -0.5000 
     30 C           3.7818  -20.7404  -41.3362 C.2       8 UNK         0.5000 
     31 O           4.4166  -21.7909  -41.4326 O.2       8 UNK        -0.5000 
     32 CA          3.1178  -20.3700  -40.0000 C.3       8 UNK         0.1400 
     33 CB          3.9886  -19.3720  -39.2202 C.3       8 UNK        -0.1800 
     34 N           1.7885  -19.7934  -40.2058 N.am      8 UNK        -0.5000 
     35 C           0.6580  -20.5044  -40.3189 C.2       7 UNK         0.5000 
     36 O           0.6135  -21.7324  -40.2466 O.2       7 UNK        -0.5000 
     37 CA         -0.6435  -19.7142  -40.5624 C.3       7 UNK         0.1400 
     38 CB         -1.3051  -19.3393  -39.2280 C.3       7 UNK        -0.1800 
     39 N          -0.4292  -18.4988  -41.3482 N.am      7 UNK        -0.5000 
     40 C          -0.1607  -18.4929  -42.6590 C.2       6 UNK         0.5000 
     41 O          -0.1473  -19.5062  -43.3589 O.2       6 UNK        -0.5000 
     42 CA          0.1729  -17.1391  -43.3089 C.3       6 UNK         0.1400 
     43 CB         -1.0624  -16.5668  -44.0173 C.3       6 UNK        -0.1800 
     44 N           0.7431  -16.1287  -42.4096 N.am      6 UNK        -0.5000 
     45 C           1.8879  -16.2736  -41.7220 C.2       5 UNK         0.5000 
     46 O           2.5285  -17.3248  -41.7125 O.2       5 UNK        -0.5000 
     47 CA          2.4233  -15.0741  -40.9158 C.3       5 UNK         0.1400 
     48 CB          3.8760  -14.7550  -41.3063 C.3       5 UNK        -0.1800 
     49 N           1.6136  -13.8672  -41.0821 N.am      5 UNK        -0.5000 
     50 C           0.6001  -13.5106  -40.2810 C.2       4 UNK         0.5000 
     51 O           0.2472  -14.1636  -39.2984 O.2       4 UNK        -0.5000 
     52 CA         -0.1644  -12.2194  -40.6418 C.3       4 UNK         0.1400 
     53 CB          0.3571  -11.0372  -39.8109 C.3       4 UNK        -0.1800 
     54 N          -0.0986  -11.8665  -42.0626 N.am      4 UNK        -0.5000 
     55 C          -0.6014  -12.6056  -43.0601 C.2       3 UNK         0.5000 
     56 O          -1.1957  -13.6669  -42.8771 O.2       3 UNK        -0.5000 
     57 CA         -0.3773  -12.1093  -44.5033 C.3       3 UNK         0.1400 
     58 CB         -0.0004  -10.6140  -44.5984 C.3       3 UNK        -0.1800 
     59 N           0.6083  -12.9236  -45.2238 N.am      3 UNK        -0.5000 
     60 C           1.8758  -13.1763  -44.8599 C.2       2 UNK         0.5000 
     61 O           2.3674  -12.8123  -43.7905 O.2       2 UNK        -0.5000 
     62 CA          2.7556  -13.9614  -45.8566 C.3       2 UNK         0.1400 
     63 CB          2.8789  -15.4283  -45.4261 C.3       2 UNK        -0.1800 
     64 N           2.2992  -13.9202  -47.2514 N.am      2 UNK        -0.5000 
     65 C           2.2741  -12.8208  -48.0182 C.2       1 UNK         0.5000 
     66 O           2.5867  -11.6999  -47.6073 O.2       1 UNK        -0.5000 
     67 C          -1.6648  -19.8023  -46.8381 C.2       11 UNK         0.5000 
     68 O          -2.4298  -19.8168  -47.8003 O.2       11 UNK        -0.5000 
     69 N          -2.0771  -19.8576  -45.5622 N.am      12 UNK        -0.5000 
     70 CA         -3.4759  -19.9912  -45.1528 C.3       12 UNK         0.1400 
     71 CB         -3.5860  -19.7817  -43.6350 C.3       12 UNK        -0.1800 
     72 C          -4.0776  -21.3479  -45.5622 C.2       12 UNK         0.5000 
     73 O          -5.2196  -21.3958  -46.0194 O.2       12 UNK        -0.5000 
     74 N          -3.2813  -22.4188  -45.4325 N.am      13 UNK        -0.5000 
     75 CA         -3.6418  -23.7680  -45.8663 C.3       13 UNK         0.1400 
     76 CB         -2.6488  -24.7868  -45.2868 C.3       13 UNK        -0.1800 
     77 C          -3.7150  -23.8708  -47.3986 C.2       13 UNK         0.5000 
     78 O          -4.6662  -24.4511  -47.9200 O.2       13 UNK        -0.5000 
     79 N          -2.7423  -23.2600  -48.0910 N.am      14 UNK        -0.5000 
     80 CA         -2.7051  -23.1552  -49.5508 C.3       14 UNK         0.1400 
     81 CB         -1.3742  -22.5297  -49.9873 C.3       14 UNK        -0.1800 
     82 C          -3.8962  -22.3683  -50.1291 C.2       14 UNK         0.5000 
     83 O          -4.4469  -22.7802  -51.1502 O.2       14 UNK        -0.5000 
     84 N          -4.2955  -21.2834  -49.4487 N.am      15 UNK        -0.5000 
     85 CA         -5.4728  -20.4792  -49.7775 C.3       15 UNK         0.1400 
     86 CB         -5.4901  -19.1977  -48.9272 C.3       15 UNK        -0.1800 
     87 C          -6.7836  -21.2596  -49.5861 C.2       15 UNK         0.5000 
     88 O          -7.6482  -21.2108  -50.4607 O.2       15 UNK        -0.5000 
     89 N          -6.8976  -21.9784  -48.4594 N.am      16 UNK        -0.5000 
     90 CA         -8.0498  -22.8163  -48.1204 C.3       16 UNK         0.1400 
     91 CB         -7.9254  -23.2968  -46.6666 C.3       16 UNK        -0.1800 
     92 C          -8.2236  -24.0096  -49.0776 C.2       16 UNK         0.5000 
     93 O          -9.3497  -24.3147  -49.4721 O.2       16 UNK        -0.5000 
     94 N          -7.1053  -24.6454  -49.4506 N.am      17 UNK        -0.5000 
     95 CA         -7.0557  -25.7394  -50.4206 C.3       17 UNK         0.1400 
     96 CB         -5.7087  -26.4655  -50.2784 C.3       17 UNK        -0.1800 
     97 C          -7.2502  -25.2749  -51.8770 C.2       17 UNK         0.5000 
     98 O          -7.6354  -26.0910  -52.7149 O.2       17 UNK        -0.5000 
     99 N          -6.9518  -23.9947  -52.1498 N.am      18 UNK        -0.5000 
    100 CA        -6.8395  -23.3609  -53.4678 C.3       18 UNK         0.1400 
    101 CB        -8.2105  -23.2803  -54.1693 C.3       18 UNK        -0.1800 
    102 C         -5.7538  -24.0597  -54.3104 C.2       18 UNK         0.5000 
    103 O         -6.0290  -24.5725  -55.3979 O.2       18 UNK        -0.5000 
    104 N         -4.5444  -24.1265  -53.7381 N.am      19 UNK        -0.5000 
    105 CA        -3.3968  -24.9167  -54.1895 C.3       19 UNK         0.1400 
    106 CB        -2.4197  -25.0594  -53.0086 C.3       19 UNK        -0.1800 
    107 C         -2.7078  -24.3904  -55.4705 C.2       19 UNK         0.5000 
    108 O         -1.4877  -24.2158  -55.4850 O.2       19 UNK        -0.5000 
    109 N         -3.4986  -24.1645  -56.5279 N.am      20 UNK        -0.5000 
    110 CA        -3.1570  -23.7964  -57.9103 C.3       20 UNK         0.1400 
    111 CB        -2.3023  -24.8908  -58.5767 C.3       20 UNK        -0.1800 
    112 C         -2.5104  -22.4088  -58.0931 C.2       20 UNK         0.5000 
    113 O         -2.8993  -21.6770  -59.0041 O.2       20 UNK        -0.5000 
    114 N         -1.5466  -22.0640  -57.2333 N.am      21 UNK        -0.5000 
    115 CA        -0.8366  -20.7839  -57.2114 C.3       21 UNK         0.1400 
    116 CB         0.4317  -20.9434  -56.3586 C.3       21 UNK        -0.1800 
    117 C         -1.6956  -19.6194  -56.6807 C.2       21 UNK         0.5000 
    118 O         -1.3500  -18.4587  -56.9063 O.2       21 UNK        -0.5000 
    119 N         -2.7883  -19.9445  -55.9855 N.am      22 UNK        -0.5000 
    120 CA        -3.7304  -19.0114  -55.3669 C.3       22 UNK         0.1400 
    121 C         -5.1216  -19.6750  -55.1679 C.2       22 UNK         0.5000 
    122 N         -6.1412  -18.9021  -54.8188 N.am      22 UNK        -0.7600 
    123 O         -5.2913  -20.8823  -55.3294 O.2       22 UNK        -0.5000 
    124 C124       -3.1565  -18.3770  -54.0702 C.3       23 UNK        -0.0398 
    125 S125       -2.7440  -19.5977  -52.7748 S.3       23 UNK        -0.2404 
    126 C126       -2.6440  -18.5221  -51.3158 C.3       23 UNK        -0.0205 
    127 H127        2.7717   -9.8318  -51.7141 H         1 UNK         0.0600 
    128 H128        4.4239   -9.7757  -51.0934 H         1 UNK         0.0600 
    129 H129        4.0647  -10.6739  -52.5723 H         1 UNK         0.0600 
    130 H130        1.4826  -11.2029  -50.5183 H         1 UNK         0.3000 
    131 H131        2.2871  -13.9038  -49.8576 H         1 UNK         0.0600 
    132 H132        0.0086  -14.1931  -49.0335 H         1 UNK         0.0800 
    133 H133       -0.2597  -12.4727  -48.9548 H         1 UNK         0.0800 
    134 H134        1.5145  -14.3332  -52.0560 H         1 UNK         0.0800 
    135 H135        0.1518  -14.5652  -53.1108 H         1 UNK         0.0800 
    136 H136       -1.8345  -16.0499  -52.2060 H         1 UNK         0.1150 
    137 H137       -0.4440  -19.5228  -50.1335 H         1 UNK         0.1150 
    138 H138        2.1605  -16.1633  -50.6343 H         1 UNK         0.1150 
    139 H139        1.8960  -19.7283  -49.5617 H         1 UNK         0.0800 
    140 H140        3.0234  -18.4566  -49.9417 H         1 UNK         0.0800 
    141 H141       -0.2772  -17.7352  -47.8909 H         1 UNK         0.0800 
    142 H142        0.2604  -17.8059  -46.2498 H         1 UNK         0.0800 
    143 H143        0.0316  -20.2716  -48.0385 H         1 UNK         0.0600 
    144 H144        1.1406  -20.0069  -45.4164 H         1 UNK         0.3000 
    145 H145        0.4130  -22.5737  -43.8928 H         1 UNK         0.0600 
    146 H146        2.3076  -24.2198  -44.0291 H         1 UNK         0.0600 
    147 H147        1.0296  -24.5498  -45.1871 H         1 UNK         0.0600 
    148 H148        2.5246  -23.8088  -45.7310 H         1 UNK         0.0600 
    149 H149        1.8561  -21.0883  -43.1757 H         1 UNK         0.3000 
    150 H150        5.1554  -20.3764  -43.6490 H         1 UNK         0.0600 
    151 H151        4.4841  -18.7698  -45.4313 H         1 UNK         0.0600 
    152 H152        4.6268  -17.9435  -43.8871 H         1 UNK         0.0600 
    153 H153        3.0365  -18.3425  -44.5313 H         1 UNK         0.0600 
    154 H154        3.1191  -19.0056  -42.1576 H         1 UNK         0.3000 
    155 H155        3.0309  -21.2796  -39.4017 H         1 UNK         0.0600 
    156 H156        4.1206  -18.4356  -39.7635 H         1 UNK         0.0600 
    157 H157        4.9806  -19.7846  -39.0327 H         1 UNK         0.0600 
    158 H158        3.5461  -19.1373  -38.2520 H         1 UNK         0.0600 
    159 H159        1.7531  -18.7933  -40.3536 H         1 UNK         0.3000 
    160 H160       -1.3288  -20.3648  -41.1101 H         1 UNK         0.0600 
    161 H161       -2.2619  -18.8423  -39.3889 H         1 UNK         0.0600 
    162 H162       -0.6745  -18.6727  -38.6383 H         1 UNK         0.0600 
    163 H163       -1.4987  -20.2275  -38.6251 H         1 UNK         0.0600 
    164 H164       -0.4349  -17.6202  -40.8510 H         1 UNK         0.3000 
    165 H165        0.9283  -17.3522  -44.0633 H         1 UNK         0.0600 
    166 H166       -0.8015  -15.6979  -44.6213 H         1 UNK         0.0600 
    167 H167       -1.5173  -17.2957  -44.6867 H         1 UNK         0.0600 
    168 H168       -1.8284  -16.2649  -43.3022 H         1 UNK         0.0600 
    169 H169        0.2512  -15.2444  -42.3599 H         1 UNK         0.3000 
    170 H170        2.4242  -15.3755  -39.8665 H         1 UNK         0.0600 
    171 H171        4.5257  -15.6172  -41.1495 H         1 UNK         0.0600 
    172 H172        3.9614  -14.4670  -42.3538 H         1 UNK         0.0600 
    173 H173        4.2738  -13.9387  -40.7032 H         1 UNK         0.0600 
    174 H174        1.8252  -13.2954  -41.8948 H         1 UNK         0.3000 
    175 H175       -1.2138  -12.3805  -40.3866 H         1 UNK         0.0600 
    176 H176       -0.2299  -10.1368  -39.9929 H         1 UNK         0.0600 
    177 H177        0.2965  -11.2525  -38.7432 H         1 UNK         0.0600 
    178 H178        1.3993  -10.8126  -40.0419 H         1 UNK         0.0600 
    179 H179        0.4080  -11.0254  -42.2975 H         1 UNK         0.3000 
    180 H180       -1.3290  -12.2415  -45.0201 H         1 UNK         0.0600 
    181 H181        0.9744  -10.4024  -44.1576 H         1 UNK         0.0600 
    182 H182       -0.7388   -9.9881  -44.0956 H         1 UNK         0.0600 
    183 H183        0.0371  -10.2914  -45.6390 H         1 UNK         0.0600 
    184 H184        0.2955  -13.3048  -46.1037 H         1 UNK         0.3000 
    185 H185        3.7512  -13.5142  -45.8187 H         1 UNK         0.0600 
    186 H186        1.9280  -15.9479  -45.5305 H         1 UNK         0.0600 
    187 H187        3.6168  -15.9557  -46.0309 H         1 UNK         0.0600 
    188 H188        3.1947  -15.5158  -44.3868 H         1 UNK         0.0600 
    189 H189        2.0401  -14.8085  -47.6560 H         1 UNK         0.3000 
    190 H190       -1.3818  -19.8491  -44.8216 H         1 UNK         0.3000 
    191 H191       -4.0523  -19.2077  -45.6495 H         1 UNK         0.0600 
    192 H192       -2.9885  -20.5081  -43.0831 H         1 UNK         0.0600 
    193 H193       -4.6193  -19.8828  -43.3005 H         1 UNK         0.0600 
    194 H194       -3.2499  -18.7853  -43.3486 H         1 UNK         0.0600 
    195 H195       -2.3421  -22.2859  -45.0905 H         1 UNK         0.3000 
    196 H196       -4.6323  -23.9993  -45.4686 H         1 UNK         0.0600 
    197 H197       -2.9311  -25.8032  -45.5642 H         1 UNK         0.0600 
    198 H198       -2.6279  -24.7418  -44.1978 H         1 UNK         0.0600 
    199 H199       -1.6343  -24.6207  -45.6489 H         1 UNK         0.0600 
    200 H200       -1.9689  -22.8458  -47.5810 H         1 UNK         0.3000 
    201 H201       -2.7533  -24.1678  -49.9559 H         1 UNK         0.0600 
    202 H202       -0.5279  -23.1413  -49.6742 H         1 UNK         0.0600 
    203 H203       -1.2477  -21.5389  -49.5578 H         1 UNK         0.0600 
    204 H204       -1.3224  -22.4246  -51.0716 H         1 UNK         0.0600 
    205 H205       -3.7382  -20.9691  -48.6601 H         1 UNK         0.3000 
    206 H206       -5.4007  -20.1926  -50.8290 H         1 UNK         0.0600 
    207 H207       -4.6022  -18.5897  -49.0911 H         1 UNK         0.0600 
    208 H208       -6.3535  -18.5790  -49.1747 H         1 UNK         0.0600 
    209 H209       -5.5429  -19.4206  -47.8616 H         1 UNK         0.0600 
    210 H210       -6.1550  -21.9290  -47.7696 H         1 UNK         0.3000 
    211 H211       -8.9460  -22.1971  -48.1968 H         1 UNK         0.0600 
    212 H212       -7.0267  -23.8954  -46.5154 H         1 UNK         0.0600 
    213 H213       -8.7813  -23.9104  -46.3828 H         1 UNK         0.0600 
    214 H214       -7.8855  -22.4546  -45.9757 H         1 UNK         0.0600 
    215 H215       -6.2226  -24.3793  -49.0208 H         1 UNK         0.3000 
    216 H216       -7.8535  -26.4475  -50.1872 H         1 UNK         0.0600 
    217 H217       -5.6390  -27.3050  -50.9712 H         1 UNK         0.0600 
    218 H218       -5.5788  -26.8625  -49.2715 H         1 UNK         0.0600 
    219 H219       -4.8712  -25.7977  -50.4851 H         1 UNK         0.0600 
    220 H220       -6.6043  -23.4330  -51.3833 H         1 UNK         0.3000 
    221 H221       -6.4959  -22.3404  -53.2919 H         1 UNK         0.0600 
    222 H222       -8.6067  -24.2665  -54.4121 H         1 UNK         0.0600 
    223 H223       -8.9415  -22.7691  -53.5429 H         1 UNK         0.0600 
    224 H224       -8.1323  -22.7209  -55.1022 H         1 UNK         0.0600 
    225 H225       -4.4300  -23.6495  -52.8468 H         1 UNK         0.3000 
    226 H226       -3.7626  -25.9170  -54.4295 H         1 UNK         0.0600 
    227 H227       -2.0153  -24.0926  -52.7083 H         1 UNK         0.0600 
    228 H228       -1.5786  -25.7040  -53.2666 H         1 UNK         0.0600 
    229 H229       -2.9100  -25.5029  -52.1420 H         1 UNK         0.0600 
    230 H230       -4.4939  -24.2998  -56.3587 H         1 UNK         0.3000 
    231 H231       -4.1099  -23.7625  -58.4407 H         1 UNK         0.0600 
    232 H232       -1.3268  -24.9931  -58.1002 H         1 UNK         0.0600 
    233 H233       -2.1277  -24.6617  -59.6287 H         1 UNK         0.0600 
    234 H234       -2.7997  -25.8597  -58.5339 H         1 UNK         0.0600 
    235 H235       -1.3019  -22.7441  -56.5159 H         1 UNK         0.3000 
    236 H236       -0.5380  -20.5361  -58.2320 H         1 UNK         0.0600 
    237 H237        1.0805  -21.7232  -56.7579 H         1 UNK         0.0600 
    238 H238        1.0098  -20.0186  -56.3383 H         1 UNK         0.0600 
    239 H239        0.1902  -21.2031  -55.3268 H         1 UNK         0.0600 
    240 H240       -3.0323  -20.9190  -55.8733 H         1 UNK         0.3000 
    241 H241       -3.8969  -18.2086  -56.0876 H         1 UNK         0.0600 
    242 H242       -7.0478  -19.3231  -54.6920 H         1 UNK         0.3800 
    243 H243       -6.0390  -17.9071  -54.6955 H         1 UNK         0.3800 
    244 H244       -2.2518  -17.8140  -54.3028 H         1 UNK         0.0800 
    245 H245       -3.8599  -17.6474  -53.6674 H         1 UNK         0.0800 
    246 H246       -2.8188  -19.1376  -50.4346 H         1 UNK         0.0800 
    247 H247       -3.4414  -17.7780  -51.3291 H         1 UNK         0.0800 
@<TRIPOS>BOND
     1    1    2 1    
     2    1  127 1    
     3    1  128 1    
     4    1  129 1    
     5    2    3 2    
     6    2    4 am   BACKBONE|DICT|INTERRES
     7    4    5 1    
     8    4  130 1    
     9    5    6 1    
    10    5   65 1    
    11    5  131 1    
    12    6    7 1    
    13    6  132 1    
    14    6  133 1    
    15    7    8 1    
    16    8    9 1    
    17    8  134 1    
    18    8  135 1    
    19    9   10 ar   
    20    9   14 ar   
    21   10   11 ar   
    22   10  136 1    
    23   11   12 ar   
    24   11  126 1    
    25   12   13 ar   
    26   12  137 1    
    27   13   14 ar   
    28   13   15 1    
    29   14  138 1    
    30   15   16 1    
    31   15  139 1    
    32   15  140 1    
    33   16   17 1    
    34   17   18 1    
    35   17  141 1    
    36   17  142 1    
    37   18   19 1    
    38   18   67 1    
    39   18  143 1    
    40   19   20 am   BACKBONE|DICT|INTERRES
    41   19  144 1    
    42   20   21 2    
    43   20   22 1    
    44   22   23 1    
    45   22   24 1    
    46   22  145 1    
    47   23  146 1    
    48   23  147 1    
    49   23  148 1    
    50   24   25 am   BACKBONE|DICT|INTERRES
    51   24  149 1    
    52   25   26 2    
    53   25   27 1    
    54   27   28 1    
    55   27   29 1    
    56   27  150 1    
    57   28  151 1    
    58   28  152 1    
    59   28  153 1    
    60   29   30 am   BACKBONE|DICT|INTERRES
    61   29  154 1    
    62   30   31 2    
    63   30   32 1    
    64   32   33 1    
    65   32   34 1    
    66   32  155 1    
    67   33  156 1    
    68   33  157 1    
    69   33  158 1    
    70   34   35 am   BACKBONE|DICT|INTERRES
    71   34  159 1    
    72   35   36 2    
    73   35   37 1    
    74   37   38 1    
    75   37   39 1    
    76   37  160 1    
    77   38  161 1    
    78   38  162 1    
    79   38  163 1    
    80   39   40 am   BACKBONE|DICT|INTERRES
    81   39  164 1    
    82   40   41 2    
    83   40   42 1    
    84   42   43 1    
    85   42   44 1    
    86   42  165 1    
    87   43  166 1    
    88   43  167 1    
    89   43  168 1    
    90   44   45 am   BACKBONE|DICT|INTERRES
    91   44  169 1    
    92   45   46 2    
    93   45   47 1    
    94   47   48 1    
    95   47   49 1    
    96   47  170 1    
    97   48  171 1    
    98   48  172 1    
    99   48  173 1    
   100   49   50 am   BACKBONE|DICT|INTERRES
   101   49  174 1    
   102   50   51 2    
   103   50   52 1    
   104   52   53 1    
   105   52   54 1    
   106   52  175 1    
   107   53  176 1    
   108   53  177 1    
   109   53  178 1    
   110   54   55 am   BACKBONE|DICT|INTERRES
   111   54  179 1    
   112   55   56 2    
   113   55   57 1    
   114   57   58 1    
   115   57   59 1    
   116   57  180 1    
   117   58  181 1    
   118   58  182 1    
   119   58  183 1    
   120   59   60 am   BACKBONE|DICT|INTERRES
   121   59  184 1    
   122   60   61 2    
   123   60   62 1    
   124   62   63 1    
   125   62   64 1    
   126   62  185 1    
   127   63  186 1    
   128   63  187 1    
   129   63  188 1    
   130   64   65 am   BACKBONE|DICT|INTERRES
   131   64  189 1    
   132   65   66 2    
   133   67   68 2    
   134   67   69 am   BACKBONE|DICT|INTERRES
   135   69   70 1    
   136   69  190 1    
   137   70   71 1    
   138   70   72 1    
   139   70  191 1    
   140   71  192 1    
   141   71  193 1    
   142   71  194 1    
   143   72   73 2    
   144   72   74 am   BACKBONE|DICT|INTERRES
   145   74   75 1    
   146   74  195 1    
   147   75   76 1    
   148   75   77 1    
   149   75  196 1    
   150   76  197 1    
   151   76  198 1    
   152   76  199 1    
   153   77   78 2    
   154   77   79 am   BACKBONE|DICT|INTERRES
   155   79   80 1    
   156   79  200 1    
   157   80   81 1    
   158   80   82 1    
   159   80  201 1    
   160   81  202 1    
   161   81  203 1    
   162   81  204 1    
   163   82   83 2    
   164   82   84 am   BACKBONE|DICT|INTERRES
   165   84   85 1    
   166   84  205 1    
   167   85   86 1    
   168   85   87 1    
   169   85  206 1    
   170   86  207 1    
   171   86  208 1    
   172   86  209 1    
   173   87   88 2    
   174   87   89 am   BACKBONE|DICT|INTERRES
   175   89   90 1    
   176   89  210 1    
   177   90   91 1    
   178   90   92 1    
   179   90  211 1    
   180   91  212 1    
   181   91  213 1    
   182   91  214 1    
   183   92   93 2    
   184   92   94 am   BACKBONE|DICT|INTERRES
   185   94   95 1    
   186   94  215 1    
   187   95   96 1    
   188   95   97 1    
   189   95  216 1    
   190   96  217 1    
   191   96  218 1    
   192   96  219 1    
   193   97   98 2    
   194   97   99 am   BACKBONE|DICT|INTERRES
   195   99  100 1    
   196   99  220 1    
   197  100  101 1    
   198  100  102 1    
   199  100  221 1    
   200  101  222 1    
   201  101  223 1    
   202  101  224 1    
   203  102  103 2    
   204  102  104 am   BACKBONE|DICT|INTERRES
   205  104  105 1    
   206  104  225 1    
   207  105  106 1    
   208  105  107 1    
   209  105  226 1    
   210  106  227 1    
   211  106  228 1    
   212  106  229 1    
   213  107  108 2    
   214  107  109 am   BACKBONE|DICT|INTERRES
   215  109  110 1    
   216  109  230 1    
   217  110  111 1    
   218  110  112 1    
   219  110  231 1    
   220  111  232 1    
   221  111  233 1    
   222  111  234 1    
   223  112  113 2    
   224  112  114 am   BACKBONE|DICT|INTERRES
   225  114  115 1    
   226  114  235 1    
   227  115  116 1    
   228  115  117 1    
   229  115  236 1    
   230  116  237 1    
   231  116  238 1    
   232  116  239 1    
   233  117  118 2    
   234  117  119 am   BACKBONE|DICT|INTERRES
   235  119  120 1    
   236  119  240 1    
   237  120  121 1    
   238  120  124 1    
   239  120  241 1    
   240  121  122 am   BACKBONE|DICT|INTERRES
   241  121  123 2    
   242  122  242 1    
   243  122  243 1    
   244  124  125 1    
   245  124  244 1    
   246  124  245 1    
   247  125  126 1    
   248  126  246 1    
   249  126  247 1    
@<TRIPOS>SUBSTRUCTURE
     1 UNK         1 GROUP             0       ****    0 ROOT    
