@<TRIPOS>MOLECULE
3R540
247   249    1
SMALL
USER_CHARGES


@<TRIPOS>ATOM
      1 CA          4.8098  -10.6433  -49.0709 C.3       0 UNK        -0.1800 
      2 C           3.9164  -11.0912  -47.9244 C.2       0 UNK         0.5000 
      3 O           4.0598  -10.5959  -46.8073 O.2       0 UNK        -0.5000 
      4 N           2.9785  -12.0072  -48.1985 N.am      1 UNK        -0.5000 
      5 CA          2.0354  -12.6023  -47.2374 C.3       1 UNK         0.1400 
      6 C6          1.2456  -13.7806  -47.8628 C.3       23 UNK        -0.0398 
      7 S7          0.3218  -13.3302  -49.3793 S.3       23 UNK        -0.2404 
      8 C8          1.1601  -14.3210  -50.6580 C.3       23 UNK        -0.0205 
      9 C9          0.7036  -15.7717  -50.6323 C.ar      23 UNK        -0.0193 
     10 C10        -0.4707  -16.1494  -51.2910 C.ar      23 UNK        -0.1150 
     11 C11        -0.9057  -17.4776  -51.2622 C.ar      23 UNK        -0.0193 
     12 C12        -0.1589  -18.4302  -50.5636 C.ar      23 UNK        -0.1150 
     13 C13         1.0185  -18.0655  -49.9051 C.ar      23 UNK        -0.0193 
     14 C14         1.4503  -16.7375  -49.9517 C.ar      23 UNK        -0.1150 
     15 C15         1.8239  -19.1011  -49.1366 C.3       23 UNK        -0.0205 
     16 S16         1.5727  -18.9545  -47.3397 S.3       23 UNK        -0.2404 
     17 C17        -0.1327  -19.5777  -47.1484 C.3       23 UNK        -0.0398 
     18 CA         -0.1711  -21.0832  -46.8009 C.3       11 UNK         0.1400 
     19 N           0.4642  -21.3671  -45.5075 N.am      11 UNK        -0.5000 
     20 C           0.7766  -22.5847  -45.0421 C.2       10 UNK         0.5000 
     21 O           0.5068  -23.6305  -45.6321 O.2       10 UNK        -0.5000 
     22 CA          1.4643  -22.6406  -43.6697 C.3       10 UNK         0.1400 
     23 CB          2.9517  -22.2726  -43.7884 C.3       10 UNK        -0.1800 
     24 N           0.8107  -21.7351  -42.7263 N.am      10 UNK        -0.5000 
     25 C          -0.2251  -22.0709  -41.9453 C.2       9 UNK         0.5000 
     26 O          -0.7016  -23.2050  -41.8930 O.2       9 UNK        -0.5000 
     27 CA         -0.8452  -20.9526  -41.0829 C.3       9 UNK         0.1400 
     28 CB         -0.1747  -20.9038  -39.7018 C.3       9 UNK        -0.1800 
     29 N          -0.7592  -19.6281  -41.6990 N.am      9 UNK        -0.5000 
     30 C          -1.4055  -19.2629  -42.8151 C.2       8 UNK         0.5000 
     31 O          -2.1806  -19.9968  -43.4262 O.2       8 UNK        -0.5000 
     32 CA         -1.0999  -17.8590  -43.3721 C.3       8 UNK         0.1400 
     33 CB         -2.1058  -16.8377  -42.8231 C.3       8 UNK        -0.1800 
     34 N           0.2643  -17.3869  -43.1123 N.am      8 UNK        -0.5000 
     35 C           1.3923  -18.0316  -43.4535 C.2       7 UNK         0.5000 
     36 O           1.4029  -19.1383  -43.9910 O.2       7 UNK        -0.5000 
     37 CA          2.7358  -17.3598  -43.1152 C.3       7 UNK         0.1400 
     38 CB          3.3472  -16.7368  -44.3792 C.3       7 UNK        -0.1800 
     39 N           2.6329  -16.3432  -42.0659 N.am      7 UNK        -0.5000 
     40 C           2.3482  -16.6052  -40.7796 C.2       6 UNK         0.5000 
     41 O           2.1750  -17.7444  -40.3441 O.2       6 UNK        -0.5000 
     42 CA          2.2028  -15.4059  -39.8188 C.3       6 UNK         0.1400 
     43 CB          3.4822  -15.2284  -38.9873 C.3       6 UNK        -0.1800 
     44 N           1.8957  -14.1402  -40.4877 N.am      6 UNK        -0.5000 
     45 C           0.7866  -13.8832  -41.1955 C.2       5 UNK         0.5000 
     46 O          -0.1430  -14.6807  -41.3152 O.2       5 UNK        -0.5000 
     47 CA          0.7294  -12.5320  -41.9355 C.3       5 UNK         0.1400 
     48 CB         -0.0706  -11.5030  -41.1236 C.3       5 UNK        -0.1800 
     49 N           2.0424  -11.9645  -42.2610 N.am      5 UNK        -0.5000 
     50 C           2.9749  -12.5426  -43.0299 C.2       4 UNK         0.5000 
     51 O           2.8596  -13.6753  -43.4993 O.2       4 UNK        -0.5000 
     52 CA          4.2371  -11.7068  -43.3159 C.3       4 UNK         0.1400 
     53 CB          5.2701  -12.4692  -44.1655 C.3       4 UNK        -0.1800 
     54 N           3.8949  -10.4614  -43.9991 N.am      4 UNK        -0.5000 
     55 C           3.4444   -9.3439  -43.4143 C.2       3 UNK         0.5000 
     56 O           3.2741   -9.2319  -42.1995 O.2       3 UNK        -0.5000 
     57 CA          3.0821   -8.1812  -44.3500 C.3       3 UNK         0.1400 
     58 CB          4.3454   -7.5339  -44.9399 C.3       3 UNK        -0.1800 
     59 N           2.2265   -8.6574  -45.4347 N.am      3 UNK        -0.5000 
     60 C           0.8867   -8.6248  -45.4190 C.2       2 UNK         0.5000 
     61 O           0.2240   -8.1106  -44.5173 O.2       2 UNK        -0.5000 
     62 CA          0.1583   -9.2836  -46.6080 C.3       2 UNK         0.1400 
     63 CB         -0.1090   -8.2530  -47.7152 C.3       2 UNK        -0.1800 
     64 N           0.9006  -10.4100  -47.1742 N.am      2 UNK        -0.5000 
     65 C           1.0890  -11.5851  -46.5568 C.2       1 UNK         0.5000 
     66 O           0.5660  -11.8743  -45.4810 O.2       1 UNK        -0.5000 
     67 C          -1.6069  -21.6401  -46.9243 C.2       11 UNK         0.5000 
     68 O          -2.0972  -21.7808  -48.0445 O.2       11 UNK        -0.5000 
     69 N          -2.2410  -21.9841  -45.7931 N.am      12 UNK        -0.5000 
     70 CA         -3.5079  -22.7141  -45.7202 C.3       12 UNK         0.1400 
     71 CB         -3.9454  -22.8202  -44.2515 C.3       12 UNK        -0.1800 
     72 C          -3.4477  -24.1155  -46.3628 C.2       12 UNK         0.5000 
     73 O          -4.4616  -24.5823  -46.8836 O.2       12 UNK        -0.5000 
     74 N          -2.2633  -24.7466  -46.3682 N.am      13 UNK        -0.5000 
     75 CA         -1.9852  -26.0115  -47.0525 C.3       13 UNK         0.1400 
     76 CB         -0.8443  -26.7394  -46.3190 C.3       13 UNK        -0.1800 
     77 C          -1.6847  -25.7765  -48.5492 C.2       13 UNK         0.5000 
     78 O          -0.6353  -26.1847  -49.0509 O.2       13 UNK        -0.5000 
     79 N          -2.6104  -25.0900  -49.2275 N.am      14 UNK        -0.5000 
     80 CA         -2.5641  -24.7650  -50.6502 C.3       14 UNK         0.1400 
     81 CB         -3.6060  -23.6695  -50.9206 C.3       14 UNK        -0.1800 
     82 C          -2.8259  -25.9969  -51.5373 C.2       14 UNK         0.5000 
     83 O          -3.3280  -27.0161  -51.0533 O.2       14 UNK        -0.5000 
     84 N          -2.5061  -25.8680  -52.8313 N.am      15 UNK        -0.5000 
     85 CA         -2.7294  -26.8690  -53.8762 C.3       15 UNK         0.1400 
     86 CB         -2.2536  -26.3041  -55.2233 C.3       15 UNK        -0.1800 
     87 C          -4.2053  -27.3032  -53.9499 C.2       15 UNK         0.5000 
     88 O          -5.0767  -26.4661  -54.1902 O.2       15 UNK        -0.5000 
     89 N          -4.4567  -28.5906  -53.6688 N.am      16 UNK        -0.5000 
     90 CA         -5.7759  -29.2306  -53.5535 C.3       16 UNK         0.1400 
     91 CB         -6.4639  -29.2948  -54.9335 C.3       16 UNK        -0.1800 
     92 C          -6.6866  -28.6025  -52.4704 C.2       16 UNK         0.5000 
     93 O          -7.9089  -28.7316  -52.5525 O.2       16 UNK        -0.5000 
     94 N          -6.0751  -27.9157  -51.4912 N.am      17 UNK        -0.5000 
     95 CA         -6.6901  -27.1014  -50.4371 C.3       17 UNK         0.1400 
     96 CB         -7.5446  -27.9693  -49.4903 C.3       17 UNK        -0.1800 
     97 C          -7.4543  -25.8636  -50.9610 C.2       17 UNK         0.5000 
     98 O          -8.2161  -25.2601  -50.2035 O.2       17 UNK        -0.5000 
     99 N          -7.2370  -25.4839  -52.2282 N.am      18 UNK        -0.5000 
    100 CA        -7.8285  -24.3066  -52.8517 C.3       18 UNK         0.1400 
    101 CB        -7.9926  -24.5581  -54.3602 C.3       18 UNK        -0.1800 
    102 C         -6.9231  -23.1006  -52.5745 C.2       18 UNK         0.5000 
    103 O         -5.8871  -22.9561  -53.2228 O.2       18 UNK        -0.5000 
    104 N         -7.3138  -22.2573  -51.6105 N.am      19 UNK        -0.5000 
    105 CA        -6.5475  -21.0920  -51.1504 C.3       19 UNK         0.1400 
    106 CB        -7.3130  -20.4040  -50.0106 C.3       19 UNK        -0.1800 
    107 C         -6.1976  -20.0770  -52.2580 C.2       19 UNK         0.5000 
    108 O         -5.1581  -19.4258  -52.1734 O.2       19 UNK        -0.5000 
    109 N         -7.0463  -19.9924  -53.2914 N.am      20 UNK        -0.5000 
    110 CA        -6.8351  -19.1722  -54.4844 C.3       20 UNK         0.1400 
    111 CB        -8.1672  -19.0510  -55.2407 C.3       20 UNK        -0.1800 
    112 C         -5.7322  -19.7072  -55.4223 C.2       20 UNK         0.5000 
    113 O         -5.1879  -18.9267  -56.2044 O.2       20 UNK        -0.5000 
    114 N         -5.4247  -21.0113  -55.3482 N.am      21 UNK        -0.5000 
    115 CA        -4.3653  -21.6508  -56.1331 C.3       21 UNK         0.1400 
    116 CB        -4.6934  -23.1414  -56.3180 C.3       21 UNK        -0.1800 
    117 C         -2.9763  -21.4770  -55.4904 C.2       21 UNK         0.5000 
    118 O         -1.9732  -21.5659  -56.2002 O.2       21 UNK        -0.5000 
    119 N         -2.9473  -21.2175  -54.1755 N.am      22 UNK        -0.5000 
    120 CA        -1.7477  -21.0176  -53.3463 C.3       22 UNK         0.1400 
    121 C         -0.8495  -22.2903  -53.2342 C.2       22 UNK         0.5000 
    122 N          0.3840  -22.1755  -52.7588 N.am      22 UNK        -0.7600 
    123 O         -1.2753  -23.4072  -53.5186 O.2       22 UNK        -0.5000 
    124 C124       -0.9555  -19.7305  -53.7292 C.3       23 UNK        -0.0398 
    125 S125       -1.9682  -18.2085  -53.7358 S.3       23 UNK        -0.2404 
    126 C126       -2.1979  -17.8778  -51.9580 C.3       23 UNK        -0.0205 
    127 H127        5.8527  -10.8558  -48.8361 H         1 UNK         0.0600 
    128 H128        4.7066   -9.5698  -49.2283 H         1 UNK         0.0600 
    129 H129        4.5596  -11.1508  -50.0028 H         1 UNK         0.0600 
    130 H130        2.8910  -12.3459  -49.1456 H         1 UNK         0.3000 
    131 H131        2.6427  -13.0186  -46.4305 H         1 UNK         0.0600 
    132 H132        0.5426  -14.2010  -47.1412 H         1 UNK         0.0800 
    133 H133        1.9399  -14.5898  -48.0860 H         1 UNK         0.0800 
    134 H134        2.2422  -14.2531  -50.5369 H         1 UNK         0.0800 
    135 H135        0.9382  -13.8900  -51.6355 H         1 UNK         0.0800 
    136 H136       -1.0515  -15.4069  -51.8203 H         1 UNK         0.1150 
    137 H137       -0.4993  -19.4555  -50.5267 H         1 UNK         0.1150 
    138 H138        2.3621  -16.4578  -49.4435 H         1 UNK         0.1150 
    139 H139        1.5712  -20.1119  -49.4602 H         1 UNK         0.0800 
    140 H140        2.8843  -18.9674  -49.3553 H         1 UNK         0.0800 
    141 H141       -0.6945  -19.3719  -48.0590 H         1 UNK         0.0800 
    142 H142       -0.6207  -18.9985  -46.3656 H         1 UNK         0.0800 
    143 H143        0.4124  -21.6104  -47.5588 H         1 UNK         0.0600 
    144 H144        0.7573  -20.5536  -44.9703 H         1 UNK         0.3000 
    145 H145        1.4017  -23.6665  -43.3003 H         1 UNK         0.0600 
    146 H146        3.4520  -22.3436  -42.8226 H         1 UNK         0.0600 
    147 H147        3.4659  -22.9494  -44.4718 H         1 UNK         0.0600 
    148 H148        3.0931  -21.2586  -44.1642 H         1 UNK         0.0600 
    149 H149        1.0958  -20.7638  -42.7683 H         1 UNK         0.3000 
    150 H150       -1.9015  -21.1920  -40.9429 H         1 UNK         0.0600 
    151 H151       -0.2327  -21.8727  -39.2039 H         1 UNK         0.0600 
    152 H152       -0.6615  -20.1759  -39.0525 H         1 UNK         0.0600 
    153 H153        0.8798  -20.6342  -39.7763 H         1 UNK         0.0600 
    154 H154       -0.1238  -18.9675  -41.2732 H         1 UNK         0.3000 
    155 H155       -1.2262  -17.9026  -44.4539 H         1 UNK         0.0600 
    156 H156       -2.0156  -16.7276  -41.7417 H         1 UNK         0.0600 
    157 H157       -3.1308  -17.1425  -43.0383 H         1 UNK         0.0600 
    158 H158       -1.9580  -15.8559  -43.2734 H         1 UNK         0.0600 
    159 H159        0.3448  -16.4935  -42.6431 H         1 UNK         0.3000 
    160 H160        3.4118  -18.1408  -42.7611 H         1 UNK         0.0600 
    161 H161        2.6853  -15.9908  -44.8207 H         1 UNK         0.0600 
    162 H162        3.5296  -17.4984  -45.1386 H         1 UNK         0.0600 
    163 H163        4.3013  -16.2553  -44.1644 H         1 UNK         0.0600 
    164 H164        2.7371  -15.3793  -42.3664 H         1 UNK         0.3000 
    165 H165        1.3789  -15.6322  -39.1389 H         1 UNK         0.0600 
    166 H166        3.3650  -14.4384  -38.2453 H         1 UNK         0.0600 
    167 H167        3.7285  -16.1441  -38.4480 H         1 UNK         0.0600 
    168 H168        4.3379  -14.9770  -39.6152 H         1 UNK         0.0600 
    169 H169        2.6071  -13.4254  -40.4510 H         1 UNK         0.3000 
    170 H170        0.2058  -12.7053  -42.8775 H         1 UNK         0.0600 
    171 H171       -1.0662  -11.8803  -40.8860 H         1 UNK         0.0600 
    172 H172        0.4241  -11.2618  -40.1819 H         1 UNK         0.0600 
    173 H173       -0.2004  -10.5760  -41.6828 H         1 UNK         0.0600 
    174 H174        2.2246  -11.0209  -41.9379 H         1 UNK         0.3000 
    175 H175        4.7019  -11.4741  -42.3557 H         1 UNK         0.0600 
    176 H176        4.8673  -12.7433  -45.1412 H         1 UNK         0.0600 
    177 H177        6.1643  -11.8682  -44.3310 H         1 UNK         0.0600 
    178 H178        5.5835  -13.3885  -43.6691 H         1 UNK         0.0600 
    179 H179        3.9767  -10.4796  -45.0140 H         1 UNK         0.3000 
    180 H180        2.5601   -7.4225  -43.7629 H         1 UNK         0.0600 
    181 H181        4.9162   -8.2341  -45.5511 H         1 UNK         0.0600 
    182 H182        5.0048   -7.1749  -44.1488 H         1 UNK         0.0600 
    183 H183        4.0911   -6.6776  -45.5647 H         1 UNK         0.0600 
    184 H184        2.6918   -9.1549  -46.1846 H         1 UNK         0.3000 
    185 H185       -0.8030   -9.6540  -46.2457 H         1 UNK         0.0600 
    186 H186       -0.6838   -7.4089  -47.3318 H         1 UNK         0.0600 
    187 H187        0.8189   -7.8571  -48.1300 H         1 UNK         0.0600 
    188 H188       -0.6827   -8.6913  -48.5320 H         1 UNK         0.0600 
    189 H189        1.3513  -10.2613  -48.0650 H         1 UNK         0.3000 
    190 H190       -1.8003  -21.7598  -44.9108 H         1 UNK         0.3000 
    191 H191       -4.2582  -22.1358  -46.2629 H         1 UNK         0.0600 
    192 H192       -4.1209  -21.8349  -43.8201 H         1 UNK         0.0600 
    193 H193       -3.1930  -23.3241  -43.6431 H         1 UNK         0.0600 
    194 H194       -4.8756  -23.3822  -44.1584 H         1 UNK         0.0600 
    195 H195       -1.4557  -24.2716  -45.9792 H         1 UNK         0.3000 
    196 H196       -2.8688  -26.6508  -46.9977 H         1 UNK         0.0600 
    197 H197       -0.6616  -27.7205  -46.7588 H         1 UNK         0.0600 
    198 H198       -1.0870  -26.8952  -45.2678 H         1 UNK         0.0600 
    199 H199        0.0899  -26.1793  -46.3677 H         1 UNK         0.0600 
    200 H200       -3.4427  -24.8083  -48.7246 H         1 UNK         0.3000 
    201 H201       -1.5712  -24.3754  -50.8834 H         1 UNK         0.0600 
    202 H202       -3.4061  -22.7786  -50.3252 H         1 UNK         0.0600 
    203 H203       -4.6161  -24.0098  -50.6900 H         1 UNK         0.0600 
    204 H204       -3.5932  -23.3655  -51.9672 H         1 UNK         0.0600 
    205 H205       -2.1102  -24.9820  -53.1429 H         1 UNK         0.3000 
    206 H206       -2.1140  -27.7379  -53.6355 H         1 UNK         0.0600 
    207 H207       -1.1902  -26.0655  -55.1970 H         1 UNK         0.0600 
    208 H208       -2.4077  -27.0245  -56.0276 H         1 UNK         0.0600 
    209 H209       -2.7913  -25.3932  -55.4880 H         1 UNK         0.0600 
    210 H210       -3.6723  -29.1879  -53.4459 H         1 UNK         0.3000 
    211 H211       -5.5898  -30.2554  -53.2297 H         1 UNK         0.0600 
    212 H212       -6.7504  -28.3045  -55.2891 H         1 UNK         0.0600 
    213 H213       -7.3692  -29.9015  -54.8935 H         1 UNK         0.0600 
    214 H214       -5.8089  -29.7430  -55.6804 H         1 UNK         0.0600 
    215 H215       -5.0612  -27.8528  -51.5204 H         1 UNK         0.3000 
    216 H216       -5.8599  -26.7049  -49.8509 H         1 UNK         0.0600 
    217 H217       -7.8561  -27.4005  -48.6135 H         1 UNK         0.0600 
    218 H218       -6.9831  -28.8318  -49.1315 H         1 UNK         0.0600 
    219 H219       -8.4486  -28.3347  -49.9777 H         1 UNK         0.0600 
    220 H220       -6.5508  -25.9810  -52.7867 H         1 UNK         0.3000 
    221 H221       -8.8203  -24.1179  -52.4355 H         1 UNK         0.0600 
    222 H222       -7.0383  -24.7598  -54.8475 H         1 UNK         0.0600 
    223 H223       -8.6463  -25.4103  -54.5468 H         1 UNK         0.0600 
    224 H224       -8.4347  -23.6920  -54.8538 H         1 UNK         0.0600 
    225 H225       -8.1643  -22.4620  -51.1050 H         1 UNK         0.3000 
    226 H226       -5.6033  -21.4628  -50.7474 H         1 UNK         0.0600 
    227 H227       -7.4716  -21.0850  -49.1742 H         1 UNK         0.0600 
    228 H228       -6.7575  -19.5465  -49.6282 H         1 UNK         0.0600 
    229 H229       -8.2877  -20.0433  -50.3414 H         1 UNK         0.0600 
    230 H230       -7.8758  -20.5669  -53.2760 H         1 UNK         0.3000 
    231 H231       -6.5333  -18.1733  -54.1623 H         1 UNK         0.0600 
    232 H232       -8.9382  -18.6030  -54.6135 H         1 UNK         0.0600 
    233 H233       -8.5288  -20.0237  -55.5766 H         1 UNK         0.0600 
    234 H234       -8.0600  -18.4182  -56.1228 H         1 UNK         0.0600 
    235 H235       -5.8690  -21.5942  -54.6461 H         1 UNK         0.3000 
    236 H236       -4.3322  -21.1932  -57.1242 H         1 UNK         0.0600 
    237 H237       -3.9808  -23.6127  -56.9957 H         1 UNK         0.0600 
    238 H238       -4.6510  -23.6876  -55.3754 H         1 UNK         0.0600 
    239 H239       -5.6876  -23.2804  -56.7427 H         1 UNK         0.0600 
    240 H240       -3.8300  -21.1732  -53.6876 H         1 UNK         0.3000 
    241 H241       -2.1325  -20.8797  -52.3362 H         1 UNK         0.0600 
    242 H242        0.7813  -21.2890  -52.4958 H         1 UNK         0.3800 
    243 H243        0.9462  -23.0082  -52.6797 H         1 UNK         0.3800 
    244 H244       -0.1115  -19.5682  -53.0609 H         1 UNK         0.0800 
    245 H245       -0.5198  -19.8428  -54.7227 H         1 UNK         0.0800 
    246 H246       -2.9322  -17.0787  -51.8472 H         1 UNK         0.0800 
    247 H247       -2.6370  -18.7499  -51.4730 H         1 UNK         0.0800 
@<TRIPOS>BOND
     1    1    2 1    
     2    1  127 1    
     3    1  128 1    
     4    1  129 1    
     5    2    3 2    
     6    2    4 am   BACKBONE|DICT|INTERRES
     7    4    5 1    
     8    4  130 1    
     9    5    6 1    
    10    5   65 1    
    11    5  131 1    
    12    6    7 1    
    13    6  132 1    
    14    6  133 1    
    15    7    8 1    
    16    8    9 1    
    17    8  134 1    
    18    8  135 1    
    19    9   10 ar   
    20    9   14 ar   
    21   10   11 ar   
    22   10  136 1    
    23   11   12 ar   
    24   11  126 1    
    25   12   13 ar   
    26   12  137 1    
    27   13   14 ar   
    28   13   15 1    
    29   14  138 1    
    30   15   16 1    
    31   15  139 1    
    32   15  140 1    
    33   16   17 1    
    34   17   18 1    
    35   17  141 1    
    36   17  142 1    
    37   18   19 1    
    38   18   67 1    
    39   18  143 1    
    40   19   20 am   BACKBONE|DICT|INTERRES
    41   19  144 1    
    42   20   21 2    
    43   20   22 1    
    44   22   23 1    
    45   22   24 1    
    46   22  145 1    
    47   23  146 1    
    48   23  147 1    
    49   23  148 1    
    50   24   25 am   BACKBONE|DICT|INTERRES
    51   24  149 1    
    52   25   26 2    
    53   25   27 1    
    54   27   28 1    
    55   27   29 1    
    56   27  150 1    
    57   28  151 1    
    58   28  152 1    
    59   28  153 1    
    60   29   30 am   BACKBONE|DICT|INTERRES
    61   29  154 1    
    62   30   31 2    
    63   30   32 1    
    64   32   33 1    
    65   32   34 1    
    66   32  155 1    
    67   33  156 1    
    68   33  157 1    
    69   33  158 1    
    70   34   35 am   BACKBONE|DICT|INTERRES
    71   34  159 1    
    72   35   36 2    
    73   35   37 1    
    74   37   38 1    
    75   37   39 1    
    76   37  160 1    
    77   38  161 1    
    78   38  162 1    
    79   38  163 1    
    80   39   40 am   BACKBONE|DICT|INTERRES
    81   39  164 1    
    82   40   41 2    
    83   40   42 1    
    84   42   43 1    
    85   42   44 1    
    86   42  165 1    
    87   43  166 1    
    88   43  167 1    
    89   43  168 1    
    90   44   45 am   BACKBONE|DICT|INTERRES
    91   44  169 1    
    92   45   46 2    
    93   45   47 1    
    94   47   48 1    
    95   47   49 1    
    96   47  170 1    
    97   48  171 1    
    98   48  172 1    
    99   48  173 1    
   100   49   50 am   BACKBONE|DICT|INTERRES
   101   49  174 1    
   102   50   51 2    
   103   50   52 1    
   104   52   53 1    
   105   52   54 1    
   106   52  175 1    
   107   53  176 1    
   108   53  177 1    
   109   53  178 1    
   110   54   55 am   BACKBONE|DICT|INTERRES
   111   54  179 1    
   112   55   56 2    
   113   55   57 1    
   114   57   58 1    
   115   57   59 1    
   116   57  180 1    
   117   58  181 1    
   118   58  182 1    
   119   58  183 1    
   120   59   60 am   BACKBONE|DICT|INTERRES
   121   59  184 1    
   122   60   61 2    
   123   60   62 1    
   124   62   63 1    
   125   62   64 1    
   126   62  185 1    
   127   63  186 1    
   128   63  187 1    
   129   63  188 1    
   130   64   65 am   BACKBONE|DICT|INTERRES
   131   64  189 1    
   132   65   66 2    
   133   67   68 2    
   134   67   69 am   BACKBONE|DICT|INTERRES
   135   69   70 1    
   136   69  190 1    
   137   70   71 1    
   138   70   72 1    
   139   70  191 1    
   140   71  192 1    
   141   71  193 1    
   142   71  194 1    
   143   72   73 2    
   144   72   74 am   BACKBONE|DICT|INTERRES
   145   74   75 1    
   146   74  195 1    
   147   75   76 1    
   148   75   77 1    
   149   75  196 1    
   150   76  197 1    
   151   76  198 1    
   152   76  199 1    
   153   77   78 2    
   154   77   79 am   BACKBONE|DICT|INTERRES
   155   79   80 1    
   156   79  200 1    
   157   80   81 1    
   158   80   82 1    
   159   80  201 1    
   160   81  202 1    
   161   81  203 1    
   162   81  204 1    
   163   82   83 2    
   164   82   84 am   BACKBONE|DICT|INTERRES
   165   84   85 1    
   166   84  205 1    
   167   85   86 1    
   168   85   87 1    
   169   85  206 1    
   170   86  207 1    
   171   86  208 1    
   172   86  209 1    
   173   87   88 2    
   174   87   89 am   BACKBONE|DICT|INTERRES
   175   89   90 1    
   176   89  210 1    
   177   90   91 1    
   178   90   92 1    
   179   90  211 1    
   180   91  212 1    
   181   91  213 1    
   182   91  214 1    
   183   92   93 2    
   184   92   94 am   BACKBONE|DICT|INTERRES
   185   94   95 1    
   186   94  215 1    
   187   95   96 1    
   188   95   97 1    
   189   95  216 1    
   190   96  217 1    
   191   96  218 1    
   192   96  219 1    
   193   97   98 2    
   194   97   99 am   BACKBONE|DICT|INTERRES
   195   99  100 1    
   196   99  220 1    
   197  100  101 1    
   198  100  102 1    
   199  100  221 1    
   200  101  222 1    
   201  101  223 1    
   202  101  224 1    
   203  102  103 2    
   204  102  104 am   BACKBONE|DICT|INTERRES
   205  104  105 1    
   206  104  225 1    
   207  105  106 1    
   208  105  107 1    
   209  105  226 1    
   210  106  227 1    
   211  106  228 1    
   212  106  229 1    
   213  107  108 2    
   214  107  109 am   BACKBONE|DICT|INTERRES
   215  109  110 1    
   216  109  230 1    
   217  110  111 1    
   218  110  112 1    
   219  110  231 1    
   220  111  232 1    
   221  111  233 1    
   222  111  234 1    
   223  112  113 2    
   224  112  114 am   BACKBONE|DICT|INTERRES
   225  114  115 1    
   226  114  235 1    
   227  115  116 1    
   228  115  117 1    
   229  115  236 1    
   230  116  237 1    
   231  116  238 1    
   232  116  239 1    
   233  117  118 2    
   234  117  119 am   BACKBONE|DICT|INTERRES
   235  119  120 1    
   236  119  240 1    
   237  120  121 1    
   238  120  124 1    
   239  120  241 1    
   240  121  122 am   BACKBONE|DICT|INTERRES
   241  121  123 2    
   242  122  242 1    
   243  122  243 1    
   244  124  125 1    
   245  124  244 1    
   246  124  245 1    
   247  125  126 1    
   248  126  246 1    
   249  126  247 1    
@<TRIPOS>SUBSTRUCTURE
     1 UNK         1 GROUP             0       ****    0 ROOT    
