@<TRIPOS>MOLECULE
3R540
247   249    1
SMALL
USER_CHARGES


@<TRIPOS>ATOM
      1 CA         -0.3984  -17.4851  -48.6968 C.3       0 UNK        -0.1800 
      2 C          -0.7420  -16.1027  -49.2227 C.2       0 UNK         0.5000 
      3 O          -1.8517  -15.6190  -49.0034 O.2       0 UNK        -0.5000 
      4 N           0.2069  -15.4518  -49.9097 N.am      1 UNK        -0.5000 
      5 CA          0.0572  -14.1074  -50.4918 C.3       1 UNK         0.1400 
      6 C6          1.2030  -13.7562  -51.4744 C.3       23 UNK        -0.0398 
      7 S7          2.8641  -13.7179  -50.7098 S.3       23 UNK        -0.2404 
      8 C8          3.7352  -15.0365  -51.6134 C.3       23 UNK        -0.0205 
      9 C9          3.2219  -16.4169  -51.2369 C.ar      23 UNK        -0.0193 
     10 C10         2.4191  -17.1408  -52.1243 C.ar      23 UNK        -0.1150 
     11 C11         1.9513  -18.4092  -51.7743 C.ar      23 UNK        -0.0193 
     12 C12         2.2817  -18.9419  -50.5271 C.ar      23 UNK        -0.1150 
     13 C13         3.0932  -18.2391  -49.6332 C.ar      23 UNK        -0.0193 
     14 C14         3.5610  -16.9735  -49.9992 C.ar      23 UNK        -0.1150 
     15 C15         3.4320  -18.8137  -48.2609 C.3       23 UNK        -0.0205 
     16 S16         4.2747  -20.4331  -48.3251 S.3       23 UNK        -0.2404 
     17 C17         2.8687  -21.5905  -48.4693 C.3       23 UNK        -0.0398 
     18 CA          3.0807  -22.9395  -47.7359 C.3       11 UNK         0.1400 
     19 N           3.3164  -22.7462  -46.3023 N.am      11 UNK        -0.5000 
     20 C           3.9076  -23.6320  -45.4906 C.2       10 UNK         0.5000 
     21 O           4.3667  -24.7100  -45.8717 O.2       10 UNK        -0.5000 
     22 CA          4.0136  -23.2492  -44.0035 C.3       10 UNK         0.1400 
     23 CB          5.2736  -22.4062  -43.7493 C.3       10 UNK        -0.1800 
     24 N           2.8340  -22.5089  -43.5528 N.am      10 UNK        -0.5000 
     25 C           1.7521  -23.0782  -43.0018 C.2       9 UNK         0.5000 
     26 O           1.6772  -24.2789  -42.7381 O.2       9 UNK        -0.5000 
     27 CA          0.5478  -22.1688  -42.6723 C.3       9 UNK         0.1400 
     28 CB          0.5303  -21.8207  -41.1761 C.3       9 UNK        -0.1800 
     29 N           0.5036  -20.9266  -43.4435 N.am      9 UNK        -0.5000 
     30 C           0.3118  -20.8537  -44.7678 C.2       8 UNK         0.5000 
     31 O           0.1107  -21.8259  -45.4897 O.2       8 UNK        -0.5000 
     32 CA          0.4109  -19.4599  -45.4069 C.3       8 UNK         0.1400 
     33 CB         -0.9538  -18.7666  -45.3535 C.3       8 UNK        -0.1800 
     34 N           1.4221  -18.5969  -44.7910 N.am      8 UNK        -0.5000 
     35 C           2.7213  -18.8875  -44.6395 C.2       7 UNK         0.5000 
     36 O           3.2179  -19.9500  -45.0130 O.2       7 UNK        -0.5000 
     37 CA          3.6128  -17.8576  -43.9149 C.3       7 UNK         0.1400 
     38 CB          4.2079  -16.8385  -44.9046 C.3       7 UNK        -0.1800 
     39 N           2.9639  -17.1968  -42.7728 N.am      7 UNK        -0.5000 
     40 C           1.9440  -16.3284  -42.7788 C.2       6 UNK         0.5000 
     41 O           1.4163  -15.8877  -43.8012 O.2       6 UNK        -0.5000 
     42 CA          1.3780  -15.9346  -41.4026 C.3       6 UNK         0.1400 
     43 CB          1.5932  -14.4374  -41.1325 C.3       6 UNK        -0.1800 
     44 N          -0.0499  -16.2372  -41.3055 N.am      6 UNK        -0.5000 
     45 C          -0.6108  -17.4447  -41.4713 C.2       5 UNK         0.5000 
     46 O           0.0292  -18.4825  -41.6545 O.2       5 UNK        -0.5000 
     47 CA         -2.1526  -17.5034  -41.4389 C.3       5 UNK         0.1400 
     48 CB         -2.6417  -17.9157  -40.0424 C.3       5 UNK        -0.1800 
     49 N          -2.8145  -16.2513  -41.8307 N.am      5 UNK        -0.5000 
     50 C          -2.7340  -15.7032  -43.0505 C.2       4 UNK         0.5000 
     51 O          -2.0686  -16.1844  -43.9695 O.2       4 UNK        -0.5000 
     52 CA         -3.5095  -14.3989  -43.2886 C.3       4 UNK         0.1400 
     53 CB         -2.8993  -13.2286  -42.4957 C.3       4 UNK        -0.1800 
     54 N          -3.4353  -14.1129  -44.7144 N.am      4 UNK        -0.5000 
     55 C          -4.2788  -13.3861  -45.4504 C.2       3 UNK         0.5000 
     56 O          -5.2800  -12.8291  -44.9965 O.2       3 UNK        -0.5000 
     57 CA         -3.9192  -13.2764  -46.9498 C.3       3 UNK         0.1400 
     58 CB         -4.6666  -12.1398  -47.6768 C.3       3 UNK        -0.1800 
     59 N          -2.4710  -13.1851  -47.1822 N.am      3 UNK        -0.5000 
     60 C          -1.6373  -12.2343  -46.7229 C.2       2 UNK         0.5000 
     61 O          -2.0014  -11.2582  -46.0661 O.2       2 UNK        -0.5000 
     62 CA         -0.1340  -12.4024  -47.0274 C.3       2 UNK         0.1400 
     63 CB          0.5911  -12.9773  -45.7995 C.3       2 UNK        -0.1800 
     64 N           0.1392  -13.2654  -48.1757 N.am      2 UNK        -0.5000 
     65 C          -0.1695  -12.9859  -49.4500 C.2       1 UNK         0.5000 
     66 O          -0.6419  -11.9087  -49.8150 O.2       1 UNK        -0.5000 
     67 C           1.8923  -23.8971  -48.0079 C.2       11 UNK         0.5000 
     68 O           1.2010  -24.3319  -47.0846 O.2       11 UNK        -0.5000 
     69 N           1.6390  -24.1731  -49.2976 N.am      12 UNK        -0.5000 
     70 CA          0.5161  -24.9778  -49.7996 C.3       12 UNK         0.1400 
     71 CB          0.6728  -25.1530  -51.3177 C.3       12 UNK        -0.1800 
     72 C          -0.8813  -24.4080  -49.4706 C.2       12 UNK         0.5000 
     73 O          -1.8552  -25.1619  -49.4597 O.2       12 UNK        -0.5000 
     74 N          -0.9524  -23.1042  -49.1597 N.am      13 UNK        -0.5000 
     75 CA         -2.1474  -22.3951  -48.6926 C.3       13 UNK         0.1400 
     76 CB         -1.8126  -20.9072  -48.5229 C.3       13 UNK        -0.1800 
     77 C          -2.7659  -22.9704  -47.3999 C.2       13 UNK         0.5000 
     78 O          -3.9577  -22.7667  -47.1654 O.2       13 UNK        -0.5000 
     79 N          -1.9791  -23.7342  -46.6254 N.am      14 UNK        -0.5000 
     80 CA         -2.3885  -24.4999  -45.4441 C.3       14 UNK         0.1400 
     81 CB         -1.1541  -25.2064  -44.8666 C.3       14 UNK        -0.1800 
     82 C          -3.5105  -25.5283  -45.7054 C.2       14 UNK         0.5000 
     83 O          -4.1926  -25.9280  -44.7617 O.2       14 UNK        -0.5000 
     84 N          -3.7159  -25.9056  -46.9764 N.am      15 UNK        -0.5000 
     85 CA         -4.8422  -26.7095  -47.4588 C.3       15 UNK         0.1400 
     86 CB         -4.4900  -27.2420  -48.8577 C.3       15 UNK        -0.1800 
     87 C          -6.1924  -25.9518  -47.4870 C.2       15 UNK         0.5000 
     88 O          -7.1937  -26.5402  -47.8965 O.2       15 UNK        -0.5000 
     89 N          -6.1982  -24.6738  -47.0748 N.am      16 UNK        -0.5000 
     90 CA         -7.3150  -23.7226  -47.0786 C.3       16 UNK         0.1400 
     91 CB         -8.5204  -24.2359  -46.2621 C.3       16 UNK        -0.1800 
     92 C          -7.6784  -23.2627  -48.5037 C.2       16 UNK         0.5000 
     93 O          -8.8527  -23.0568  -48.8170 O.2       16 UNK        -0.5000 
     94 N          -6.6456  -23.1016  -49.3395 N.am      17 UNK        -0.5000 
     95 CA         -6.7339  -22.5361  -50.6829 C.3       17 UNK         0.1400 
     96 CB         -5.5314  -23.0336  -51.4976 C.3       17 UNK        -0.1800 
     97 C          -6.7667  -20.9958  -50.6383 C.2       17 UNK         0.5000 
     98 O          -6.4524  -20.3961  -49.6063 O.2       17 UNK        -0.5000 
     99 N          -7.1373  -20.3823  -51.7692 N.am      18 UNK        -0.5000 
    100 CA        -7.1719  -18.9309  -51.9568 C.3       18 UNK         0.1400 
    101 CB        -7.8333  -18.6178  -53.3076 C.3       18 UNK        -0.1800 
    102 C         -5.7700  -18.2956  -51.8815 C.2       18 UNK         0.5000 
    103 O         -4.8007  -18.8919  -52.3591 O.2       18 UNK        -0.5000 
    104 N         -5.7026  -17.0897  -51.3020 N.am      19 UNK        -0.5000 
    105 CA        -4.4840  -16.2999  -51.1156 C.3       19 UNK         0.1400 
    106 CB        -4.8409  -15.0007  -50.3762 C.3       19 UNK        -0.1800 
    107 C         -3.7783  -15.9819  -52.4459 C.2       19 UNK         0.5000 
    108 O         -4.4473  -15.6449  -53.4250 O.2       19 UNK        -0.5000 
    109 N         -2.4464  -16.1202  -52.4546 N.am      20 UNK        -0.5000 
    110 CA        -1.5045  -15.9395  -53.5702 C.3       20 UNK         0.1400 
    111 CB        -1.5572  -14.5041  -54.1284 C.3       20 UNK        -0.1800 
    112 C         -1.6245  -16.9776  -54.7062 C.2       20 UNK         0.5000 
    113 O         -0.6095  -17.2985  -55.3247 O.2       20 UNK        -0.5000 
    114 N         -2.8334  -17.4947  -54.9584 N.am      21 UNK        -0.5000 
    115 CA        -3.1012  -18.5978  -55.8787 C.3       21 UNK         0.1400 
    116 CB        -4.6104  -18.6778  -56.1556 C.3       21 UNK        -0.1800 
    117 C         -2.5661  -19.9267  -55.3189 C.2       21 UNK         0.5000 
    118 O         -1.8246  -20.6248  -56.0111 O.2       21 UNK        -0.5000 
    119 N         -2.9273  -20.2204  -54.0619 N.am      22 UNK        -0.5000 
    120 CA        -2.4166  -21.3269  -53.2347 C.3       22 UNK         0.1400 
    121 C         -2.7518  -22.7629  -53.7442 C.2       22 UNK         0.5000 
    122 N         -3.6910  -22.9371  -54.6658 N.am      22 UNK        -0.7600 
    123 O         -2.1782  -23.7409  -53.2737 O.2       22 UNK        -0.5000 
    124 C124       -0.9132  -21.1613  -52.8852 C.3       23 UNK        -0.0398 
    125 S125       -0.5456  -19.5611  -52.0855 S.3       23 UNK        -0.2404 
    126 C126        1.1187  -19.2338  -52.7423 C.3       23 UNK        -0.0205 
    127 H127       -0.1495  -18.1535  -49.5175 H         1 UNK         0.0600 
    128 H128       -1.2493  -17.9128  -48.1678 H         1 UNK         0.0600 
    129 H129        0.4475  -17.4366  -48.0116 H         1 UNK         0.0600 
    130 H130        1.1080  -15.8889  -50.0530 H         1 UNK         0.3000 
    131 H131       -0.8626  -14.1333  -51.0777 H         1 UNK         0.0600 
    132 H132        1.2002  -14.4646  -52.3025 H         1 UNK         0.0800 
    133 H133        1.0205  -12.7835  -51.9349 H         1 UNK         0.0800 
    134 H134        4.7998  -14.9762  -51.3825 H         1 UNK         0.0800 
    135 H135        3.6481  -14.8645  -52.6875 H         1 UNK         0.0800 
    136 H136        2.1669  -16.7231  -53.0890 H         1 UNK         0.1150 
    137 H137        1.8844  -19.9062  -50.2608 H         1 UNK         0.1150 
    138 H138        4.1819  -16.4098  -49.3168 H         1 UNK         0.1150 
    139 H139        4.0871  -18.1269  -47.7253 H         1 UNK         0.0800 
    140 H140        2.5236  -18.8833  -47.6661 H         1 UNK         0.0800 
    141 H141        2.7308  -21.7662  -49.5361 H         1 UNK         0.0800 
    142 H142        1.9591  -21.1083  -48.1072 H         1 UNK         0.0800 
    143 H143        3.9692  -23.4128  -48.1593 H         1 UNK         0.0600 
    144 H144        2.9985  -21.8690  -45.9099 H         1 UNK         0.3000 
    145 H145        4.1135  -24.1719  -43.4280 H         1 UNK         0.0600 
    146 H146        5.3667  -22.1443  -42.6953 H         1 UNK         0.0600 
    147 H147        6.1719  -22.9583  -44.0280 H         1 UNK         0.0600 
    148 H148        5.2686  -21.4809  -44.3259 H         1 UNK         0.0600 
    149 H149        2.8086  -21.5226  -43.7836 H         1 UNK         0.3000 
    150 H150       -0.3582  -22.7338  -42.8999 H         1 UNK         0.0600 
    151 H151        0.5409  -22.7224  -40.5624 H         1 UNK         0.0600 
    152 H152       -0.3666  -21.2596  -40.9125 H         1 UNK         0.0600 
    153 H153        1.3956  -21.2194  -40.8945 H         1 UNK         0.0600 
    154 H154        0.6156  -20.0637  -42.9214 H         1 UNK         0.3000 
    155 H155        0.6865  -19.5936  -46.4531 H         1 UNK         0.0600 
    156 H156       -1.3058  -18.6688  -44.3270 H         1 UNK         0.0600 
    157 H157       -0.9101  -17.7685  -45.7881 H         1 UNK         0.0600 
    158 H158       -1.7073  -19.3324  -45.9018 H         1 UNK         0.0600 
    159 H159        1.1100  -17.6882  -44.4607 H         1 UNK         0.3000 
    160 H160        4.4463  -18.4182  -43.4886 H         1 UNK         0.0600 
    161 H161        3.4359  -16.3124  -45.4671 H         1 UNK         0.0600 
    162 H162        4.8553  -17.3371  -45.6261 H         1 UNK         0.0600 
    163 H163        4.8143  -16.0941  -44.3886 H         1 UNK         0.0600 
    164 H164        3.2898  -17.5163  -41.8711 H         1 UNK         0.3000 
    165 H165        1.8920  -16.5035  -40.6253 H         1 UNK         0.0600 
    166 H166        1.2393  -14.1595  -40.1395 H         1 UNK         0.0600 
    167 H167        2.6519  -14.1802  -41.1839 H         1 UNK         0.0600 
    168 H168        1.0692  -13.8177  -41.8619 H         1 UNK         0.0600 
    169 H169       -0.6667  -15.4477  -41.1921 H         1 UNK         0.3000 
    170 H170       -2.4599  -18.2767  -42.1458 H         1 UNK         0.0600 
    171 H171       -2.1886  -18.8586  -39.7326 H         1 UNK         0.0600 
    172 H172       -2.3890  -17.1673  -39.2903 H         1 UNK         0.0600 
    173 H173       -3.7226  -18.0569  -40.0278 H         1 UNK         0.0600 
    174 H174       -3.3786  -15.8002  -41.1247 H         1 UNK         0.3000 
    175 H175       -4.5504  -14.5521  -42.9973 H         1 UNK         0.0600 
    176 H176       -1.8506  -13.0743  -42.7539 H         1 UNK         0.0600 
    177 H177       -3.4306  -12.2977  -42.6949 H         1 UNK         0.0600 
    178 H178       -2.9531  -13.4066  -41.4213 H         1 UNK         0.0600 
    179 H179       -2.6727  -14.5975  -45.1731 H         1 UNK         0.3000 
    180 H180       -4.2355  -14.2173  -47.4011 H         1 UNK         0.0600 
    181 H181       -4.4466  -11.1651  -47.2407 H         1 UNK         0.0600 
    182 H182       -5.7460  -12.2859  -47.6237 H         1 UNK         0.0600 
    183 H183       -4.3965  -12.1041  -48.7323 H         1 UNK         0.0600 
    184 H184       -2.0752  -13.9457  -47.7245 H         1 UNK         0.3000 
    185 H185        0.2746  -11.4125  -47.2403 H         1 UNK         0.0600 
    186 H186        0.4427  -12.3438  -44.9240 H         1 UNK         0.0600 
    187 H187        0.2258  -13.9737  -45.5457 H         1 UNK         0.0600 
    188 H188        1.6656  -13.0478  -45.9693 H         1 UNK         0.0600 
    189 H189        0.5341  -14.1721  -47.9752 H         1 UNK         0.3000 
    190 H190        2.2618  -23.8109  -50.0049 H         1 UNK         0.3000 
    191 H191        0.5792  -25.9623  -49.3316 H         1 UNK         0.0600 
    192 H192        0.6509  -24.1949  -51.8383 H         1 UNK         0.0600 
    193 H193       -0.1339  -25.7633  -51.7266 H         1 UNK         0.0600 
    194 H194        1.6110  -25.6503  -51.5646 H         1 UNK         0.0600 
    195 H195       -0.0987  -22.5702  -49.1853 H         1 UNK         0.3000 
    196 H196       -2.9039  -22.4848  -49.4729 H         1 UNK         0.0600 
    197 H197       -2.6735  -20.3489  -48.1525 H         1 UNK         0.0600 
    198 H198       -1.5237  -20.4583  -49.4717 H         1 UNK         0.0600 
    199 H199       -0.9940  -20.7603  -47.8197 H         1 UNK         0.0600 
    200 H200       -0.9964  -23.7994  -46.8658 H         1 UNK         0.3000 
    201 H201       -2.7582  -23.7865  -44.7054 H         1 UNK         0.0600 
    202 H202       -0.3550  -24.4959  -44.6601 H         1 UNK         0.0600 
    203 H203       -0.7596  -25.9522  -45.5580 H         1 UNK         0.0600 
    204 H204       -1.3908  -25.7137  -43.9306 H         1 UNK         0.0600 
    205 H205       -3.0923  -25.5448  -47.6898 H         1 UNK         0.3000 
    206 H206       -4.9654  -27.5630  -46.7893 H         1 UNK         0.0600 
    207 H207       -3.5534  -27.7997  -48.8444 H         1 UNK         0.0600 
    208 H208       -5.2622  -27.9165  -49.2296 H         1 UNK         0.0600 
    209 H209       -4.3863  -26.4311  -49.5799 H         1 UNK         0.0600 
    210 H210       -5.3068  -24.2659  -46.8152 H         1 UNK         0.3000 
    211 H211       -6.9415  -22.8327  -46.5699 H         1 UNK         0.0600 
    212 H212       -9.0254  -25.0670  -46.7544 H         1 UNK         0.0600 
    213 H213       -9.2593  -23.4457  -46.1250 H         1 UNK         0.0600 
    214 H214       -8.2130  -24.5676  -45.2704 H         1 UNK         0.0600 
    215 H215       -5.7168  -23.2340  -48.9668 H         1 UNK         0.3000 
    216 H216       -7.6501  -22.8894  -51.1608 H         1 UNK         0.0600 
    217 H217       -5.5924  -22.6896  -52.5301 H         1 UNK         0.0600 
    218 H218       -5.4912  -24.1229  -51.5225 H         1 UNK         0.0600 
    219 H219       -4.5892  -22.6736  -51.0860 H         1 UNK         0.0600 
    220 H220       -7.3516  -20.9413  -52.5817 H         1 UNK         0.3000 
    221 H221       -7.7903  -18.5062  -51.1630 H         1 UNK         0.0600 
    222 H222       -7.2943  -19.0774  -54.1363 H         1 UNK         0.0600 
    223 H223       -8.8614  -18.9793  -53.3360 H         1 UNK         0.0600 
    224 H224       -7.8626  -17.5428  -53.4910 H         1 UNK         0.0600 
    225 H225       -6.5562  -16.6640  -50.9727 H         1 UNK         0.3000 
    226 H226       -3.8091  -16.8853  -50.4877 H         1 UNK         0.0600 
    227 H227       -5.2823  -15.2106  -49.4021 H         1 UNK         0.0600 
    228 H228       -3.9536  -14.3895  -50.2056 H         1 UNK         0.0600 
    229 H229       -5.5492  -14.3959  -50.9437 H         1 UNK         0.0600 
    230 H230       -2.0181  -16.4450  -51.5996 H         1 UNK         0.3000 
    231 H231       -0.5156  -16.0855  -53.1330 H         1 UNK         0.0600 
    232 H232       -0.7544  -14.3401  -54.8482 H         1 UNK         0.0600 
    233 H233       -1.4425  -13.7609  -53.3405 H         1 UNK         0.0600 
    234 H234       -2.4972  -14.3021  -54.6425 H         1 UNK         0.0600 
    235 H235       -3.6178  -17.1294  -54.4293 H         1 UNK         0.3000 
    236 H236       -2.5903  -18.3947  -56.8222 H         1 UNK         0.0600 
    237 H237       -4.9753  -17.7580  -56.6129 H         1 UNK         0.0600 
    238 H238       -4.8395  -19.4953  -56.8403 H         1 UNK         0.0600 
    239 H239       -5.1796  -18.8435  -55.2410 H         1 UNK         0.0600 
    240 H240       -3.5611  -19.5920  -53.5732 H         1 UNK         0.3000 
    241 H241       -2.9655  -21.2439  -52.2963 H         1 UNK         0.0600 
    242 H242       -4.1648  -22.1454  -55.0685 H         1 UNK         0.3800 
    243 H243       -3.9058  -23.8687  -54.9835 H         1 UNK         0.3800 
    244 H244       -0.5888  -21.9451  -52.1990 H         1 UNK         0.0800 
    245 H245       -0.3081  -21.2721  -53.7861 H         1 UNK         0.0800 
    246 H246        1.6400  -20.1757  -52.9186 H         1 UNK         0.0800 
    247 H247        1.0330  -18.7411  -53.7114 H         1 UNK         0.0800 
@<TRIPOS>BOND
     1    1    2 1    
     2    1  127 1    
     3    1  128 1    
     4    1  129 1    
     5    2    3 2    
     6    2    4 am   BACKBONE|DICT|INTERRES
     7    4    5 1    
     8    4  130 1    
     9    5    6 1    
    10    5   65 1    
    11    5  131 1    
    12    6    7 1    
    13    6  132 1    
    14    6  133 1    
    15    7    8 1    
    16    8    9 1    
    17    8  134 1    
    18    8  135 1    
    19    9   10 ar   
    20    9   14 ar   
    21   10   11 ar   
    22   10  136 1    
    23   11   12 ar   
    24   11  126 1    
    25   12   13 ar   
    26   12  137 1    
    27   13   14 ar   
    28   13   15 1    
    29   14  138 1    
    30   15   16 1    
    31   15  139 1    
    32   15  140 1    
    33   16   17 1    
    34   17   18 1    
    35   17  141 1    
    36   17  142 1    
    37   18   19 1    
    38   18   67 1    
    39   18  143 1    
    40   19   20 am   BACKBONE|DICT|INTERRES
    41   19  144 1    
    42   20   21 2    
    43   20   22 1    
    44   22   23 1    
    45   22   24 1    
    46   22  145 1    
    47   23  146 1    
    48   23  147 1    
    49   23  148 1    
    50   24   25 am   BACKBONE|DICT|INTERRES
    51   24  149 1    
    52   25   26 2    
    53   25   27 1    
    54   27   28 1    
    55   27   29 1    
    56   27  150 1    
    57   28  151 1    
    58   28  152 1    
    59   28  153 1    
    60   29   30 am   BACKBONE|DICT|INTERRES
    61   29  154 1    
    62   30   31 2    
    63   30   32 1    
    64   32   33 1    
    65   32   34 1    
    66   32  155 1    
    67   33  156 1    
    68   33  157 1    
    69   33  158 1    
    70   34   35 am   BACKBONE|DICT|INTERRES
    71   34  159 1    
    72   35   36 2    
    73   35   37 1    
    74   37   38 1    
    75   37   39 1    
    76   37  160 1    
    77   38  161 1    
    78   38  162 1    
    79   38  163 1    
    80   39   40 am   BACKBONE|DICT|INTERRES
    81   39  164 1    
    82   40   41 2    
    83   40   42 1    
    84   42   43 1    
    85   42   44 1    
    86   42  165 1    
    87   43  166 1    
    88   43  167 1    
    89   43  168 1    
    90   44   45 am   BACKBONE|DICT|INTERRES
    91   44  169 1    
    92   45   46 2    
    93   45   47 1    
    94   47   48 1    
    95   47   49 1    
    96   47  170 1    
    97   48  171 1    
    98   48  172 1    
    99   48  173 1    
   100   49   50 am   BACKBONE|DICT|INTERRES
   101   49  174 1    
   102   50   51 2    
   103   50   52 1    
   104   52   53 1    
   105   52   54 1    
   106   52  175 1    
   107   53  176 1    
   108   53  177 1    
   109   53  178 1    
   110   54   55 am   BACKBONE|DICT|INTERRES
   111   54  179 1    
   112   55   56 2    
   113   55   57 1    
   114   57   58 1    
   115   57   59 1    
   116   57  180 1    
   117   58  181 1    
   118   58  182 1    
   119   58  183 1    
   120   59   60 am   BACKBONE|DICT|INTERRES
   121   59  184 1    
   122   60   61 2    
   123   60   62 1    
   124   62   63 1    
   125   62   64 1    
   126   62  185 1    
   127   63  186 1    
   128   63  187 1    
   129   63  188 1    
   130   64   65 am   BACKBONE|DICT|INTERRES
   131   64  189 1    
   132   65   66 2    
   133   67   68 2    
   134   67   69 am   BACKBONE|DICT|INTERRES
   135   69   70 1    
   136   69  190 1    
   137   70   71 1    
   138   70   72 1    
   139   70  191 1    
   140   71  192 1    
   141   71  193 1    
   142   71  194 1    
   143   72   73 2    
   144   72   74 am   BACKBONE|DICT|INTERRES
   145   74   75 1    
   146   74  195 1    
   147   75   76 1    
   148   75   77 1    
   149   75  196 1    
   150   76  197 1    
   151   76  198 1    
   152   76  199 1    
   153   77   78 2    
   154   77   79 am   BACKBONE|DICT|INTERRES
   155   79   80 1    
   156   79  200 1    
   157   80   81 1    
   158   80   82 1    
   159   80  201 1    
   160   81  202 1    
   161   81  203 1    
   162   81  204 1    
   163   82   83 2    
   164   82   84 am   BACKBONE|DICT|INTERRES
   165   84   85 1    
   166   84  205 1    
   167   85   86 1    
   168   85   87 1    
   169   85  206 1    
   170   86  207 1    
   171   86  208 1    
   172   86  209 1    
   173   87   88 2    
   174   87   89 am   BACKBONE|DICT|INTERRES
   175   89   90 1    
   176   89  210 1    
   177   90   91 1    
   178   90   92 1    
   179   90  211 1    
   180   91  212 1    
   181   91  213 1    
   182   91  214 1    
   183   92   93 2    
   184   92   94 am   BACKBONE|DICT|INTERRES
   185   94   95 1    
   186   94  215 1    
   187   95   96 1    
   188   95   97 1    
   189   95  216 1    
   190   96  217 1    
   191   96  218 1    
   192   96  219 1    
   193   97   98 2    
   194   97   99 am   BACKBONE|DICT|INTERRES
   195   99  100 1    
   196   99  220 1    
   197  100  101 1    
   198  100  102 1    
   199  100  221 1    
   200  101  222 1    
   201  101  223 1    
   202  101  224 1    
   203  102  103 2    
   204  102  104 am   BACKBONE|DICT|INTERRES
   205  104  105 1    
   206  104  225 1    
   207  105  106 1    
   208  105  107 1    
   209  105  226 1    
   210  106  227 1    
   211  106  228 1    
   212  106  229 1    
   213  107  108 2    
   214  107  109 am   BACKBONE|DICT|INTERRES
   215  109  110 1    
   216  109  230 1    
   217  110  111 1    
   218  110  112 1    
   219  110  231 1    
   220  111  232 1    
   221  111  233 1    
   222  111  234 1    
   223  112  113 2    
   224  112  114 am   BACKBONE|DICT|INTERRES
   225  114  115 1    
   226  114  235 1    
   227  115  116 1    
   228  115  117 1    
   229  115  236 1    
   230  116  237 1    
   231  116  238 1    
   232  116  239 1    
   233  117  118 2    
   234  117  119 am   BACKBONE|DICT|INTERRES
   235  119  120 1    
   236  119  240 1    
   237  120  121 1    
   238  120  124 1    
   239  120  241 1    
   240  121  122 am   BACKBONE|DICT|INTERRES
   241  121  123 2    
   242  122  242 1    
   243  122  243 1    
   244  124  125 1    
   245  124  244 1    
   246  124  245 1    
   247  125  126 1    
   248  126  246 1    
   249  126  247 1    
@<TRIPOS>SUBSTRUCTURE
     1 UNK         1 GROUP             0       ****    0 ROOT    
