@<TRIPOS>MOLECULE
3R540
247   249    1
SMALL
USER_CHARGES


@<TRIPOS>ATOM
      1 CA          1.8137  -12.3550  -50.6030 C.3       0 UNK        -0.1800 
      2 C           2.6753  -12.9009  -49.4754 C.2       0 UNK         0.5000 
      3 O           3.5636  -12.2034  -48.9859 O.2       0 UNK        -0.5000 
      4 N           2.4109  -14.1455  -49.0575 N.am      1 UNK        -0.5000 
      5 CA          3.1477  -14.8416  -47.9926 C.3       1 UNK         0.1400 
      6 C6          2.9221  -16.3744  -48.0076 C.3       23 UNK        -0.0398 
      7 S7          3.3495  -17.1437  -49.6076 S.3       23 UNK        -0.2404 
      8 C8          1.7407  -17.7823  -50.1746 C.3       23 UNK        -0.0205 
      9 C9          0.7637  -16.6668  -50.5103 C.ar      23 UNK        -0.0193 
     10 C10         0.8342  -16.0177  -51.7454 C.ar      23 UNK        -0.1150 
     11 C11        -0.0733  -15.0044  -52.0676 C.ar      23 UNK        -0.0193 
     12 C12        -1.0573  -14.6448  -51.1414 C.ar      23 UNK        -0.1150 
     13 C13        -1.1439  -15.2920  -49.9055 C.ar      23 UNK        -0.0193 
     14 C14        -0.2219  -16.2945  -49.5932 C.ar      23 UNK        -0.1150 
     15 C15        -2.2328  -14.9037  -48.9154 C.3       23 UNK        -0.0205 
     16 S16        -3.4977  -16.2073  -48.7378 S.3       23 UNK        -0.2404 
     17 C17        -2.7882  -17.2461  -47.4160 C.3       23 UNK        -0.0398 
     18 CA         -2.4080  -18.6777  -47.8846 C.3       11 UNK         0.1400 
     19 N          -1.2179  -19.1695  -47.1831 N.am      11 UNK        -0.5000 
     20 C          -0.5328  -20.2794  -47.4989 C.2       10 UNK         0.5000 
     21 O          -0.7980  -20.9951  -48.4648 O.2       10 UNK        -0.5000 
     22 CA          0.6176  -20.6806  -46.5517 C.3       10 UNK         0.1400 
     23 CB          1.9515  -20.1078  -47.0497 C.3       10 UNK        -0.1800 
     24 N           0.3971  -20.2601  -45.1658 N.am      10 UNK        -0.5000 
     25 C          -0.5933  -20.7184  -44.3832 C.2       9 UNK         0.5000 
     26 O          -1.3851  -21.5901  -44.7384 O.2       9 UNK        -0.5000 
     27 CA         -0.7816  -20.0562  -43.0028 C.3       9 UNK         0.1400 
     28 CB         -0.0783  -20.8776  -41.9137 C.3       9 UNK        -0.1800 
     29 N          -0.3061  -18.6730  -42.9435 N.am      9 UNK        -0.5000 
     30 C          -0.7288  -17.6720  -43.7288 C.2       8 UNK         0.5000 
     31 O          -1.6350  -17.7934  -44.5527 O.2       8 UNK        -0.5000 
     32 CA          0.0222  -16.3313  -43.6303 C.3       8 UNK         0.1400 
     33 CB         -0.7898  -15.3334  -42.7906 C.3       8 UNK        -0.1800 
     34 N           1.3754  -16.4432  -43.0766 N.am      8 UNK        -0.5000 
     35 C           2.3837  -17.1650  -43.5903 C.2       7 UNK         0.5000 
     36 O           2.2903  -17.8175  -44.6305 O.2       7 UNK        -0.5000 
     37 CA          3.6850  -17.2238  -42.7679 C.3       7 UNK         0.1400 
     38 CB          4.6576  -16.1068  -43.1681 C.3       7 UNK        -0.1800 
     39 N           3.4256  -17.1314  -41.3312 N.am      7 UNK        -0.5000 
     40 C           3.0743  -18.1645  -40.5540 C.2       6 UNK         0.5000 
     41 O           2.9474  -19.3169  -40.9664 O.2       6 UNK        -0.5000 
     42 CA          2.8124  -17.8567  -39.0672 C.3       6 UNK         0.1400 
     43 CB          4.1102  -17.9848  -38.2552 C.3       6 UNK        -0.1800 
     44 N           2.2452  -16.5238  -38.8569 N.am      6 UNK        -0.5000 
     45 C           0.9912  -16.1779  -39.1788 C.2       5 UNK         0.5000 
     46 O           0.1641  -16.9633  -39.6419 O.2       5 UNK        -0.5000 
     47 CA          0.6089  -14.6968  -38.9827 C.3       5 UNK         0.1400 
     48 CB          0.0340  -14.4722  -37.5762 C.3       5 UNK        -0.1800 
     49 N           1.7133  -13.7556  -39.2096 N.am      5 UNK        -0.5000 
     50 C           2.3661  -13.6155  -40.3699 C.2       4 UNK         0.5000 
     51 O           2.1519  -14.3187  -41.3613 O.2       4 UNK        -0.5000 
     52 CA          3.4614  -12.5433  -40.4322 C.3       4 UNK         0.1400 
     53 CB          4.7656  -13.0503  -39.7937 C.3       4 UNK        -0.1800 
     54 N           3.6892  -12.2391  -41.8378 N.am      4 UNK        -0.5000 
     55 C           4.1259  -11.0865  -42.3548 C.2       3 UNK         0.5000 
     56 O           4.4733  -10.1191  -41.6765 O.2       3 UNK        -0.5000 
     57 CA          4.1732  -10.9991  -43.8945 C.3       3 UNK         0.1400 
     58 CB          5.6003  -11.2528  -44.4034 C.3       3 UNK        -0.1800 
     59 N           3.2701  -11.9575  -44.5355 N.am      3 UNK        -0.5000 
     60 C           1.9414  -11.8328  -44.6252 C.2       2 UNK         0.5000 
     61 O           1.3341  -10.8204  -44.2729 O.2       2 UNK        -0.5000 
     62 CA          1.1701  -13.0553  -45.1745 C.3       2 UNK         0.1400 
     63 CB         -0.3354  -12.7869  -45.3513 C.3       2 UNK        -0.1800 
     64 N           1.6968  -13.5901  -46.4328 N.am      2 UNK        -0.5000 
     65 C           2.8316  -14.2865  -46.5883 C.2       1 UNK         0.5000 
     66 O           3.6190  -14.5017  -45.6690 O.2       1 UNK        -0.5000 
     67 C          -3.5882  -19.6566  -47.7112 C.2       11 UNK         0.5000 
     68 O          -4.2681  -19.9881  -48.6831 O.2       11 UNK        -0.5000 
     69 N          -3.7767  -20.1303  -46.4703 N.am      12 UNK        -0.5000 
     70 CA         -4.7794  -21.1290  -46.1078 C.3       12 UNK         0.1400 
     71 CB         -4.9442  -21.1636  -44.5811 C.3       12 UNK        -0.1800 
     72 C          -4.4308  -22.5223  -46.6556 C.2       12 UNK         0.5000 
     73 O          -5.3155  -23.2033  -47.1726 O.2       12 UNK        -0.5000 
     74 N          -3.1496  -22.9089  -46.5652 N.am      13 UNK        -0.5000 
     75 CA         -2.6266  -24.1899  -47.0441 C.3       13 UNK         0.1400 
     76 CB         -1.1418  -24.3218  -46.6795 C.3       13 UNK        -0.1800 
     77 C          -2.8294  -24.4034  -48.5534 C.2       13 UNK         0.5000 
     78 O          -3.2087  -25.5018  -48.9556 O.2       13 UNK        -0.5000 
     79 N          -2.6232  -23.3472  -49.3541 N.am      14 UNK        -0.5000 
     80 CA         -2.8496  -23.3507  -50.8017 C.3       14 UNK         0.1400 
     81 CB         -2.3835  -22.0130  -51.3940 C.3       14 UNK        -0.1800 
     82 C          -4.3146  -23.6285  -51.1890 C.2       14 UNK         0.5000 
     83 O          -4.5624  -24.3232  -52.1773 O.2       14 UNK        -0.5000 
     84 N          -5.2550  -23.1017  -50.3945 N.am      15 UNK        -0.5000 
     85 CA         -6.6860  -23.3515  -50.5426 C.3       15 UNK         0.1400 
     86 CB         -7.4797  -22.2586  -49.8107 C.3       15 UNK        -0.1800 
     87 C          -7.0715  -24.7530  -50.0389 C.2       15 UNK         0.5000 
     88 O          -7.7900  -25.4680  -50.7367 O.2       15 UNK        -0.5000 
     89 N          -6.5659  -25.1334  -48.8565 N.am      16 UNK        -0.5000 
     90 CA         -6.8292  -26.4163  -48.1974 C.3       16 UNK         0.1400 
     91 CB         -6.2218  -26.4000  -46.7871 C.3       16 UNK        -0.1800 
     92 C          -6.3207  -27.6344  -48.9908 C.2       16 UNK         0.5000 
     93 O          -7.0003  -28.6606  -49.0300 O.2       16 UNK        -0.5000 
     94 N          -5.1559  -27.4896  -49.6364 N.am      17 UNK        -0.5000 
     95 CA         -4.5648  -28.4862  -50.5325 C.3       17 UNK         0.1400 
     96 CB         -3.0689  -28.1732  -50.7009 C.3       17 UNK        -0.1800 
     97 C          -5.2492  -28.5533  -51.9132 C.2       17 UNK         0.5000 
     98 O          -4.9405  -29.4599  -52.6875 O.2       17 UNK        -0.5000 
     99 N          -6.1324  -27.5862  -52.2093 N.am      18 UNK        -0.5000 
    100 CA        -6.8305  -27.3696  -53.4808 C.3       18 UNK         0.1400 
    101 CB        -7.7825  -28.5407  -53.8017 C.3       18 UNK        -0.1800 
    102 C         -5.8772  -27.0258  -54.6454 C.2       18 UNK         0.5000 
    103 O         -6.2066  -27.2751  -55.8064 O.2       18 UNK        -0.5000 
    104 N         -4.7169  -26.4408  -54.3163 N.am      19 UNK        -0.5000 
    105 CA        -3.7430  -25.9282  -55.2780 C.3       19 UNK         0.1400 
    106 CB        -2.3753  -25.7901  -54.5901 C.3       19 UNK        -0.1800 
    107 C         -4.1981  -24.5799  -55.8606 C.2       19 UNK         0.5000 
    108 O         -3.9806  -24.3245  -57.0452 O.2       19 UNK        -0.5000 
    109 N         -4.8302  -23.7567  -55.0082 N.am      20 UNK        -0.5000 
    110 CA        -5.4127  -22.4416  -55.2968 C.3       20 UNK         0.1400 
    111 CB        -6.6126  -22.5770  -56.2566 C.3       20 UNK        -0.1800 
    112 C         -4.3834  -21.3922  -55.7692 C.2       20 UNK         0.5000 
    113 O         -4.7472  -20.4407  -56.4650 O.2       20 UNK        -0.5000 
    114 N         -3.1157  -21.5699  -55.3693 N.am      21 UNK        -0.5000 
    115 CA        -2.0117  -20.6491  -55.6340 C.3       21 UNK         0.1400 
    116 CB        -0.7038  -21.2554  -55.1016 C.3       21 UNK        -0.1800 
    117 C         -2.2861  -19.2736  -55.0014 C.2       21 UNK         0.5000 
    118 O         -2.5562  -19.2040  -53.8008 O.2       21 UNK        -0.5000 
    119 N         -2.2489  -18.2237  -55.8307 N.am      22 UNK        -0.5000 
    120 CA        -2.6433  -16.8468  -55.4848 C.3       22 UNK         0.1400 
    121 C         -4.1845  -16.6389  -55.3176 C.2       22 UNK         0.5000 
    122 N         -5.0355  -17.5944  -55.6761 N.am      22 UNK        -0.7600 
    123 O         -4.6315  -15.5790  -54.8889 O.2       22 UNK        -0.5000 
    124 C124       -1.8125  -16.2771  -54.2994 C.3       23 UNK        -0.0398 
    125 S125       -1.5224  -14.4779  -54.3978 S.3       23 UNK        -0.2404 
    126 C126        0.0076  -14.3069  -53.4205 C.3       23 UNK        -0.0205 
    127 H127        0.7591  -12.5554  -50.4163 H         1 UNK         0.0600 
    128 H128        2.0962  -12.8154  -51.5495 H         1 UNK         0.0600 
    129 H129        1.9384  -11.2762  -50.6972 H         1 UNK         0.0600 
    130 H130        1.6953  -14.6869  -49.5244 H         1 UNK         0.3000 
    131 H131        4.2124  -14.6671  -48.1628 H         1 UNK         0.0600 
    132 H132        3.5438  -16.8516  -47.2471 H         1 UNK         0.0800 
    133 H133        1.8946  -16.6177  -47.7371 H         1 UNK         0.0800 
    134 H134        1.3191  -18.4461  -49.4194 H         1 UNK         0.0800 
    135 H135        1.9013  -18.3998  -51.0596 H         1 UNK         0.0800 
    136 H136        1.5963  -16.3066  -52.4556 H         1 UNK         0.1150 
    137 H137       -1.7643  -13.8669  -51.3938 H         1 UNK         0.1150 
    138 H138       -0.2785  -16.7988  -48.6411 H         1 UNK         0.1150 
    139 H139       -1.7902  -14.6578  -47.9495 H         1 UNK         0.0800 
    140 H140       -2.7334  -13.9937  -49.2496 H         1 UNK         0.0800 
    141 H141       -3.4894  -17.2658  -46.5793 H         1 UNK         0.0800 
    142 H142       -1.9109  -16.7360  -47.0189 H         1 UNK         0.0800 
    143 H143       -2.1555  -18.6476  -48.9472 H         1 UNK         0.0600 
    144 H144       -0.9821  -18.6861  -46.3249 H         1 UNK         0.3000 
    145 H145        0.6962  -21.7681  -46.5606 H         1 UNK         0.0600 
    146 H146        2.7801  -20.4302  -46.4190 H         1 UNK         0.0600 
    147 H147        2.1671  -20.4413  -48.0655 H         1 UNK         0.0600 
    148 H148        1.9420  -19.0183  -47.0548 H         1 UNK         0.0600 
    149 H149        1.0028  -19.5261  -44.8155 H         1 UNK         0.3000 
    150 H150       -1.8521  -20.0449  -42.7886 H         1 UNK         0.0600 
    151 H151       -0.4561  -21.9006  -41.8912 H         1 UNK         0.0600 
    152 H152       -0.2424  -20.4481  -40.9251 H         1 UNK         0.0600 
    153 H153        0.9980  -20.9290  -42.0828 H         1 UNK         0.0600 
    154 H154        0.4403  -18.4790  -42.2912 H         1 UNK         0.3000 
    155 H155        0.1148  -15.9399  -44.6449 H         1 UNK         0.0600 
    156 H156       -0.9701  -15.7120  -41.7846 H         1 UNK         0.0600 
    157 H157       -1.7621  -15.1428  -43.2466 H         1 UNK         0.0600 
    158 H158       -0.2818  -14.3743  -42.6972 H         1 UNK         0.0600 
    159 H159        1.5693  -15.8782  -42.2550 H         1 UNK         0.3000 
    160 H160        4.1691  -18.1794  -42.9805 H         1 UNK         0.0600 
    161 H161        5.5664  -16.1391  -42.5671 H         1 UNK         0.0600 
    162 H162        4.2126  -15.1186  -43.0496 H         1 UNK         0.0600 
    163 H163        4.9583  -16.2144  -44.2105 H         1 UNK         0.0600 
    164 H164        3.4504  -16.2064  -40.9272 H         1 UNK         0.3000 
    165 H165        2.1021  -18.5979  -38.6943 H         1 UNK         0.0600 
    166 H166        3.9255  -17.8380  -37.1909 H         1 UNK         0.0600 
    167 H167        4.5484  -18.9767  -38.3740 H         1 UNK         0.0600 
    168 H168        4.8576  -17.2557  -38.5708 H         1 UNK         0.0600 
    169 H169        2.8563  -15.8190  -38.4714 H         1 UNK         0.3000 
    170 H170       -0.1730  -14.4655  -39.7089 H         1 UNK         0.0600 
    171 H171       -0.8054  -15.1424  -37.3854 H         1 UNK         0.0600 
    172 H172        0.7810  -14.6529  -36.8022 H         1 UNK         0.0600 
    173 H173       -0.3336  -13.4528  -37.4580 H         1 UNK         0.0600 
    174 H174        1.9544  -13.1529  -38.4358 H         1 UNK         0.3000 
    175 H175        3.1092  -11.6498  -39.9127 H         1 UNK         0.0600 
    176 H176        4.6209  -13.2915  -38.7400 H         1 UNK         0.0600 
    177 H177        5.5497  -12.2949  -39.8474 H         1 UNK         0.0600 
    178 H178        5.1338  -13.9486  -40.2912 H         1 UNK         0.0600 
    179 H179        3.3694  -12.9661  -42.4646 H         1 UNK         0.3000 
    180 H180        3.8779   -9.9880  -44.1823 H         1 UNK         0.0600 
    181 H181        5.9445  -12.2566  -44.1505 H         1 UNK         0.0600 
    182 H182        6.3037  -10.5431  -43.9661 H         1 UNK         0.0600 
    183 H183        5.6575  -11.1418  -45.4865 H         1 UNK         0.0600 
    184 H184        3.6779  -12.8287  -44.8668 H         1 UNK         0.3000 
    185 H185        1.2806  -13.8311  -44.4165 H         1 UNK         0.0600 
    186 H186       -0.7878  -12.4477  -44.4185 H         1 UNK         0.0600 
    187 H187       -0.5204  -12.0208  -46.1051 H         1 UNK         0.0600 
    188 H188       -0.8654  -13.6905  -45.6531 H         1 UNK         0.0600 
    189 H189        1.1421  -13.4149  -47.2574 H         1 UNK         0.3000 
    190 H190       -3.1526  -19.8268  -45.7364 H         1 UNK         0.3000 
    191 H191       -5.7343  -20.8287  -46.5448 H         1 UNK         0.0600 
    192 H192       -4.0196  -21.4482  -44.0781 H         1 UNK         0.0600 
    193 H193       -5.7102  -21.8832  -44.2894 H         1 UNK         0.0600 
    194 H194       -5.2493  -20.1906  -44.1956 H         1 UNK         0.0600 
    195 H195       -2.4963  -22.3133  -46.0628 H         1 UNK         0.3000 
    196 H196       -3.1710  -24.9772  -46.5202 H         1 UNK         0.0600 
    197 H197       -0.7633  -25.3092  -46.9470 H         1 UNK         0.0600 
    198 H198       -0.9805  -24.1912  -45.6094 H         1 UNK         0.0600 
    199 H199       -0.5348  -23.5875  -47.2073 H         1 UNK         0.0600 
    200 H200       -2.2734  -22.4860  -48.9488 H         1 UNK         0.3000 
    201 H201       -2.2407  -24.1477  -51.2330 H         1 UNK         0.0600 
    202 H202       -1.3159  -21.8608  -51.2342 H         1 UNK         0.0600 
    203 H203       -2.9103  -21.1688  -50.9470 H         1 UNK         0.0600 
    204 H204       -2.5612  -21.9758  -52.4688 H         1 UNK         0.0600 
    205 H205       -4.9655  -22.5604  -49.5913 H         1 UNK         0.3000 
    206 H206       -6.9404  -23.2950  -51.6035 H         1 UNK         0.0600 
    207 H207       -7.2408  -21.2701  -50.2036 H         1 UNK         0.0600 
    208 H208       -8.5529  -22.4080  -49.9349 H         1 UNK         0.0600 
    209 H209       -7.2718  -22.2503  -48.7406 H         1 UNK         0.0600 
    210 H210       -6.0044  -24.4659  -48.3319 H         1 UNK         0.3000 
    211 H211       -7.9119  -26.5173  -48.0987 H         1 UNK         0.0600 
    212 H212       -5.1379  -26.2913  -46.8203 H         1 UNK         0.0600 
    213 H213       -6.4431  -27.3260  -46.2550 H         1 UNK         0.0600 
    214 H214       -6.6233  -25.5789  -46.1929 H         1 UNK         0.0600 
    215 H215       -4.6183  -26.6372  -49.4948 H         1 UNK         0.3000 
    216 H216       -4.6588  -29.4711  -50.0707 H         1 UNK         0.0600 
    217 H217       -2.5770  -28.9211  -51.3240 H         1 UNK         0.0600 
    218 H218       -2.5566  -28.1664  -49.7387 H         1 UNK         0.0600 
    219 H219       -2.9133  -27.2007  -51.1704 H         1 UNK         0.0600 
    220 H220       -6.3385  -26.9017  -51.4920 H         1 UNK         0.3000 
    221 H221       -7.4468  -26.4817  -53.3337 H         1 UNK         0.0600 
    222 H222       -8.4204  -28.3032  -54.6537 H         1 UNK         0.0600 
    223 H223       -8.4381  -28.7570  -52.9581 H         1 UNK         0.0600 
    224 H224       -7.2382  -29.4527  -54.0474 H         1 UNK         0.0600 
    225 H225       -4.5538  -26.2155  -53.3434 H         1 UNK         0.3000 
    226 H226       -3.6441  -26.6407  -56.0998 H         1 UNK         0.0600 
    227 H227       -1.6212  -25.4309  -55.2916 H         1 UNK         0.0600 
    228 H228       -2.4080  -25.0885  -53.7560 H         1 UNK         0.0600 
    229 H229       -2.0305  -26.7501  -54.2053 H         1 UNK         0.0600 
    230 H230       -4.9013  -24.0583  -54.0395 H         1 UNK         0.3000 
    231 H231       -5.7962  -22.0710  -54.3450 H         1 UNK         0.0600 
    232 H232       -7.3281  -23.3136  -55.8912 H         1 UNK         0.0600 
    233 H233       -6.2991  -22.8805  -57.2558 H         1 UNK         0.0600 
    234 H234       -7.1454  -21.6305  -56.3550 H         1 UNK         0.0600 
    235 H235       -2.9094  -22.3701  -54.7923 H         1 UNK         0.3000 
    236 H236       -1.9226  -20.5380  -56.7167 H         1 UNK         0.0600 
    237 H237       -0.4990  -22.2216  -55.5634 H         1 UNK         0.0600 
    238 H238        0.1430  -20.6042  -55.3213 H         1 UNK         0.0600 
    239 H239       -0.7332  -21.3988  -54.0210 H         1 UNK         0.0600 
    240 H240       -2.0399  -18.3809  -56.8066 H         1 UNK         0.3000 
    241 H241       -2.3849  -16.2691  -56.3728 H         1 UNK         0.0600 
    242 H242       -6.0240  -17.4289  -55.5738 H         1 UNK         0.3800 
    243 H243       -4.7184  -18.4916  -56.0281 H         1 UNK         0.3800 
    244 H244       -0.8331  -16.7572  -54.2762 H         1 UNK         0.0800 
    245 H245       -2.2807  -16.5138  -53.3421 H         1 UNK         0.0800 
    246 H246        0.2093  -13.2466  -53.2640 H         1 UNK         0.0800 
    247 H247        0.8420  -14.6953  -54.0066 H         1 UNK         0.0800 
@<TRIPOS>BOND
     1    1    2 1    
     2    1  127 1    
     3    1  128 1    
     4    1  129 1    
     5    2    3 2    
     6    2    4 am   BACKBONE|DICT|INTERRES
     7    4    5 1    
     8    4  130 1    
     9    5    6 1    
    10    5   65 1    
    11    5  131 1    
    12    6    7 1    
    13    6  132 1    
    14    6  133 1    
    15    7    8 1    
    16    8    9 1    
    17    8  134 1    
    18    8  135 1    
    19    9   10 ar   
    20    9   14 ar   
    21   10   11 ar   
    22   10  136 1    
    23   11   12 ar   
    24   11  126 1    
    25   12   13 ar   
    26   12  137 1    
    27   13   14 ar   
    28   13   15 1    
    29   14  138 1    
    30   15   16 1    
    31   15  139 1    
    32   15  140 1    
    33   16   17 1    
    34   17   18 1    
    35   17  141 1    
    36   17  142 1    
    37   18   19 1    
    38   18   67 1    
    39   18  143 1    
    40   19   20 am   BACKBONE|DICT|INTERRES
    41   19  144 1    
    42   20   21 2    
    43   20   22 1    
    44   22   23 1    
    45   22   24 1    
    46   22  145 1    
    47   23  146 1    
    48   23  147 1    
    49   23  148 1    
    50   24   25 am   BACKBONE|DICT|INTERRES
    51   24  149 1    
    52   25   26 2    
    53   25   27 1    
    54   27   28 1    
    55   27   29 1    
    56   27  150 1    
    57   28  151 1    
    58   28  152 1    
    59   28  153 1    
    60   29   30 am   BACKBONE|DICT|INTERRES
    61   29  154 1    
    62   30   31 2    
    63   30   32 1    
    64   32   33 1    
    65   32   34 1    
    66   32  155 1    
    67   33  156 1    
    68   33  157 1    
    69   33  158 1    
    70   34   35 am   BACKBONE|DICT|INTERRES
    71   34  159 1    
    72   35   36 2    
    73   35   37 1    
    74   37   38 1    
    75   37   39 1    
    76   37  160 1    
    77   38  161 1    
    78   38  162 1    
    79   38  163 1    
    80   39   40 am   BACKBONE|DICT|INTERRES
    81   39  164 1    
    82   40   41 2    
    83   40   42 1    
    84   42   43 1    
    85   42   44 1    
    86   42  165 1    
    87   43  166 1    
    88   43  167 1    
    89   43  168 1    
    90   44   45 am   BACKBONE|DICT|INTERRES
    91   44  169 1    
    92   45   46 2    
    93   45   47 1    
    94   47   48 1    
    95   47   49 1    
    96   47  170 1    
    97   48  171 1    
    98   48  172 1    
    99   48  173 1    
   100   49   50 am   BACKBONE|DICT|INTERRES
   101   49  174 1    
   102   50   51 2    
   103   50   52 1    
   104   52   53 1    
   105   52   54 1    
   106   52  175 1    
   107   53  176 1    
   108   53  177 1    
   109   53  178 1    
   110   54   55 am   BACKBONE|DICT|INTERRES
   111   54  179 1    
   112   55   56 2    
   113   55   57 1    
   114   57   58 1    
   115   57   59 1    
   116   57  180 1    
   117   58  181 1    
   118   58  182 1    
   119   58  183 1    
   120   59   60 am   BACKBONE|DICT|INTERRES
   121   59  184 1    
   122   60   61 2    
   123   60   62 1    
   124   62   63 1    
   125   62   64 1    
   126   62  185 1    
   127   63  186 1    
   128   63  187 1    
   129   63  188 1    
   130   64   65 am   BACKBONE|DICT|INTERRES
   131   64  189 1    
   132   65   66 2    
   133   67   68 2    
   134   67   69 am   BACKBONE|DICT|INTERRES
   135   69   70 1    
   136   69  190 1    
   137   70   71 1    
   138   70   72 1    
   139   70  191 1    
   140   71  192 1    
   141   71  193 1    
   142   71  194 1    
   143   72   73 2    
   144   72   74 am   BACKBONE|DICT|INTERRES
   145   74   75 1    
   146   74  195 1    
   147   75   76 1    
   148   75   77 1    
   149   75  196 1    
   150   76  197 1    
   151   76  198 1    
   152   76  199 1    
   153   77   78 2    
   154   77   79 am   BACKBONE|DICT|INTERRES
   155   79   80 1    
   156   79  200 1    
   157   80   81 1    
   158   80   82 1    
   159   80  201 1    
   160   81  202 1    
   161   81  203 1    
   162   81  204 1    
   163   82   83 2    
   164   82   84 am   BACKBONE|DICT|INTERRES
   165   84   85 1    
   166   84  205 1    
   167   85   86 1    
   168   85   87 1    
   169   85  206 1    
   170   86  207 1    
   171   86  208 1    
   172   86  209 1    
   173   87   88 2    
   174   87   89 am   BACKBONE|DICT|INTERRES
   175   89   90 1    
   176   89  210 1    
   177   90   91 1    
   178   90   92 1    
   179   90  211 1    
   180   91  212 1    
   181   91  213 1    
   182   91  214 1    
   183   92   93 2    
   184   92   94 am   BACKBONE|DICT|INTERRES
   185   94   95 1    
   186   94  215 1    
   187   95   96 1    
   188   95   97 1    
   189   95  216 1    
   190   96  217 1    
   191   96  218 1    
   192   96  219 1    
   193   97   98 2    
   194   97   99 am   BACKBONE|DICT|INTERRES
   195   99  100 1    
   196   99  220 1    
   197  100  101 1    
   198  100  102 1    
   199  100  221 1    
   200  101  222 1    
   201  101  223 1    
   202  101  224 1    
   203  102  103 2    
   204  102  104 am   BACKBONE|DICT|INTERRES
   205  104  105 1    
   206  104  225 1    
   207  105  106 1    
   208  105  107 1    
   209  105  226 1    
   210  106  227 1    
   211  106  228 1    
   212  106  229 1    
   213  107  108 2    
   214  107  109 am   BACKBONE|DICT|INTERRES
   215  109  110 1    
   216  109  230 1    
   217  110  111 1    
   218  110  112 1    
   219  110  231 1    
   220  111  232 1    
   221  111  233 1    
   222  111  234 1    
   223  112  113 2    
   224  112  114 am   BACKBONE|DICT|INTERRES
   225  114  115 1    
   226  114  235 1    
   227  115  116 1    
   228  115  117 1    
   229  115  236 1    
   230  116  237 1    
   231  116  238 1    
   232  116  239 1    
   233  117  118 2    
   234  117  119 am   BACKBONE|DICT|INTERRES
   235  119  120 1    
   236  119  240 1    
   237  120  121 1    
   238  120  124 1    
   239  120  241 1    
   240  121  122 am   BACKBONE|DICT|INTERRES
   241  121  123 2    
   242  122  242 1    
   243  122  243 1    
   244  124  125 1    
   245  124  244 1    
   246  124  245 1    
   247  125  126 1    
   248  126  246 1    
   249  126  247 1    
@<TRIPOS>SUBSTRUCTURE
     1 UNK         1 GROUP             0       ****    0 ROOT    
