@<TRIPOS>MOLECULE
3R540
247   249    1
SMALL
USER_CHARGES


@<TRIPOS>ATOM
      1 CA          2.6620   -9.7905  -46.4553 C.3       0 UNK        -0.1800 
      2 C           2.0603  -11.1819  -46.5893 C.2       0 UNK         0.5000 
      3 O           0.9549  -11.4168  -46.1071 O.2       0 UNK        -0.5000 
      4 N           2.7839  -12.1029  -47.2388 N.am      1 UNK        -0.5000 
      5 CA          2.4001  -13.5008  -47.4632 C.3       1 UNK         0.1400 
      6 C6          3.5553  -14.2779  -48.1426 C.3       23 UNK        -0.0398 
      7 S7          3.2960  -16.0820  -48.1392 S.3       23 UNK        -0.2404 
      8 C8          3.0085  -16.3911  -49.9095 C.3       23 UNK        -0.0205 
      9 C9          2.2730  -17.7030  -50.1108 C.ar      23 UNK        -0.0193 
     10 C10         0.8903  -17.7053  -50.3179 C.ar      23 UNK        -0.1150 
     11 C11         0.1972  -18.9112  -50.4429 C.ar      23 UNK        -0.0193 
     12 C12         0.9002  -20.1145  -50.3994 C.ar      23 UNK        -0.1150 
     13 C13         2.2773  -20.1265  -50.1666 C.ar      23 UNK        -0.0193 
     14 C14         2.9641  -18.9162  -50.0423 C.ar      23 UNK        -0.1150 
     15 C15         3.0017  -21.4497  -49.9749 C.3       23 UNK        -0.0205 
     16 S16         3.3254  -21.8005  -48.2139 S.3       23 UNK        -0.2404 
     17 C17         1.6569  -21.7497  -47.4684 C.3       23 UNK        -0.0398 
     18 CA          1.0671  -23.1496  -47.1960 C.3       11 UNK         0.1400 
     19 N           1.8556  -23.8937  -46.2140 N.am      11 UNK        -0.5000 
     20 C           1.7029  -25.1907  -45.9219 C.2       10 UNK         0.5000 
     21 O           0.8923  -25.9294  -46.4811 O.2       10 UNK        -0.5000 
     22 CA          2.5809  -25.7356  -44.7802 C.3       10 UNK         0.1400 
     23 CB          3.9657  -26.1387  -45.3082 C.3       10 UNK        -0.1800 
     24 N           2.7391  -24.7716  -43.6872 N.am      10 UNK        -0.5000 
     25 C           1.7452  -24.3918  -42.8718 C.2       9 UNK         0.5000 
     26 O           0.5995  -24.8364  -42.9406 O.2       9 UNK        -0.5000 
     27 CA          2.0737  -23.2965  -41.8382 C.3       9 UNK         0.1400 
     28 CB          2.7647  -23.9034  -40.6078 C.3       9 UNK        -0.1800 
     29 N           2.8909  -22.1958  -42.3645 N.am      9 UNK        -0.5000 
     30 C           2.5453  -21.4184  -43.3995 C.2       8 UNK         0.5000 
     31 O           1.5390  -21.6135  -44.0817 O.2       8 UNK        -0.5000 
     32 CA          3.4989  -20.2568  -43.7513 C.3       8 UNK         0.1400 
     33 CB          4.7257  -20.7876  -44.5094 C.3       8 UNK        -0.1800 
     34 N           2.8579  -19.2195  -44.5688 N.am      8 UNK        -0.5000 
     35 C           1.8197  -18.4668  -44.1788 C.2       7 UNK         0.5000 
     36 O           1.3432  -18.5118  -43.0406 O.2       7 UNK        -0.5000 
     37 CA          1.2196  -17.5146  -45.2389 C.3       7 UNK         0.1400 
     38 CB          0.7714  -18.2757  -46.4999 C.3       7 UNK        -0.1800 
     39 N           0.0644  -16.7961  -44.7000 N.am      7 UNK        -0.5000 
     40 C           0.1349  -15.6922  -43.9482 C.2       6 UNK         0.5000 
     41 O           1.1671  -15.0380  -43.7787 O.2       6 UNK        -0.5000 
     42 CA         -1.1709  -15.2945  -43.2328 C.3       6 UNK         0.1400 
     43 CB         -1.3952  -16.1798  -41.9957 C.3       6 UNK        -0.1800 
     44 N          -1.1771  -13.8957  -42.8072 N.am      6 UNK        -0.5000 
     45 C          -1.3523  -12.8561  -43.6287 C.2       5 UNK         0.5000 
     46 O          -1.5412  -12.9730  -44.8425 O.2       5 UNK        -0.5000 
     47 CA         -1.3273  -11.4629  -42.9696 C.3       5 UNK         0.1400 
     48 CB          0.1101  -10.9863  -42.7093 C.3       5 UNK        -0.1800 
     49 N          -2.0125  -10.4837  -43.8093 N.am      5 UNK        -0.5000 
     50 C          -3.3390  -10.3174  -43.8531 C.2       4 UNK         0.5000 
     51 O          -4.1179  -10.8512  -43.0617 O.2       4 UNK        -0.5000 
     52 CA         -3.9055   -9.4458  -44.9909 C.3       4 UNK         0.1400 
     53 CB         -3.8000   -7.9424  -44.6680 C.3       4 UNK        -0.1800 
     54 N          -3.3495   -9.7772  -46.3109 N.am      4 UNK        -0.5000 
     55 C          -2.1200   -9.5440  -46.7894 C.2       3 UNK         0.5000 
     56 O          -1.2388   -8.9429  -46.1728 O.2       3 UNK        -0.5000 
     57 CA         -1.8167  -10.1745  -48.1535 C.3       3 UNK         0.1400 
     58 CB         -0.6954   -9.4477  -48.9159 C.3       3 UNK        -0.1800 
     59 N          -1.4131  -11.5521  -47.9039 N.am      3 UNK        -0.5000 
     60 C          -1.9628  -12.6427  -48.4507 C.2       2 UNK         0.5000 
     61 O          -2.8830  -12.5988  -49.2691 O.2       2 UNK        -0.5000 
     62 CA         -1.4013  -14.0092  -47.9951 C.3       2 UNK         0.1400 
     63 CB         -1.5896  -15.1209  -49.0460 C.3       2 UNK        -0.1800 
     64 N          -0.0090  -13.9472  -47.5349 N.am      2 UNK        -0.5000 
     65 C           1.0722  -13.6007  -48.2499 C.2       1 UNK         0.5000 
     66 O           1.0553  -13.3267  -49.4516 O.2       1 UNK        -0.5000 
     67 C          -0.4052  -23.0359  -46.7557 C.2       11 UNK         0.5000 
     68 O          -1.3011  -23.2781  -47.5619 O.2       11 UNK        -0.5000 
     69 N          -0.6263  -22.7086  -45.4759 N.am      12 UNK        -0.5000 
     70 CA         -1.9430  -22.6217  -44.8474 C.3       12 UNK         0.1400 
     71 CB         -1.7948  -22.0088  -43.4469 C.3       12 UNK        -0.1800 
     72 C          -2.6661  -23.9800  -44.7814 C.2       12 UNK         0.5000 
     73 O          -3.8824  -24.0226  -44.9653 O.2       12 UNK        -0.5000 
     74 N          -1.9086  -25.0623  -44.5484 N.am      13 UNK        -0.5000 
     75 CA         -2.4036  -26.4396  -44.5652 C.3       13 UNK         0.1400 
     76 CB         -1.3418  -27.3791  -43.9738 C.3       13 UNK        -0.1800 
     77 C          -2.8234  -26.9026  -45.9734 C.2       13 UNK         0.5000 
     78 O          -3.8534  -27.5643  -46.1090 O.2       13 UNK        -0.5000 
     79 N          -2.0343  -26.5355  -46.9936 N.am      14 UNK        -0.5000 
     80 CA         -2.3410  -26.7773  -48.4058 C.3       14 UNK         0.1400 
     81 CB         -1.0825  -26.5245  -49.2471 C.3       14 UNK        -0.1800 
     82 C          -3.5179  -25.9214  -48.9134 C.2       14 UNK         0.5000 
     83 O          -4.3191  -26.4028  -49.7155 O.2       14 UNK        -0.5000 
     84 N          -3.6057  -24.6795  -48.4188 N.am      15 UNK        -0.5000 
     85 CA         -4.6286  -23.6764  -48.7072 C.3       15 UNK         0.1400 
     86 CB         -5.9975  -24.1195  -48.1428 C.3       15 UNK        -0.1800 
     87 C          -4.6425  -23.2963  -50.2021 C.2       15 UNK         0.5000 
     88 O          -3.5757  -23.0732  -50.7794 O.2       15 UNK        -0.5000 
     89 N          -5.8347  -23.2375  -50.8108 N.am      16 UNK        -0.5000 
     90 CA         -6.0717  -22.8382  -52.2015 C.3       16 UNK         0.1400 
     91 CB         -7.5840  -22.8443  -52.4685 C.3       16 UNK        -0.1800 
     92 C          -5.3344  -23.6873  -53.2584 C.2       16 UNK         0.5000 
     93 O          -5.1426  -23.2159  -54.3797 O.2       16 UNK        -0.5000 
     94 N          -4.9234  -24.9093  -52.8883 N.am      17 UNK        -0.5000 
     95 CA         -4.1169  -25.8017  -53.7195 C.3       17 UNK         0.1400 
     96 CB         -4.1318  -27.2129  -53.1131 C.3       17 UNK        -0.1800 
     97 C          -2.6671  -25.3132  -53.9090 C.2       17 UNK         0.5000 
     98 O          -2.0562  -25.6538  -54.9230 O.2       17 UNK        -0.5000 
     99 N          -2.1383  -24.5326  -52.9531 N.am      18 UNK        -0.5000 
    100 CA        -0.8194  -23.9078  -53.0601 C.3       18 UNK         0.1400 
    101 CB        -0.2723  -23.5766  -51.6646 C.3       18 UNK        -0.1800 
    102 C         -0.8770  -22.6576  -53.9519 C.2       18 UNK         0.5000 
    103 O         -0.1021  -22.5512  -54.9033 O.2       18 UNK        -0.5000 
    104 N         -1.8248  -21.7629  -53.6534 N.am      19 UNK        -0.5000 
    105 CA        -2.1728  -20.5924  -54.4501 C.3       19 UNK         0.1400 
    106 CB        -1.0962  -19.4962  -54.3407 C.3       19 UNK        -0.1800 
    107 C         -3.5333  -20.0811  -53.9667 C.2       19 UNK         0.5000 
    108 O         -3.8250  -20.1684  -52.7712 O.2       19 UNK        -0.5000 
    109 N         -4.3302  -19.5376  -54.8960 N.am      20 UNK        -0.5000 
    110 CA        -5.7195  -19.1125  -54.6868 C.3       20 UNK         0.1400 
    111 CB        -6.3015  -18.6285  -56.0232 C.3       20 UNK        -0.1800 
    112 C         -5.9163  -18.0418  -53.5962 C.2       20 UNK         0.5000 
    113 O         -6.9833  -17.9970  -52.9829 O.2       20 UNK        -0.5000 
    114 N         -4.8759  -17.2370  -53.3340 N.am      21 UNK        -0.5000 
    115 CA        -4.8222  -16.2463  -52.2539 C.3       21 UNK         0.1400 
    116 CB        -3.5064  -15.4598  -52.3629 C.3       21 UNK        -0.1800 
    117 C         -4.9743  -16.8531  -50.8423 C.2       21 UNK         0.5000 
    118 O         -5.4260  -16.1562  -49.9333 O.2       21 UNK        -0.5000 
    119 N         -4.6242  -18.1368  -50.6952 N.am      22 UNK        -0.5000 
    120 CA        -4.8224  -18.9353  -49.4781 C.3       22 UNK         0.1400 
    121 C         -6.1667  -19.7239  -49.4719 C.2       22 UNK         0.5000 
    122 N         -7.0519  -19.5678  -50.4503 N.am      22 UNK        -0.7600 
    123 O         -6.4231  -20.4908  -48.5485 O.2       22 UNK        -0.5000 
    124 C124       -3.6188  -19.8748  -49.2242 C.3       23 UNK        -0.0398 
    125 S125       -2.0663  -18.9802  -48.8982 S.3       23 UNK        -0.2404 
    126 C126       -1.3156  -18.9344  -50.5543 C.3       23 UNK        -0.0205 
    127 H127        2.9723   -9.6176  -45.4250 H         1 UNK         0.0600 
    128 H128        1.9248   -9.0320  -46.7177 H         1 UNK         0.0600 
    129 H129        3.5297   -9.6598  -47.1021 H         1 UNK         0.0600 
    130 H130        3.6726  -11.8293  -47.6324 H         1 UNK         0.3000 
    131 H131        2.2451  -13.9413  -46.4752 H         1 UNK         0.0600 
    132 H132        3.7277  -13.9179  -49.1585 H         1 UNK         0.0800 
    133 H133        4.4857  -14.0951  -47.6030 H         1 UNK         0.0800 
    134 H134        2.4304  -15.5739  -50.3435 H         1 UNK         0.0800 
    135 H135        3.9635  -16.4104  -50.4365 H         1 UNK         0.0800 
    136 H136        0.3506  -16.7708  -50.3455 H         1 UNK         0.1150 
    137 H137        0.3587  -21.0456  -50.4701 H         1 UNK         0.1150 
    138 H138        4.0273  -18.9193  -49.8469 H         1 UNK         0.1150 
    139 H139        2.4281  -22.2728  -50.4006 H         1 UNK         0.0800 
    140 H140        3.9501  -21.4269  -50.5133 H         1 UNK         0.0800 
    141 H141        1.7362  -21.1814  -46.5438 H         1 UNK         0.0800 
    142 H142        0.9754  -21.1722  -48.0862 H         1 UNK         0.0800 
    143 H143        1.0813  -23.7120  -48.1323 H         1 UNK         0.0600 
    144 H144        2.5162  -23.3543  -45.6757 H         1 UNK         0.3000 
    145 H145        2.0937  -26.6282  -44.3819 H         1 UNK         0.0600 
    146 H146        4.5703  -26.5922  -44.5227 H         1 UNK         0.0600 
    147 H147        3.8779  -26.8701  -46.1127 H         1 UNK         0.0600 
    148 H148        4.5135  -25.2816  -45.7021 H         1 UNK         0.0600 
    149 H149        3.6508  -24.3556  -43.5668 H         1 UNK         0.3000 
    150 H150        1.1241  -22.8665  -41.5127 H         1 UNK         0.0600 
    151 H151        2.1699  -24.7149  -40.1863 H         1 UNK         0.0600 
    152 H152        2.8974  -23.1590  -39.8225 H         1 UNK         0.0600 
    153 H153        3.7461  -24.3098  -40.8553 H         1 UNK         0.0600 
    154 H154        3.7410  -21.9890  -41.8602 H         1 UNK         0.3000 
    155 H155        3.8312  -19.7939  -42.8200 H         1 UNK         0.0600 
    156 H156        5.4251  -19.9840  -44.7410 H         1 UNK         0.0600 
    157 H157        4.4431  -21.2660  -45.4473 H         1 UNK         0.0600 
    158 H158        5.2685  -21.5249  -43.9168 H         1 UNK         0.0600 
    159 H159        3.1872  -19.1369  -45.5190 H         1 UNK         0.3000 
    160 H160        1.9912  -16.7961  -45.5212 H         1 UNK         0.0600 
    161 H161        0.0680  -19.0755  -46.2639 H         1 UNK         0.0600 
    162 H162        1.6199  -18.7218  -47.0193 H         1 UNK         0.0600 
    163 H163        0.2895  -17.6055  -47.2122 H         1 UNK         0.0600 
    164 H164       -0.8139  -17.2912  -44.7460 H         1 UNK         0.3000 
    165 H165       -2.0023  -15.4491  -43.9244 H         1 UNK         0.0600 
    166 H166       -0.5909  -16.0638  -41.2680 H         1 UNK         0.0600 
    167 H167       -2.3354  -15.9367  -41.5002 H         1 UNK         0.0600 
    168 H168       -1.4373  -17.2354  -42.2678 H         1 UNK         0.0600 
    169 H169       -0.9875  -13.7244  -41.8308 H         1 UNK         0.3000 
    170 H170       -1.8408  -11.5310  -42.0081 H         1 UNK         0.0600 
    171 H171        0.6602  -11.7050  -42.1009 H         1 UNK         0.0600 
    172 H172        0.6663  -10.8482  -43.6349 H         1 UNK         0.0600 
    173 H173        0.1163  -10.0364  -42.1747 H         1 UNK         0.0600 
    174 H174       -1.4595  -10.0413  -44.5367 H         1 UNK         0.3000 
    175 H175       -4.9685   -9.6819  -45.0612 H         1 UNK         0.0600 
    176 H176       -4.2260   -7.3360  -45.4673 H         1 UNK         0.0600 
    177 H177       -4.3462   -7.7061  -43.7541 H         1 UNK         0.0600 
    178 H178       -2.7685   -7.6239  -44.5168 H         1 UNK         0.0600 
    179 H179       -3.9646  -10.3327  -46.8895 H         1 UNK         0.3000 
    180 H180       -2.7243  -10.1295  -48.7590 H         1 UNK         0.0600 
    181 H181       -0.5331   -9.8992  -49.8947 H         1 UNK         0.0600 
    182 H182       -0.9490   -8.3993  -49.0763 H         1 UNK         0.0600 
    183 H183        0.2505   -9.4799  -48.3766 H         1 UNK         0.0600 
    184 H184       -0.6866  -11.6721  -47.2011 H         1 UNK         0.3000 
    185 H185       -1.9901  -14.2945  -47.1229 H         1 UNK         0.0600 
    186 H186       -1.1813  -16.0657  -48.6897 H         1 UNK         0.0600 
    187 H187       -2.6470  -15.2880  -49.2530 H         1 UNK         0.0600 
    188 H188       -1.1059  -14.8734  -49.9909 H         1 UNK         0.0600 
    189 H189        0.1038  -14.0510  -46.5352 H         1 UNK         0.3000 
    190 H190        0.1723  -22.4709  -44.8897 H         1 UNK         0.3000 
    191 H191       -2.5556  -21.9489  -45.4514 H         1 UNK         0.0600 
    192 H192       -2.7662  -21.8973  -42.9638 H         1 UNK         0.0600 
    193 H193       -1.3383  -21.0197  -43.4959 H         1 UNK         0.0600 
    194 H194       -1.1741  -22.6301  -42.8005 H         1 UNK         0.0600 
    195 H195       -0.9268  -24.9328  -44.3291 H         1 UNK         0.3000 
    196 H196       -3.2868  -26.4858  -43.9246 H         1 UNK         0.0600 
    197 H197       -1.6980  -28.4099  -43.9577 H         1 UNK         0.0600 
    198 H198       -1.0996  -27.1030  -42.9475 H         1 UNK         0.0600 
    199 H199       -0.4179  -27.3601  -44.5519 H         1 UNK         0.0600 
    200 H200       -1.1712  -26.0425  -46.7920 H         1 UNK         0.3000 
    201 H201       -2.6214  -27.8262  -48.5217 H         1 UNK         0.0600 
    202 H202       -0.2846  -27.2170  -48.9788 H         1 UNK         0.0600 
    203 H203       -0.7058  -25.5123  -49.1006 H         1 UNK         0.0600 
    204 H204       -1.2863  -26.6543  -50.3110 H         1 UNK         0.0600 
    205 H205       -2.8207  -24.3376  -47.8706 H         1 UNK         0.3000 
    206 H206       -4.3262  -22.7800  -48.1662 H         1 UNK         0.0600 
    207 H207       -5.9133  -24.3796  -47.0873 H         1 UNK         0.0600 
    208 H208       -6.7329  -23.3171  -48.2124 H         1 UNK         0.0600 
    209 H209       -6.3976  -24.9895  -48.6646 H         1 UNK         0.0600 
    210 H210       -6.6560  -23.4463  -50.2623 H         1 UNK         0.3000 
    211 H211       -5.7195  -21.8120  -52.3050 H         1 UNK         0.0600 
    212 H212       -8.0084  -23.8422  -52.3508 H         1 UNK         0.0600 
    213 H213       -7.8032  -22.5109  -53.4838 H         1 UNK         0.0600 
    214 H214       -8.1082  -22.1725  -51.7890 H         1 UNK         0.0600 
    215 H215       -5.1055  -25.2134  -51.9414 H         1 UNK         0.3000 
    216 H216       -4.5804  -25.8528  -54.7071 H         1 UNK         0.0600 
    217 H217       -3.6153  -27.9203  -53.7631 H         1 UNK         0.0600 
    218 H218       -5.1503  -27.5779  -52.9801 H         1 UNK         0.0600 
    219 H219       -3.6342  -27.2396  -52.1436 H         1 UNK         0.0600 
    220 H220       -2.7143  -24.2479  -52.1669 H         1 UNK         0.3000 
    221 H221       -0.1266  -24.6148  -53.5219 H         1 UNK         0.0600 
    222 H222       -0.9501  -22.9403  -51.0954 H         1 UNK         0.0600 
    223 H223       -0.0987  -24.4840  -51.0898 H         1 UNK         0.0600 
    224 H224        0.6835  -23.0599  -51.7435 H         1 UNK         0.0600 
    225 H225       -2.4365  -21.9238  -52.8611 H         1 UNK         0.3000 
    226 H226       -2.2695  -20.9017  -55.4929 H         1 UNK         0.0600 
    227 H227       -0.1431  -19.8299  -54.7505 H         1 UNK         0.0600 
    228 H228       -1.3881  -18.6043  -54.8963 H         1 UNK         0.0600 
    229 H229       -0.9240  -19.1964  -53.3089 H         1 UNK         0.0600 
    230 H230       -3.9954  -19.4868  -55.8474 H         1 UNK         0.3000 
    231 H231       -6.2809  -19.9946  -54.3711 H         1 UNK         0.0600 
    232 H232       -7.3446  -18.3293  -55.9109 H         1 UNK         0.0600 
    233 H233       -6.2718  -19.4167  -56.7758 H         1 UNK         0.0600 
    234 H234       -5.7536  -17.7695  -56.4126 H         1 UNK         0.0600 
    235 H235       -4.0386  -17.3518  -53.8851 H         1 UNK         0.3000 
    236 H236       -5.6510  -15.5510  -52.4011 H         1 UNK         0.0600 
    237 H237       -2.6376  -16.1067  -52.2379 H         1 UNK         0.0600 
    238 H238       -3.4208  -14.9644  -53.3300 H         1 UNK         0.0600 
    239 H239       -3.4509  -14.6842  -51.5976 H         1 UNK         0.0600 
    240 H240       -4.2972  -18.6562  -51.5031 H         1 UNK         0.3000 
    241 H241       -4.8864  -18.2614  -48.6220 H         1 UNK         0.0600 
    242 H242       -7.9206  -20.0742  -50.4048 H         1 UNK         0.3800 
    243 H243       -6.8893  -18.9278  -51.2193 H         1 UNK         0.3800 
    244 H244       -3.4839  -20.5597  -50.0604 H         1 UNK         0.0800 
    245 H245       -3.7980  -20.4970  -48.3469 H         1 UNK         0.0800 
    246 H246       -1.6233  -19.8081  -51.1296 H         1 UNK         0.0800 
    247 H247       -1.6757  -18.0587  -51.0946 H         1 UNK         0.0800 
@<TRIPOS>BOND
     1    1    2 1    
     2    1  127 1    
     3    1  128 1    
     4    1  129 1    
     5    2    3 2    
     6    2    4 am   BACKBONE|DICT|INTERRES
     7    4    5 1    
     8    4  130 1    
     9    5    6 1    
    10    5   65 1    
    11    5  131 1    
    12    6    7 1    
    13    6  132 1    
    14    6  133 1    
    15    7    8 1    
    16    8    9 1    
    17    8  134 1    
    18    8  135 1    
    19    9   10 ar   
    20    9   14 ar   
    21   10   11 ar   
    22   10  136 1    
    23   11   12 ar   
    24   11  126 1    
    25   12   13 ar   
    26   12  137 1    
    27   13   14 ar   
    28   13   15 1    
    29   14  138 1    
    30   15   16 1    
    31   15  139 1    
    32   15  140 1    
    33   16   17 1    
    34   17   18 1    
    35   17  141 1    
    36   17  142 1    
    37   18   19 1    
    38   18   67 1    
    39   18  143 1    
    40   19   20 am   BACKBONE|DICT|INTERRES
    41   19  144 1    
    42   20   21 2    
    43   20   22 1    
    44   22   23 1    
    45   22   24 1    
    46   22  145 1    
    47   23  146 1    
    48   23  147 1    
    49   23  148 1    
    50   24   25 am   BACKBONE|DICT|INTERRES
    51   24  149 1    
    52   25   26 2    
    53   25   27 1    
    54   27   28 1    
    55   27   29 1    
    56   27  150 1    
    57   28  151 1    
    58   28  152 1    
    59   28  153 1    
    60   29   30 am   BACKBONE|DICT|INTERRES
    61   29  154 1    
    62   30   31 2    
    63   30   32 1    
    64   32   33 1    
    65   32   34 1    
    66   32  155 1    
    67   33  156 1    
    68   33  157 1    
    69   33  158 1    
    70   34   35 am   BACKBONE|DICT|INTERRES
    71   34  159 1    
    72   35   36 2    
    73   35   37 1    
    74   37   38 1    
    75   37   39 1    
    76   37  160 1    
    77   38  161 1    
    78   38  162 1    
    79   38  163 1    
    80   39   40 am   BACKBONE|DICT|INTERRES
    81   39  164 1    
    82   40   41 2    
    83   40   42 1    
    84   42   43 1    
    85   42   44 1    
    86   42  165 1    
    87   43  166 1    
    88   43  167 1    
    89   43  168 1    
    90   44   45 am   BACKBONE|DICT|INTERRES
    91   44  169 1    
    92   45   46 2    
    93   45   47 1    
    94   47   48 1    
    95   47   49 1    
    96   47  170 1    
    97   48  171 1    
    98   48  172 1    
    99   48  173 1    
   100   49   50 am   BACKBONE|DICT|INTERRES
   101   49  174 1    
   102   50   51 2    
   103   50   52 1    
   104   52   53 1    
   105   52   54 1    
   106   52  175 1    
   107   53  176 1    
   108   53  177 1    
   109   53  178 1    
   110   54   55 am   BACKBONE|DICT|INTERRES
   111   54  179 1    
   112   55   56 2    
   113   55   57 1    
   114   57   58 1    
   115   57   59 1    
   116   57  180 1    
   117   58  181 1    
   118   58  182 1    
   119   58  183 1    
   120   59   60 am   BACKBONE|DICT|INTERRES
   121   59  184 1    
   122   60   61 2    
   123   60   62 1    
   124   62   63 1    
   125   62   64 1    
   126   62  185 1    
   127   63  186 1    
   128   63  187 1    
   129   63  188 1    
   130   64   65 am   BACKBONE|DICT|INTERRES
   131   64  189 1    
   132   65   66 2    
   133   67   68 2    
   134   67   69 am   BACKBONE|DICT|INTERRES
   135   69   70 1    
   136   69  190 1    
   137   70   71 1    
   138   70   72 1    
   139   70  191 1    
   140   71  192 1    
   141   71  193 1    
   142   71  194 1    
   143   72   73 2    
   144   72   74 am   BACKBONE|DICT|INTERRES
   145   74   75 1    
   146   74  195 1    
   147   75   76 1    
   148   75   77 1    
   149   75  196 1    
   150   76  197 1    
   151   76  198 1    
   152   76  199 1    
   153   77   78 2    
   154   77   79 am   BACKBONE|DICT|INTERRES
   155   79   80 1    
   156   79  200 1    
   157   80   81 1    
   158   80   82 1    
   159   80  201 1    
   160   81  202 1    
   161   81  203 1    
   162   81  204 1    
   163   82   83 2    
   164   82   84 am   BACKBONE|DICT|INTERRES
   165   84   85 1    
   166   84  205 1    
   167   85   86 1    
   168   85   87 1    
   169   85  206 1    
   170   86  207 1    
   171   86  208 1    
   172   86  209 1    
   173   87   88 2    
   174   87   89 am   BACKBONE|DICT|INTERRES
   175   89   90 1    
   176   89  210 1    
   177   90   91 1    
   178   90   92 1    
   179   90  211 1    
   180   91  212 1    
   181   91  213 1    
   182   91  214 1    
   183   92   93 2    
   184   92   94 am   BACKBONE|DICT|INTERRES
   185   94   95 1    
   186   94  215 1    
   187   95   96 1    
   188   95   97 1    
   189   95  216 1    
   190   96  217 1    
   191   96  218 1    
   192   96  219 1    
   193   97   98 2    
   194   97   99 am   BACKBONE|DICT|INTERRES
   195   99  100 1    
   196   99  220 1    
   197  100  101 1    
   198  100  102 1    
   199  100  221 1    
   200  101  222 1    
   201  101  223 1    
   202  101  224 1    
   203  102  103 2    
   204  102  104 am   BACKBONE|DICT|INTERRES
   205  104  105 1    
   206  104  225 1    
   207  105  106 1    
   208  105  107 1    
   209  105  226 1    
   210  106  227 1    
   211  106  228 1    
   212  106  229 1    
   213  107  108 2    
   214  107  109 am   BACKBONE|DICT|INTERRES
   215  109  110 1    
   216  109  230 1    
   217  110  111 1    
   218  110  112 1    
   219  110  231 1    
   220  111  232 1    
   221  111  233 1    
   222  111  234 1    
   223  112  113 2    
   224  112  114 am   BACKBONE|DICT|INTERRES
   225  114  115 1    
   226  114  235 1    
   227  115  116 1    
   228  115  117 1    
   229  115  236 1    
   230  116  237 1    
   231  116  238 1    
   232  116  239 1    
   233  117  118 2    
   234  117  119 am   BACKBONE|DICT|INTERRES
   235  119  120 1    
   236  119  240 1    
   237  120  121 1    
   238  120  124 1    
   239  120  241 1    
   240  121  122 am   BACKBONE|DICT|INTERRES
   241  121  123 2    
   242  122  242 1    
   243  122  243 1    
   244  124  125 1    
   245  124  244 1    
   246  124  245 1    
   247  125  126 1    
   248  126  246 1    
   249  126  247 1    
@<TRIPOS>SUBSTRUCTURE
     1 UNK         1 GROUP             0       ****    0 ROOT    
