@<TRIPOS>MOLECULE
3R540
247   249    1
SMALL
USER_CHARGES


@<TRIPOS>ATOM
      1 CA          0.3027  -10.4936  -45.2245 C.3       0 UNK        -0.1800 
      2 C           0.9544  -10.8721  -46.5466 C.2       0 UNK         0.5000 
      3 O           2.0072  -10.3329  -46.8867 O.2       0 UNK        -0.5000 
      4 N           0.3330  -11.7999  -47.2875 N.am      1 UNK        -0.5000 
      5 CA          0.7421  -12.2461  -48.6280 C.3       1 UNK         0.1400 
      6 C6         -0.3217  -13.1903  -49.2365 C.3       23 UNK        -0.0398 
      7 S7         -0.2390  -13.3091  -51.0540 S.3       23 UNK        -0.2404 
      8 C8         -1.0536  -14.9124  -51.3242 C.3       23 UNK        -0.0205 
      9 C9         -0.0612  -16.0593  -51.4460 C.ar      23 UNK        -0.0193 
     10 C10         0.2621  -16.5628  -52.7097 C.ar      23 UNK        -0.1150 
     11 C11         1.0867  -17.6838  -52.8366 C.ar      23 UNK        -0.0193 
     12 C12         1.6283  -18.2733  -51.6929 C.ar      23 UNK        -0.1150 
     13 C13         1.3046  -17.7874  -50.4250 C.ar      23 UNK        -0.0193 
     14 C14         0.4666  -16.6746  -50.3052 C.ar      23 UNK        -0.1150 
     15 C15         1.7816  -18.5365  -49.1941 C.3       23 UNK        -0.0205 
     16 S16         0.5454  -19.7819  -48.7388 S.3       23 UNK        -0.2404 
     17 C17         1.5762  -21.1647  -48.1545 C.3       23 UNK        -0.0398 
     18 CA          0.8191  -22.2484  -47.3443 C.3       11 UNK         0.1400 
     19 N           0.4994  -21.8346  -45.9742 N.am      11 UNK        -0.5000 
     20 C           0.1535  -22.7018  -45.0104 C.2       10 UNK         0.5000 
     21 O           0.0819  -23.9183  -45.1859 O.2       10 UNK        -0.5000 
     22 CA         -0.1992  -22.1298  -43.6282 C.3       10 UNK         0.1400 
     23 CB          1.0753  -21.8188  -42.8301 C.3       10 UNK        -0.1800 
     24 N          -1.0537  -20.9450  -43.6917 N.am      10 UNK        -0.5000 
     25 C          -2.2978  -20.9274  -44.1914 C.2       9 UNK         0.5000 
     26 O          -2.8568  -21.9155  -44.6677 O.2       9 UNK        -0.5000 
     27 CA         -3.0303  -19.5726  -44.1830 C.3       9 UNK         0.1400 
     28 CB         -3.5820  -19.2510  -42.7860 C.3       9 UNK        -0.1800 
     29 N          -2.1750  -18.4777  -44.6403 N.am      9 UNK        -0.5000 
     30 C          -1.7056  -18.3683  -45.8906 C.2       8 UNK         0.5000 
     31 O          -2.0211  -19.1382  -46.7963 O.2       8 UNK        -0.5000 
     32 CA         -0.6833  -17.2439  -46.1574 C.3       8 UNK         0.1400 
     33 CB         -1.3805  -15.9022  -46.4286 C.3       8 UNK        -0.1800 
     34 N           0.2757  -17.0857  -45.0617 N.am      8 UNK        -0.5000 
     35 C           1.1708  -18.0174  -44.6993 C.2       7 UNK         0.5000 
     36 O           1.3301  -19.0852  -45.2909 O.2       7 UNK        -0.5000 
     37 CA          1.9861  -17.7313  -43.4258 C.3       7 UNK         0.1400 
     38 CB          3.2049  -16.8483  -43.7286 C.3       7 UNK        -0.1800 
     39 N           1.1721  -17.1077  -42.3822 N.am      7 UNK        -0.5000 
     40 C           0.2025  -17.7409  -41.7061 C.2       6 UNK         0.5000 
     41 O          -0.0782  -18.9267  -41.8674 O.2       6 UNK        -0.5000 
     42 CA         -0.6234  -16.8972  -40.7186 C.3       6 UNK         0.1400 
     43 CB          0.0797  -16.8179  -39.3556 C.3       6 UNK        -0.1800 
     44 N          -0.8755  -15.5441  -41.2135 N.am      6 UNK        -0.5000 
     45 C          -1.6052  -15.2519  -42.3002 C.2       5 UNK         0.5000 
     46 O          -2.1970  -16.0957  -42.9713 O.2       5 UNK        -0.5000 
     47 CA         -1.6247  -13.7764  -42.7402 C.3       5 UNK         0.1400 
     48 CB         -2.7926  -13.0280  -42.0820 C.3       5 UNK        -0.1800 
     49 N          -0.3675  -13.0918  -42.4270 N.am      5 UNK        -0.5000 
     50 C           0.7968  -13.3504  -43.0338 C.2       4 UNK         0.5000 
     51 O           0.9217  -14.1389  -43.9765 O.2       4 UNK        -0.5000 
     52 CA          2.0305  -12.6455  -42.4613 C.3       4 UNK         0.1400 
     53 CB          2.6746  -13.4932  -41.3501 C.3       4 UNK        -0.1800 
     54 N           2.9780  -12.4365  -43.5448 N.am      4 UNK        -0.5000 
     55 C           3.9403  -11.5096  -43.5836 C.2       3 UNK         0.5000 
     56 O           4.1726  -10.7394  -42.6506 O.2       3 UNK        -0.5000 
     57 CA          4.7531  -11.3754  -44.8890 C.3       3 UNK         0.1400 
     58 CB          6.2704  -11.5000  -44.6407 C.3       3 UNK        -0.1800 
     59 N           4.3069  -12.2527  -45.9811 N.am      3 UNK        -0.5000 
     60 C           4.4438  -13.5824  -46.1002 C.2       2 UNK         0.5000 
     61 O           4.9948  -14.2946  -45.2618 O.2       2 UNK        -0.5000 
     62 CA          3.8092  -14.2063  -47.3563 C.3       2 UNK         0.1400 
     63 CB          3.6709  -15.7359  -47.2845 C.3       2 UNK        -0.1800 
     64 N           2.4899  -13.6185  -47.5893 N.am      2 UNK        -0.5000 
     65 C           2.1511  -12.8812  -48.6541 C.2       1 UNK         0.5000 
     66 O           2.9071  -12.6539  -49.5994 O.2       1 UNK        -0.5000 
     67 C          -0.4140  -22.8292  -48.0749 C.2       11 UNK         0.5000 
     68 O          -0.2855  -23.8533  -48.7450 O.2       11 UNK        -0.5000 
     69 N          -1.5904  -22.2153  -47.8724 N.am      12 UNK        -0.5000 
     70 CA         -2.8711  -22.6844  -48.4012 C.3       12 UNK         0.1400 
     71 CB         -3.9500  -21.6201  -48.1570 C.3       12 UNK        -0.1800 
     72 C          -3.2927  -24.0383  -47.8038 C.2       12 UNK         0.5000 
     73 O          -3.7853  -24.8990  -48.5333 O.2       12 UNK        -0.5000 
     74 N          -3.0592  -24.2212  -46.4961 N.am      13 UNK        -0.5000 
     75 CA         -3.2770  -25.4813  -45.7863 C.3       13 UNK         0.1400 
     76 CB         -3.1370  -25.2576  -44.2732 C.3       13 UNK        -0.1800 
     77 C          -2.3354  -26.5998  -46.2696 C.2       13 UNK         0.5000 
     78 O          -2.7905  -27.7275  -46.4600 O.2       13 UNK        -0.5000 
     79 N          -1.0569  -26.2644  -46.4969 N.am      14 UNK        -0.5000 
     80 CA         -0.0417  -27.1693  -47.0419 C.3       14 UNK         0.1400 
     81 CB          1.3467  -26.5243  -46.9150 C.3       14 UNK        -0.1800 
     82 C          -0.3260  -27.5790  -48.4999 C.2       14 UNK         0.5000 
     83 O          -0.1476  -28.7468  -48.8478 O.2       14 UNK        -0.5000 
     84 N          -0.7936  -26.6233  -49.3153 N.am      15 UNK        -0.5000 
     85 CA         -1.2474  -26.8420  -50.6917 C.3       15 UNK         0.1400 
     86 CB         -1.3774  -25.4819  -51.3961 C.3       15 UNK        -0.1800 
     87 C          -2.5811  -27.6113  -50.7800 C.2       15 UNK         0.5000 
     88 O          -2.8804  -28.1787  -51.8312 O.2       15 UNK        -0.5000 
     89 N          -3.3533  -27.5988  -49.6837 N.am      16 UNK        -0.5000 
     90 CA         -4.6987  -28.1534  -49.5147 C.3       16 UNK         0.1400 
     91 CB         -4.6917  -29.6884  -49.6693 C.3       16 UNK        -0.1800 
     92 C          -5.7517  -27.4547  -50.4016 C.2       16 UNK         0.5000 
     93 O          -6.7412  -28.0777  -50.7916 O.2       16 UNK        -0.5000 
     94 N          -5.5285  -26.1679  -50.6917 N.am      17 UNK        -0.5000 
     95 CA         -6.3839  -25.3096  -51.5003 C.3       17 UNK         0.1400 
     96 CB         -6.2840  -25.6840  -52.9913 C.3       17 UNK        -0.1800 
     97 C          -5.9447  -23.8584  -51.2835 C.2       17 UNK         0.5000 
     98 O          -4.7453  -23.5784  -51.3153 O.2       17 UNK        -0.5000 
     99 N          -6.9201  -22.9605  -51.1098 N.am      18 UNK        -0.5000 
    100 CA        -6.7189  -21.5244  -50.8946 C.3       18 UNK         0.1400 
    101 CB        -7.6229  -21.0664  -49.7365 C.3       18 UNK        -0.1800 
    102 C         -6.9667  -20.7028  -52.1754 C.2       18 UNK         0.5000 
    103 O         -7.2498  -19.5064  -52.0868 O.2       18 UNK        -0.5000 
    104 N         -6.8582  -21.3494  -53.3459 N.am      19 UNK        -0.5000 
    105 CA        -6.9973  -20.7494  -54.6744 C.3       19 UNK         0.1400 
    106 CB        -6.7780  -21.8345  -55.7392 C.3       19 UNK        -0.1800 
    107 C         -6.0119  -19.5837  -54.8709 C.2       19 UNK         0.5000 
    108 O         -4.8070  -19.7780  -54.6896 O.2       19 UNK        -0.5000 
    109 N         -6.5523  -18.3899  -55.1572 N.am      20 UNK        -0.5000 
    110 CA        -5.8503  -17.1027  -55.2829 C.3       20 UNK         0.1400 
    111 CB        -4.9585  -17.1046  -56.5422 C.3       20 UNK        -0.1800 
    112 C         -5.0690  -16.6855  -54.0130 C.2       20 UNK         0.5000 
    113 O         -4.1067  -15.9238  -54.1127 O.2       20 UNK        -0.5000 
    114 N         -5.4672  -17.2340  -52.8529 N.am      21 UNK        -0.5000 
    115 CA        -4.7958  -17.1934  -51.5467 C.3       21 UNK         0.1400 
    116 CB        -4.6823  -15.7500  -51.0145 C.3       21 UNK        -0.1800 
    117 C         -3.4505  -17.9566  -51.4961 C.2       21 UNK         0.5000 
    118 O         -2.8154  -17.9727  -50.4432 O.2       21 UNK        -0.5000 
    119 N         -3.0606  -18.5953  -52.6062 N.am      22 UNK        -0.5000 
    120 CA        -1.8921  -19.4734  -52.7355 C.3       22 UNK         0.1400 
    121 C         -2.2289  -20.9331  -52.3261 C.2       22 UNK         0.5000 
    122 N         -3.4141  -21.4311  -52.6592 N.am      22 UNK        -0.7600 
    123 O         -1.4293  -21.6044  -51.6826 O.2       22 UNK        -0.5000 
    124 C124       -1.3195  -19.3848  -54.1778 C.3       23 UNK        -0.0398 
    125 S125        0.4235  -19.9127  -54.3277 S.3       23 UNK        -0.2404 
    126 C126        1.3152  -18.3249  -54.1953 C.3       23 UNK        -0.0205 
    127 H127        1.0485  -10.4521  -44.4317 H         1 UNK         0.0600 
    128 H128       -0.4670  -11.2086  -44.9330 H         1 UNK         0.0600 
    129 H129       -0.1586   -9.5096  -45.3058 H         1 UNK         0.0600 
    130 H130       -0.5269  -12.1984  -46.9391 H         1 UNK         0.3000 
    131 H131        0.7870  -11.3457  -49.2448 H         1 UNK         0.0600 
    132 H132       -0.2557  -14.1817  -48.7902 H         1 UNK         0.0800 
    133 H133       -1.3221  -12.8248  -48.9999 H         1 UNK         0.0800 
    134 H134       -1.7593  -15.1200  -50.5188 H         1 UNK         0.0800 
    135 H135       -1.6530  -14.8442  -52.2336 H         1 UNK         0.0800 
    136 H136       -0.1746  -16.1158  -53.5917 H         1 UNK         0.1150 
    137 H137        2.2413  -19.1587  -51.7880 H         1 UNK         0.1150 
    138 H138        0.1854  -16.3268  -49.3230 H         1 UNK         0.1150 
    139 H139        2.7463  -19.0067  -49.3902 H         1 UNK         0.0800 
    140 H140        1.9231  -17.8595  -48.3528 H         1 UNK         0.0800 
    141 H141        2.3961  -20.7652  -47.5557 H         1 UNK         0.0800 
    142 H142        2.0393  -21.6221  -49.0302 H         1 UNK         0.0800 
    143 H143        1.5225  -23.0784  -47.2452 H         1 UNK         0.0600 
    144 H144        0.5708  -20.8430  -45.7621 H         1 UNK         0.3000 
    145 H145       -0.7518  -22.9005  -43.0871 H         1 UNK         0.0600 
    146 H146        0.8381  -21.5131  -41.8112 H         1 UNK         0.0600 
    147 H147        1.7183  -22.6973  -42.7630 H         1 UNK         0.0600 
    148 H148        1.6561  -21.0219  -43.2941 H         1 UNK         0.0600 
    149 H149       -0.6833  -20.0994  -43.2675 H         1 UNK         0.3000 
    150 H150       -3.8760  -19.6480  -44.8698 H         1 UNK         0.0600 
    151 H151       -4.2507  -20.0403  -42.4405 H         1 UNK         0.0600 
    152 H152       -4.1506  -18.3209  -42.7920 H         1 UNK         0.0600 
    153 H153       -2.7855  -19.1499  -42.0491 H         1 UNK         0.0600 
    154 H154       -1.9373  -17.7616  -43.9610 H         1 UNK         0.3000 
    155 H155       -0.1198  -17.5098  -47.0514 H         1 UNK         0.0600 
    156 H156       -2.0285  -15.6079  -45.6034 H         1 UNK         0.0600 
    157 H157       -0.6542  -15.1045  -46.5829 H         1 UNK         0.0600 
    158 H158       -1.9988  -15.9634  -47.3252 H         1 UNK         0.0600 
    159 H159        0.2292  -16.2252  -44.5314 H         1 UNK         0.3000 
    160 H160        2.3534  -18.6865  -43.0452 H         1 UNK         0.0600 
    161 H161        2.9144  -15.8615  -44.0873 H         1 UNK         0.0600 
    162 H162        3.8351  -17.3022  -44.4943 H         1 UNK         0.0600 
    163 H163        3.8232  -16.7113  -42.8416 H         1 UNK         0.0600 
    164 H164        1.3166  -16.1235  -42.2189 H         1 UNK         0.3000 
    165 H165       -1.5867  -17.3926  -40.5802 H         1 UNK         0.0600 
    166 H166       -0.5315  -16.2850  -38.6271 H         1 UNK         0.0600 
    167 H167        0.2655  -17.8153  -38.9545 H         1 UNK         0.0600 
    168 H168        1.0413  -16.3077  -39.4254 H         1 UNK         0.0600 
    169 H169       -0.4359  -14.7872  -40.7122 H         1 UNK         0.3000 
    170 H170       -1.7696  -13.7531  -43.8225 H         1 UNK         0.0600 
    171 H171       -3.7441  -13.5069  -42.3175 H         1 UNK         0.0600 
    172 H172       -2.6969  -13.0040  -40.9958 H         1 UNK         0.0600 
    173 H173       -2.8512  -11.9991  -42.4375 H         1 UNK         0.0600 
    174 H174       -0.3941  -12.4249  -41.6686 H         1 UNK         0.3000 
    175 H175        1.7251  -11.6779  -42.0571 H         1 UNK         0.0600 
    176 H176        3.0204  -14.4558  -41.7283 H         1 UNK         0.0600 
    177 H177        3.5322  -12.9826  -40.9118 H         1 UNK         0.0600 
    178 H178        1.9688  -13.6884  -40.5421 H         1 UNK         0.0600 
    179 H179        2.8390  -13.0383  -44.3448 H         1 UNK         0.3000 
    180 H180        4.5674  -10.3609  -45.2448 H         1 UNK         0.0600 
    181 H181        6.5347  -12.4602  -44.1975 H         1 UNK         0.0600 
    182 H182        6.6170  -10.7243  -43.9571 H         1 UNK         0.0600 
    183 H183        6.8334  -11.3893  -45.5674 H         1 UNK         0.0600 
    184 H184        3.7828  -11.7752  -46.7048 H         1 UNK         0.3000 
    185 H185        4.4899  -13.9768  -48.1783 H         1 UNK         0.0600 
    186 H186        4.6130  -16.2141  -47.0142 H         1 UNK         0.0600 
    187 H187        2.9175  -16.0417  -46.5589 H         1 UNK         0.0600 
    188 H188        3.3821  -16.1294  -48.2578 H         1 UNK         0.0600 
    189 H189        1.8182  -13.7176  -46.8409 H         1 UNK         0.3000 
    190 H190       -1.6068  -21.3581  -47.3327 H         1 UNK         0.3000 
    191 H191       -2.7624  -22.8179  -49.4794 H         1 UNK         0.0600 
    192 H192       -4.0248  -21.3545  -47.1023 H         1 UNK         0.0600 
    193 H193       -4.9288  -21.9802  -48.4729 H         1 UNK         0.0600 
    194 H194       -3.7355  -20.7097  -48.7177 H         1 UNK         0.0600 
    195 H195       -2.7089  -23.4420  -45.9472 H         1 UNK         0.3000 
    196 H196       -4.3017  -25.8019  -45.9856 H         1 UNK         0.0600 
    197 H197       -3.3237  -26.1809  -43.7234 H         1 UNK         0.0600 
    198 H198       -3.8526  -24.5163  -43.9173 H         1 UNK         0.0600 
    199 H199       -2.1385  -24.9124  -44.0055 H         1 UNK         0.0600 
    200 H200       -0.7486  -25.3260  -46.2584 H         1 UNK         0.3000 
    201 H201       -0.0470  -28.0779  -46.4364 H         1 UNK         0.0600 
    202 H202        1.5806  -26.2938  -45.8755 H         1 UNK         0.0600 
    203 H203        1.4153  -25.5984  -47.4860 H         1 UNK         0.0600 
    204 H204        2.1239  -27.1953  -47.2828 H         1 UNK         0.0600 
    205 H205       -0.8297  -25.6650  -48.9757 H         1 UNK         0.3000 
    206 H206       -0.4901  -27.4295  -51.2145 H         1 UNK         0.0600 
    207 H207       -0.4279  -24.9464  -51.4030 H         1 UNK         0.0600 
    208 H208       -1.6898  -25.6037  -52.4339 H         1 UNK         0.0600 
    209 H209       -2.1146  -24.8442  -50.9063 H         1 UNK         0.0600 
    210 H210       -3.0190  -27.0549  -48.8988 H         1 UNK         0.3000 
    211 H211       -4.9819  -27.9305  -48.4852 H         1 UNK         0.0600 
    212 H212       -4.4931  -29.9930  -50.6970 H         1 UNK         0.0600 
    213 H213       -5.6543  -30.1140  -49.3837 H         1 UNK         0.0600 
    214 H214       -3.9347  -30.1440  -49.0307 H         1 UNK         0.0600 
    215 H215       -4.7247  -25.7023  -50.2786 H         1 UNK         0.3000 
    216 H216       -7.4161  -25.4266  -51.1640 H         1 UNK         0.0600 
    217 H217       -5.2552  -25.6255  -53.3495 H         1 UNK         0.0600 
    218 H218       -6.8857  -25.0128  -53.6054 H         1 UNK         0.0600 
    219 H219       -6.6434  -26.6963  -53.1753 H         1 UNK         0.0600 
    220 H220       -7.8815  -23.2712  -51.1327 H         1 UNK         0.3000 
    221 H221       -5.6842  -21.3297  -50.6074 H         1 UNK         0.0600 
    222 H222       -7.4375  -21.6523  -48.8362 H         1 UNK         0.0600 
    223 H223       -8.6795  -21.1644  -49.9884 H         1 UNK         0.0600 
    224 H224       -7.4396  -20.0216  -49.4824 H         1 UNK         0.0600 
    225 H225       -6.6092  -22.3261  -53.3209 H         1 UNK         0.3000 
    226 H226       -8.0192  -20.3762  -54.7664 H         1 UNK         0.0600 
    227 H227       -7.5053  -22.6403  -55.6383 H         1 UNK         0.0600 
    228 H228       -6.8864  -21.4230  -56.7435 H         1 UNK         0.0600 
    229 H229       -5.7808  -22.2715  -55.6694 H         1 UNK         0.0600 
    230 H230       -7.5577  -18.3361  -55.2484 H         1 UNK         0.3000 
    231 H231       -6.6217  -16.3445  -55.4238 H         1 UNK         0.0600 
    232 H232       -4.1179  -17.7922  -56.4417 H         1 UNK         0.0600 
    233 H233       -4.5477  -16.1129  -56.7350 H         1 UNK         0.0600 
    234 H234       -5.5253  -17.3952  -57.4266 H         1 UNK         0.0600 
    235 H235       -6.2594  -17.8680  -52.8835 H         1 UNK         0.3000 
    236 H236       -5.4555  -17.7327  -50.8655 H         1 UNK         0.0600 
    237 H237       -4.2818  -15.7368  -50.0002 H         1 UNK         0.0600 
    238 H238       -4.0274  -15.1354  -51.6304 H         1 UNK         0.0600 
    239 H239       -5.6588  -15.2670  -50.9817 H         1 UNK         0.0600 
    240 H240       -3.6838  -18.5880  -53.4037 H         1 UNK         0.3000 
    241 H241       -1.1317  -19.1188  -52.0387 H         1 UNK         0.0600 
    242 H242       -3.6850  -22.3477  -52.3161 H         1 UNK         0.3800 
    243 H243       -4.0293  -20.9073  -53.2704 H         1 UNK         0.3800 
    244 H244       -1.3869  -18.3586  -54.5421 H         1 UNK         0.0800 
    245 H245       -1.9241  -19.9742  -54.8696 H         1 UNK         0.0800 
    246 H246        1.0013  -17.6601  -55.0015 H         1 UNK         0.0800 
    247 H247        2.3823  -18.5011  -54.3373 H         1 UNK         0.0800 
@<TRIPOS>BOND
     1    1    2 1    
     2    1  127 1    
     3    1  128 1    
     4    1  129 1    
     5    2    3 2    
     6    2    4 am   BACKBONE|DICT|INTERRES
     7    4    5 1    
     8    4  130 1    
     9    5    6 1    
    10    5   65 1    
    11    5  131 1    
    12    6    7 1    
    13    6  132 1    
    14    6  133 1    
    15    7    8 1    
    16    8    9 1    
    17    8  134 1    
    18    8  135 1    
    19    9   10 ar   
    20    9   14 ar   
    21   10   11 ar   
    22   10  136 1    
    23   11   12 ar   
    24   11  126 1    
    25   12   13 ar   
    26   12  137 1    
    27   13   14 ar   
    28   13   15 1    
    29   14  138 1    
    30   15   16 1    
    31   15  139 1    
    32   15  140 1    
    33   16   17 1    
    34   17   18 1    
    35   17  141 1    
    36   17  142 1    
    37   18   19 1    
    38   18   67 1    
    39   18  143 1    
    40   19   20 am   BACKBONE|DICT|INTERRES
    41   19  144 1    
    42   20   21 2    
    43   20   22 1    
    44   22   23 1    
    45   22   24 1    
    46   22  145 1    
    47   23  146 1    
    48   23  147 1    
    49   23  148 1    
    50   24   25 am   BACKBONE|DICT|INTERRES
    51   24  149 1    
    52   25   26 2    
    53   25   27 1    
    54   27   28 1    
    55   27   29 1    
    56   27  150 1    
    57   28  151 1    
    58   28  152 1    
    59   28  153 1    
    60   29   30 am   BACKBONE|DICT|INTERRES
    61   29  154 1    
    62   30   31 2    
    63   30   32 1    
    64   32   33 1    
    65   32   34 1    
    66   32  155 1    
    67   33  156 1    
    68   33  157 1    
    69   33  158 1    
    70   34   35 am   BACKBONE|DICT|INTERRES
    71   34  159 1    
    72   35   36 2    
    73   35   37 1    
    74   37   38 1    
    75   37   39 1    
    76   37  160 1    
    77   38  161 1    
    78   38  162 1    
    79   38  163 1    
    80   39   40 am   BACKBONE|DICT|INTERRES
    81   39  164 1    
    82   40   41 2    
    83   40   42 1    
    84   42   43 1    
    85   42   44 1    
    86   42  165 1    
    87   43  166 1    
    88   43  167 1    
    89   43  168 1    
    90   44   45 am   BACKBONE|DICT|INTERRES
    91   44  169 1    
    92   45   46 2    
    93   45   47 1    
    94   47   48 1    
    95   47   49 1    
    96   47  170 1    
    97   48  171 1    
    98   48  172 1    
    99   48  173 1    
   100   49   50 am   BACKBONE|DICT|INTERRES
   101   49  174 1    
   102   50   51 2    
   103   50   52 1    
   104   52   53 1    
   105   52   54 1    
   106   52  175 1    
   107   53  176 1    
   108   53  177 1    
   109   53  178 1    
   110   54   55 am   BACKBONE|DICT|INTERRES
   111   54  179 1    
   112   55   56 2    
   113   55   57 1    
   114   57   58 1    
   115   57   59 1    
   116   57  180 1    
   117   58  181 1    
   118   58  182 1    
   119   58  183 1    
   120   59   60 am   BACKBONE|DICT|INTERRES
   121   59  184 1    
   122   60   61 2    
   123   60   62 1    
   124   62   63 1    
   125   62   64 1    
   126   62  185 1    
   127   63  186 1    
   128   63  187 1    
   129   63  188 1    
   130   64   65 am   BACKBONE|DICT|INTERRES
   131   64  189 1    
   132   65   66 2    
   133   67   68 2    
   134   67   69 am   BACKBONE|DICT|INTERRES
   135   69   70 1    
   136   69  190 1    
   137   70   71 1    
   138   70   72 1    
   139   70  191 1    
   140   71  192 1    
   141   71  193 1    
   142   71  194 1    
   143   72   73 2    
   144   72   74 am   BACKBONE|DICT|INTERRES
   145   74   75 1    
   146   74  195 1    
   147   75   76 1    
   148   75   77 1    
   149   75  196 1    
   150   76  197 1    
   151   76  198 1    
   152   76  199 1    
   153   77   78 2    
   154   77   79 am   BACKBONE|DICT|INTERRES
   155   79   80 1    
   156   79  200 1    
   157   80   81 1    
   158   80   82 1    
   159   80  201 1    
   160   81  202 1    
   161   81  203 1    
   162   81  204 1    
   163   82   83 2    
   164   82   84 am   BACKBONE|DICT|INTERRES
   165   84   85 1    
   166   84  205 1    
   167   85   86 1    
   168   85   87 1    
   169   85  206 1    
   170   86  207 1    
   171   86  208 1    
   172   86  209 1    
   173   87   88 2    
   174   87   89 am   BACKBONE|DICT|INTERRES
   175   89   90 1    
   176   89  210 1    
   177   90   91 1    
   178   90   92 1    
   179   90  211 1    
   180   91  212 1    
   181   91  213 1    
   182   91  214 1    
   183   92   93 2    
   184   92   94 am   BACKBONE|DICT|INTERRES
   185   94   95 1    
   186   94  215 1    
   187   95   96 1    
   188   95   97 1    
   189   95  216 1    
   190   96  217 1    
   191   96  218 1    
   192   96  219 1    
   193   97   98 2    
   194   97   99 am   BACKBONE|DICT|INTERRES
   195   99  100 1    
   196   99  220 1    
   197  100  101 1    
   198  100  102 1    
   199  100  221 1    
   200  101  222 1    
   201  101  223 1    
   202  101  224 1    
   203  102  103 2    
   204  102  104 am   BACKBONE|DICT|INTERRES
   205  104  105 1    
   206  104  225 1    
   207  105  106 1    
   208  105  107 1    
   209  105  226 1    
   210  106  227 1    
   211  106  228 1    
   212  106  229 1    
   213  107  108 2    
   214  107  109 am   BACKBONE|DICT|INTERRES
   215  109  110 1    
   216  109  230 1    
   217  110  111 1    
   218  110  112 1    
   219  110  231 1    
   220  111  232 1    
   221  111  233 1    
   222  111  234 1    
   223  112  113 2    
   224  112  114 am   BACKBONE|DICT|INTERRES
   225  114  115 1    
   226  114  235 1    
   227  115  116 1    
   228  115  117 1    
   229  115  236 1    
   230  116  237 1    
   231  116  238 1    
   232  116  239 1    
   233  117  118 2    
   234  117  119 am   BACKBONE|DICT|INTERRES
   235  119  120 1    
   236  119  240 1    
   237  120  121 1    
   238  120  124 1    
   239  120  241 1    
   240  121  122 am   BACKBONE|DICT|INTERRES
   241  121  123 2    
   242  122  242 1    
   243  122  243 1    
   244  124  125 1    
   245  124  244 1    
   246  124  245 1    
   247  125  126 1    
   248  126  246 1    
   249  126  247 1    
@<TRIPOS>SUBSTRUCTURE
     1 UNK         1 GROUP             0       ****    0 ROOT    
