@<TRIPOS>MOLECULE
3R540
247   249    1
SMALL
USER_CHARGES


@<TRIPOS>ATOM
      1 CA          1.1025  -11.0230  -44.4015 C.3       0 UNK        -0.1800 
      2 C           2.1627  -11.1374  -45.4859 C.2       0 UNK         0.5000 
      3 O           3.3076  -10.7405  -45.2704 O.2       0 UNK        -0.5000 
      4 N           1.7936  -11.6916  -46.6485 N.am      1 UNK        -0.5000 
      5 CA          2.6531  -11.8257  -47.8339 C.3       1 UNK         0.1400 
      6 C6          1.8294  -12.1814  -49.0964 C.3       23 UNK        -0.0398 
      7 S7          1.0326  -13.8277  -49.0407 S.3       23 UNK        -0.2404 
      8 C8          1.9142  -14.6442  -50.4047 C.3       23 UNK        -0.0205 
      9 C9          1.6331  -16.1362  -50.4494 C.ar      23 UNK        -0.0193 
     10 C10         0.5411  -16.6320  -51.1669 C.ar      23 UNK        -0.1150 
     11 C11         0.3053  -18.0100  -51.2446 C.ar      23 UNK        -0.0193 
     12 C12         1.1919  -18.8875  -50.6108 C.ar      23 UNK        -0.1150 
     13 C13         2.2901  -18.4047  -49.8879 C.ar      23 UNK        -0.0193 
     14 C14         2.4962  -17.0256  -49.8063 C.ar      23 UNK        -0.1150 
     15 C15         3.3038  -19.3434  -49.2364 C.3       23 UNK        -0.0205 
     16 S16         2.5921  -20.8610  -48.5214 S.3       23 UNK        -0.2404 
     17 C17         1.5641  -20.1749  -47.1822 C.3       23 UNK        -0.0398 
     18 CA          0.3065  -21.0318  -46.9114 C.3       11 UNK         0.1400 
     19 N          -0.2260  -20.7950  -45.5689 N.am      11 UNK        -0.5000 
     20 C          -1.1522  -21.5575  -44.9734 C.2       10 UNK         0.5000 
     21 O          -1.6580  -22.5506  -45.4944 O.2       10 UNK        -0.5000 
     22 CA         -1.6226  -21.1126  -43.5784 C.3       10 UNK         0.1400 
     23 CB         -0.5800  -21.4720  -42.5093 C.3       10 UNK        -0.1800 
     24 N          -1.9229  -19.6820  -43.5186 N.am      10 UNK        -0.5000 
     25 C          -2.8948  -19.0861  -44.2248 C.2       9 UNK         0.5000 
     26 O          -3.6584  -19.6870  -44.9813 O.2       9 UNK        -0.5000 
     27 CA         -3.0098  -17.5571  -44.0960 C.3       9 UNK         0.1400 
     28 CB         -3.7067  -17.1720  -42.7825 C.3       9 UNK        -0.1800 
     29 N          -1.7163  -16.8791  -44.1851 N.am      9 UNK        -0.5000 
     30 C          -0.9099  -16.9157  -45.2560 C.2       8 UNK         0.5000 
     31 O          -1.1745  -17.5162  -46.2946 O.2       8 UNK        -0.5000 
     32 CA          0.4512  -16.2159  -45.1254 C.3       8 UNK         0.1400 
     33 CB          0.3039  -14.6913  -45.2286 C.3       8 UNK        -0.1800 
     34 N           1.1326  -16.5622  -43.8803 N.am      8 UNK        -0.5000 
     35 C           1.5125  -17.8020  -43.5393 C.2       7 UNK         0.5000 
     36 O           1.3492  -18.7932  -44.2491 O.2       7 UNK        -0.5000 
     37 CA          2.1391  -17.9680  -42.1473 C.3       7 UNK         0.1400 
     38 CB          3.6082  -17.5196  -42.1558 C.3       7 UNK        -0.1800 
     39 N           1.3960  -17.2287  -41.1276 N.am      7 UNK        -0.5000 
     40 C           0.1437  -17.5197  -40.7450 C.2       6 UNK         0.5000 
     41 O          -0.5089  -18.4659  -41.1857 O.2       6 UNK        -0.5000 
     42 CA         -0.5021  -16.5587  -39.7323 C.3       6 UNK         0.1400 
     43 CB         -0.0489  -16.8879  -38.3021 C.3       6 UNK        -0.1800 
     44 N          -0.2028  -15.1574  -40.0296 N.am      6 UNK        -0.5000 
     45 C          -0.6383  -14.5087  -41.1185 C.2       5 UNK         0.5000 
     46 O          -1.3554  -15.0168  -41.9796 O.2       5 UNK        -0.5000 
     47 CA         -0.1515  -13.0615  -41.2962 C.3       5 UNK         0.1400 
     48 CB         -1.0321  -12.0880  -40.4994 C.3       5 UNK        -0.1800 
     49 N           1.2519  -12.8749  -40.9178 N.am      5 UNK        -0.5000 
     50 C           2.2852  -13.4330  -41.5599 C.2       4 UNK         0.5000 
     51 O           2.1655  -14.2171  -42.5054 O.2       4 UNK        -0.5000 
     52 CA          3.6873  -13.0456  -41.0817 C.3       4 UNK         0.1400 
     53 CB          4.2835  -14.1179  -40.1548 C.3       4 UNK        -0.1800 
     54 N           4.5102  -12.8759  -42.2705 N.am      4 UNK        -0.5000 
     55 C           5.6085  -12.1211  -42.3717 C.2       3 UNK         0.5000 
     56 O           6.1294  -11.5533  -41.4103 O.2       3 UNK        -0.5000 
     57 CA          6.1949  -11.9142  -43.7843 C.3       3 UNK         0.1400 
     58 CB          7.7318  -12.0496  -43.8187 C.3       3 UNK        -0.1800 
     59 N           5.5398  -12.7143  -44.8292 N.am      3 UNK        -0.5000 
     60 C           5.6743  -14.0241  -45.0930 C.2       2 UNK         0.5000 
     61 O           6.4283  -14.7707  -44.4692 O.2       2 UNK        -0.5000 
     62 CA          4.7995  -14.6132  -46.2240 C.3       2 UNK         0.1400 
     63 CB          4.1382  -15.9302  -45.7858 C.3       2 UNK        -0.1800 
     64 N           3.7470  -13.6932  -46.6610 N.am      2 UNK        -0.5000 
     65 C           3.8597  -12.7739  -47.6294 C.2       1 UNK         0.5000 
     66 O           4.8679  -12.6326  -48.3217 O.2       1 UNK        -0.5000 
     67 C          -0.7722  -20.8614  -48.0031 C.2       11 UNK         0.5000 
     68 O          -0.8317  -21.6747  -48.9260 O.2       11 UNK        -0.5000 
     69 N          -1.6389  -19.8490  -47.8537 N.am      12 UNK        -0.5000 
     70 CA         -2.7824  -19.6115  -48.7314 C.3       12 UNK         0.1400 
     71 CB         -3.4258  -18.2541  -48.4144 C.3       12 UNK        -0.1800 
     72 C          -3.8239  -20.7385  -48.6729 C.2       12 UNK         0.5000 
     73 O          -4.3235  -21.1399  -49.7199 O.2       12 UNK        -0.5000 
     74 N          -4.1077  -21.2541  -47.4688 N.am      13 UNK        -0.5000 
     75 CA         -5.0005  -22.3944  -47.2555 C.3       13 UNK         0.1400 
     76 CB         -5.3188  -22.5209  -45.7584 C.3       13 UNK        -0.1800 
     77 C          -4.4281  -23.7159  -47.8043 C.2       13 UNK         0.5000 
     78 O          -5.1796  -24.5314  -48.3385 O.2       13 UNK        -0.5000 
     79 N          -3.1090  -23.9022  -47.6686 N.am      14 UNK        -0.5000 
     80 CA         -2.3837  -25.0918  -48.1147 C.3       14 UNK         0.1400 
     81 CB         -1.0182  -25.1342  -47.4118 C.3       14 UNK        -0.1800 
     82 C          -2.1971  -25.1859  -49.6413 C.2       14 UNK         0.5000 
     83 O          -1.8837  -26.2740  -50.1270 O.2       14 UNK        -0.5000 
     84 N          -2.3641  -24.0664  -50.3627 N.am      15 UNK        -0.5000 
     85 CA         -2.1335  -23.9111  -51.8022 C.3       15 UNK         0.1400 
     86 CB         -2.5429  -22.4948  -52.2291 C.3       15 UNK        -0.1800 
     87 C          -2.8589  -24.9737  -52.6483 C.2       15 UNK         0.5000 
     88 O          -4.0912  -24.9700  -52.7154 O.2       15 UNK        -0.5000 
     89 N          -2.0742  -25.9020  -53.2167 N.am      16 UNK        -0.5000 
     90 CA         -2.4880  -27.0717  -54.0071 C.3       16 UNK         0.1400 
     91 CB         -3.0932  -26.6120  -55.3495 C.3       16 UNK        -0.1800 
     92 C          -3.4273  -28.0502  -53.2622 C.2       16 UNK         0.5000 
     93 O          -4.0870  -28.8648  -53.9091 O.2       16 UNK        -0.5000 
     94 N          -3.5075  -27.9237  -51.9271 N.am      17 UNK        -0.5000 
     95 CA         -4.4946  -28.5293  -51.0246 C.3       17 UNK         0.1400 
     96 CB         -4.2974  -30.0570  -50.9433 C.3       17 UNK        -0.1800 
     97 C          -5.9571  -28.1323  -51.3459 C.2       17 UNK         0.5000 
     98 O          -6.8819  -28.8282  -50.9226 O.2       17 UNK        -0.5000 
     99 N          -6.1422  -27.0324  -52.0893 N.am      18 UNK        -0.5000 
    100 CA        -7.4281  -26.5589  -52.6026 C.3       18 UNK         0.1400 
    101 CB        -7.3883  -26.6234  -54.1384 C.3       18 UNK        -0.1800 
    102 C         -7.7496  -25.1257  -52.1499 C.2       18 UNK         0.5000 
    103 O         -8.9108  -24.7231  -52.2253 O.2       18 UNK        -0.5000 
    104 N         -6.7262  -24.3665  -51.7330 N.am      19 UNK        -0.5000 
    105 CA        -6.7213  -22.9623  -51.3040 C.3       19 UNK         0.1400 
    106 CB        -7.6872  -22.7103  -50.1311 C.3       19 UNK        -0.1800 
    107 C         -6.9568  -21.9564  -52.4475 C.2       19 UNK         0.5000 
    108 O         -6.2652  -20.9408  -52.5200 O.2       19 UNK        -0.5000 
    109 N         -7.8913  -22.2750  -53.3523 N.am      20 UNK        -0.5000 
    110 CA        -8.2818  -21.4892  -54.5272 C.3       20 UNK         0.1400 
    111 CB        -9.4774  -22.1820  -55.1991 C.3       20 UNK        -0.1800 
    112 C         -7.1514  -21.2514  -55.5508 C.2       20 UNK         0.5000 
    113 O         -7.2766  -20.3615  -56.3927 O.2       20 UNK        -0.5000 
    114 N         -6.0693  -22.0365  -55.4593 N.am      21 UNK        -0.5000 
    115 CA        -4.8400  -21.8663  -56.2317 C.3       21 UNK         0.1400 
    116 CB        -3.9862  -23.1345  -56.0850 C.3       21 UNK        -0.1800 
    117 C         -4.0313  -20.6138  -55.8310 C.2       21 UNK         0.5000 
    118 O         -3.2403  -20.1328  -56.6435 O.2       21 UNK        -0.5000 
    119 N         -4.2299  -20.1075  -54.6051 N.am      22 UNK        -0.5000 
    120 CA        -3.6381  -18.8530  -54.1240 C.3       22 UNK         0.1400 
    121 C         -4.3569  -17.6182  -54.7354 C.2       22 UNK         0.5000 
    122 N         -3.6188  -16.6724  -55.3007 N.am      22 UNK        -0.7600 
    123 O         -5.5782  -17.4974  -54.6742 O.2       22 UNK        -0.5000 
    124 C124       -3.6248  -18.8064  -52.5751 C.3       23 UNK        -0.0398 
    125 S125       -2.4080  -17.6226  -51.9022 S.3       23 UNK        -0.2404 
    126 C126       -0.8595  -18.5796  -52.0514 C.3       23 UNK        -0.0205 
    127 H127        0.2479  -11.6693  -44.6017 H         1 UNK         0.0600 
    128 H128        1.5224  -11.3004  -43.4362 H         1 UNK         0.0600 
    129 H129        0.7475   -9.9949  -44.3334 H         1 UNK         0.0600 
    130 H130        0.8415  -12.0072  -46.7690 H         1 UNK         0.3000 
    131 H131        3.0827  -10.8372  -48.0109 H         1 UNK         0.0600 
    132 H132        1.0446  -11.4374  -49.2392 H         1 UNK         0.0800 
    133 H133        2.4593  -12.1017  -49.9840 H         1 UNK         0.0800 
    134 H134        1.6248  -14.1818  -51.3497 H         1 UNK         0.0800 
    135 H135        2.9873  -14.4768  -50.2965 H         1 UNK         0.0800 
    136 H136       -0.1183  -15.9414  -51.6731 H         1 UNK         0.1150 
    137 H137        1.0321  -19.9534  -50.6929 H         1 UNK         0.1150 
    138 H138        3.3473  -16.6404  -49.2619 H         1 UNK         0.1150 
    139 H139        4.0383  -19.6284  -49.9903 H         1 UNK         0.0800 
    140 H140        3.8546  -18.8226  -48.4512 H         1 UNK         0.0800 
    141 H141        1.2932  -19.1369  -47.3845 H         1 UNK         0.0800 
    142 H142        2.1984  -20.1527  -46.2957 H         1 UNK         0.0800 
    143 H143        0.6127  -22.0801  -46.9304 H         1 UNK         0.0600 
    144 H144        0.1605  -20.0008  -45.0639 H         1 UNK         0.3000 
    145 H145       -2.5420  -21.6559  -43.3506 H         1 UNK         0.0600 
    146 H146       -0.9506  -21.2486  -41.5087 H         1 UNK         0.0600 
    147 H147       -0.3410  -22.5357  -42.5377 H         1 UNK         0.0600 
    148 H148        0.3502  -20.9208  -42.6511 H         1 UNK         0.0600 
    149 H149       -1.3515  -19.1232  -42.8923 H         1 UNK         0.3000 
    150 H150       -3.6265  -17.2016  -44.9238 H         1 UNK         0.0600 
    151 H151       -4.6759  -17.6644  -42.6941 H         1 UNK         0.0600 
    152 H152       -3.8820  -16.0973  -42.7311 H         1 UNK         0.0600 
    153 H153       -3.1120  -17.4548  -41.9131 H         1 UNK         0.0600 
    154 H154       -1.4332  -16.3354  -43.3742 H         1 UNK         0.3000 
    155 H155        1.0781  -16.5533  -45.9533 H         1 UNK         0.0600 
    156 H156       -0.3204  -14.2905  -44.4302 H         1 UNK         0.0600 
    157 H157       -0.1525  -14.4076  -46.1774 H         1 UNK         0.0600 
    158 H158        1.2736  -14.2005  -45.1689 H         1 UNK         0.0600 
    159 H159        1.3392  -15.7946  -43.2477 H         1 UNK         0.3000 
    160 H160        2.1071  -19.0282  -41.8874 H         1 UNK         0.0600 
    161 H161        4.0686  -17.6512  -41.1767 H         1 UNK         0.0600 
    162 H162        3.7115  -16.4724  -42.4405 H         1 UNK         0.0600 
    163 H163        4.1879  -18.1066  -42.8693 H         1 UNK         0.0600 
    164 H164        1.8407  -16.4092  -40.7436 H         1 UNK         0.3000 
    165 H165       -1.5844  -16.6945  -39.7878 H         1 UNK         0.0600 
    166 H166       -0.5614  -16.2608  -37.5725 H         1 UNK         0.0600 
    167 H167       -0.2733  -17.9256  -38.0517 H         1 UNK         0.0600 
    168 H168        1.0246  -16.7438  -38.1739 H         1 UNK         0.0600 
    169 H169        0.3856  -14.6633  -39.3752 H         1 UNK         0.3000 
    170 H170       -0.2499  -12.8143  -42.3548 H         1 UNK         0.0600 
    171 H171       -2.0822  -12.1975  -40.7742 H         1 UNK         0.0600 
    172 H172       -0.9542  -12.2587  -39.4250 H         1 UNK         0.0600 
    173 H173       -0.7528  -11.0529  -40.6967 H         1 UNK         0.0600 
    174 H174        1.4309  -12.2435  -40.1500 H         1 UNK         0.3000 
    175 H175        3.6274  -12.0951  -40.5472 H         1 UNK         0.0600 
    176 H176        5.2588  -13.8118  -39.7763 H         1 UNK         0.0600 
    177 H177        3.6407  -14.2920  -39.2912 H         1 UNK         0.0600 
    178 H178        4.4128  -15.0696  -40.6688 H         1 UNK         0.0600 
    179 H179        4.1271  -13.3005  -43.1044 H         1 UNK         0.3000 
    180 H180        5.9642  -10.8789  -44.0397 H         1 UNK         0.0600 
    181 H181        8.0649  -13.0228  -43.4582 H         1 UNK         0.0600 
    182 H182        8.2017  -11.2957  -43.1862 H         1 UNK         0.0600 
    183 H183        8.1193  -11.9114  -44.8281 H         1 UNK         0.0600 
    184 H184        4.8554  -12.1971  -45.3695 H         1 UNK         0.3000 
    185 H185        5.4612  -14.8318  -47.0645 H         1 UNK         0.0600 
    186 H186        3.5000  -16.3365  -46.5707 H         1 UNK         0.0600 
    187 H187        4.8851  -16.6899  -45.5523 H         1 UNK         0.0600 
    188 H188        3.5306  -15.7852  -44.8937 H         1 UNK         0.0600 
    189 H189        2.8799  -13.7256  -46.1465 H         1 UNK         0.3000 
    190 H190       -1.5016  -19.1772  -47.1022 H         1 UNK         0.3000 
    191 H191       -2.4037  -19.5774  -49.7520 H         1 UNK         0.0600 
    192 H192       -3.7759  -18.2040  -47.3832 H         1 UNK         0.0600 
    193 H193       -4.2811  -18.0667  -49.0647 H         1 UNK         0.0600 
    194 H194       -2.7177  -17.4399  -48.5705 H         1 UNK         0.0600 
    195 H195       -3.6939  -20.8345  -46.6419 H         1 UNK         0.3000 
    196 H196       -5.9347  -22.1928  -47.7821 H         1 UNK         0.0600 
    197 H197       -4.4180  -22.6911  -45.1679 H         1 UNK         0.0600 
    198 H198       -5.9979  -23.3537  -45.5717 H         1 UNK         0.0600 
    199 H199       -5.7991  -21.6180  -45.3807 H         1 UNK         0.0600 
    200 H200       -2.5706  -23.2106  -47.1560 H         1 UNK         0.3000 
    201 H201       -2.9502  -25.9723  -47.8046 H         1 UNK         0.0600 
    202 H202       -0.4112  -24.2644  -47.6651 H         1 UNK         0.0600 
    203 H203       -0.4548  -26.0232  -47.6982 H         1 UNK         0.0600 
    204 H204       -1.1327  -25.1597  -46.3280 H         1 UNK         0.0600 
    205 H205       -2.6007  -23.2220  -49.8595 H         1 UNK         0.3000 
    206 H206       -1.0581  -24.0072  -51.9627 H         1 UNK         0.0600 
    207 H207       -2.0289  -21.7460  -51.6277 H         1 UNK         0.0600 
    208 H208       -2.2873  -22.3079  -53.2725 H         1 UNK         0.0600 
    209 H209       -3.6153  -22.3323  -52.1187 H         1 UNK         0.0600 
    210 H210       -1.0797  -25.8398  -53.0479 H         1 UNK         0.3000 
    211 H211       -1.5779  -27.6320  -54.2251 H         1 UNK         0.0600 
    212 H212       -4.0582  -26.1246  -55.2086 H         1 UNK         0.0600 
    213 H213       -3.2504  -27.4570  -56.0207 H         1 UNK         0.0600 
    214 H214       -2.4341  -25.9116  -55.8623 H         1 UNK         0.0600 
    215 H215       -2.8900  -27.2493  -51.4823 H         1 UNK         0.3000 
    216 H216       -4.2853  -28.1176  -50.0363 H         1 UNK         0.0600 
    217 H217       -3.2619  -30.3088  -50.7142 H         1 UNK         0.0600 
    218 H218       -4.9161  -30.4907  -50.1569 H         1 UNK         0.0600 
    219 H219       -4.5648  -30.5511  -51.8776 H         1 UNK         0.0600 
    220 H220       -5.3238  -26.5082  -52.3807 H         1 UNK         0.3000 
    221 H221       -8.2426  -27.1953  -52.2513 H         1 UNK         0.0600 
    222 H222       -6.6023  -25.9867  -54.5470 H         1 UNK         0.0600 
    223 H223       -7.2058  -27.6412  -54.4840 H         1 UNK         0.0600 
    224 H224       -8.3352  -26.2975  -54.5711 H         1 UNK         0.0600 
    225 H225       -5.7966  -24.7663  -51.8083 H         1 UNK         0.3000 
    226 H226       -5.7094  -22.7978  -50.9400 H         1 UNK         0.0600 
    227 H227       -7.5252  -23.4252  -49.3249 H         1 UNK         0.0600 
    228 H228       -7.5366  -21.7119  -49.7190 H         1 UNK         0.0600 
    229 H229       -8.7313  -22.7809  -50.4364 H         1 UNK         0.0600 
    230 H230       -8.4154  -23.1283  -53.1820 H         1 UNK         0.3000 
    231 H231       -8.6050  -20.5083  -54.1733 H         1 UNK         0.0600 
    232 H232      -10.3179  -22.2746  -54.5110 H         1 UNK         0.0600 
    233 H233       -9.2166  -23.1825  -55.5467 H         1 UNK         0.0600 
    234 H234       -9.8271  -21.6141  -56.0623 H         1 UNK         0.0600 
    235 H235       -6.0597  -22.7460  -54.7420 H         1 UNK         0.3000 
    236 H236       -5.1102  -21.7574  -57.2842 H         1 UNK         0.0600 
    237 H237       -3.7271  -23.3258  -55.0441 H         1 UNK         0.0600 
    238 H238       -4.5146  -24.0086  -56.4655 H         1 UNK         0.0600 
    239 H239       -3.0546  -23.0497  -56.6460 H         1 UNK         0.0600 
    240 H240       -4.9392  -20.5184  -54.0071 H         1 UNK         0.3000 
    241 H241       -2.6003  -18.8469  -54.4624 H         1 UNK         0.0600 
    242 H242       -4.0747  -15.8617  -55.6895 H         1 UNK         0.3800 
    243 H243       -2.6146  -16.7463  -55.3508 H         1 UNK         0.3800 
    244 H244       -4.6133  -18.5594  -52.1832 H         1 UNK         0.0800 
    245 H245       -3.3965  -19.7901  -52.1665 H         1 UNK         0.0800 
    246 H246       -1.0492  -19.6069  -51.7404 H         1 UNK         0.0800 
    247 H247       -0.5657  -18.6230  -53.1006 H         1 UNK         0.0800 
@<TRIPOS>BOND
     1    1    2 1    
     2    1  127 1    
     3    1  128 1    
     4    1  129 1    
     5    2    3 2    
     6    2    4 am   BACKBONE|DICT|INTERRES
     7    4    5 1    
     8    4  130 1    
     9    5    6 1    
    10    5   65 1    
    11    5  131 1    
    12    6    7 1    
    13    6  132 1    
    14    6  133 1    
    15    7    8 1    
    16    8    9 1    
    17    8  134 1    
    18    8  135 1    
    19    9   10 ar   
    20    9   14 ar   
    21   10   11 ar   
    22   10  136 1    
    23   11   12 ar   
    24   11  126 1    
    25   12   13 ar   
    26   12  137 1    
    27   13   14 ar   
    28   13   15 1    
    29   14  138 1    
    30   15   16 1    
    31   15  139 1    
    32   15  140 1    
    33   16   17 1    
    34   17   18 1    
    35   17  141 1    
    36   17  142 1    
    37   18   19 1    
    38   18   67 1    
    39   18  143 1    
    40   19   20 am   BACKBONE|DICT|INTERRES
    41   19  144 1    
    42   20   21 2    
    43   20   22 1    
    44   22   23 1    
    45   22   24 1    
    46   22  145 1    
    47   23  146 1    
    48   23  147 1    
    49   23  148 1    
    50   24   25 am   BACKBONE|DICT|INTERRES
    51   24  149 1    
    52   25   26 2    
    53   25   27 1    
    54   27   28 1    
    55   27   29 1    
    56   27  150 1    
    57   28  151 1    
    58   28  152 1    
    59   28  153 1    
    60   29   30 am   BACKBONE|DICT|INTERRES
    61   29  154 1    
    62   30   31 2    
    63   30   32 1    
    64   32   33 1    
    65   32   34 1    
    66   32  155 1    
    67   33  156 1    
    68   33  157 1    
    69   33  158 1    
    70   34   35 am   BACKBONE|DICT|INTERRES
    71   34  159 1    
    72   35   36 2    
    73   35   37 1    
    74   37   38 1    
    75   37   39 1    
    76   37  160 1    
    77   38  161 1    
    78   38  162 1    
    79   38  163 1    
    80   39   40 am   BACKBONE|DICT|INTERRES
    81   39  164 1    
    82   40   41 2    
    83   40   42 1    
    84   42   43 1    
    85   42   44 1    
    86   42  165 1    
    87   43  166 1    
    88   43  167 1    
    89   43  168 1    
    90   44   45 am   BACKBONE|DICT|INTERRES
    91   44  169 1    
    92   45   46 2    
    93   45   47 1    
    94   47   48 1    
    95   47   49 1    
    96   47  170 1    
    97   48  171 1    
    98   48  172 1    
    99   48  173 1    
   100   49   50 am   BACKBONE|DICT|INTERRES
   101   49  174 1    
   102   50   51 2    
   103   50   52 1    
   104   52   53 1    
   105   52   54 1    
   106   52  175 1    
   107   53  176 1    
   108   53  177 1    
   109   53  178 1    
   110   54   55 am   BACKBONE|DICT|INTERRES
   111   54  179 1    
   112   55   56 2    
   113   55   57 1    
   114   57   58 1    
   115   57   59 1    
   116   57  180 1    
   117   58  181 1    
   118   58  182 1    
   119   58  183 1    
   120   59   60 am   BACKBONE|DICT|INTERRES
   121   59  184 1    
   122   60   61 2    
   123   60   62 1    
   124   62   63 1    
   125   62   64 1    
   126   62  185 1    
   127   63  186 1    
   128   63  187 1    
   129   63  188 1    
   130   64   65 am   BACKBONE|DICT|INTERRES
   131   64  189 1    
   132   65   66 2    
   133   67   68 2    
   134   67   69 am   BACKBONE|DICT|INTERRES
   135   69   70 1    
   136   69  190 1    
   137   70   71 1    
   138   70   72 1    
   139   70  191 1    
   140   71  192 1    
   141   71  193 1    
   142   71  194 1    
   143   72   73 2    
   144   72   74 am   BACKBONE|DICT|INTERRES
   145   74   75 1    
   146   74  195 1    
   147   75   76 1    
   148   75   77 1    
   149   75  196 1    
   150   76  197 1    
   151   76  198 1    
   152   76  199 1    
   153   77   78 2    
   154   77   79 am   BACKBONE|DICT|INTERRES
   155   79   80 1    
   156   79  200 1    
   157   80   81 1    
   158   80   82 1    
   159   80  201 1    
   160   81  202 1    
   161   81  203 1    
   162   81  204 1    
   163   82   83 2    
   164   82   84 am   BACKBONE|DICT|INTERRES
   165   84   85 1    
   166   84  205 1    
   167   85   86 1    
   168   85   87 1    
   169   85  206 1    
   170   86  207 1    
   171   86  208 1    
   172   86  209 1    
   173   87   88 2    
   174   87   89 am   BACKBONE|DICT|INTERRES
   175   89   90 1    
   176   89  210 1    
   177   90   91 1    
   178   90   92 1    
   179   90  211 1    
   180   91  212 1    
   181   91  213 1    
   182   91  214 1    
   183   92   93 2    
   184   92   94 am   BACKBONE|DICT|INTERRES
   185   94   95 1    
   186   94  215 1    
   187   95   96 1    
   188   95   97 1    
   189   95  216 1    
   190   96  217 1    
   191   96  218 1    
   192   96  219 1    
   193   97   98 2    
   194   97   99 am   BACKBONE|DICT|INTERRES
   195   99  100 1    
   196   99  220 1    
   197  100  101 1    
   198  100  102 1    
   199  100  221 1    
   200  101  222 1    
   201  101  223 1    
   202  101  224 1    
   203  102  103 2    
   204  102  104 am   BACKBONE|DICT|INTERRES
   205  104  105 1    
   206  104  225 1    
   207  105  106 1    
   208  105  107 1    
   209  105  226 1    
   210  106  227 1    
   211  106  228 1    
   212  106  229 1    
   213  107  108 2    
   214  107  109 am   BACKBONE|DICT|INTERRES
   215  109  110 1    
   216  109  230 1    
   217  110  111 1    
   218  110  112 1    
   219  110  231 1    
   220  111  232 1    
   221  111  233 1    
   222  111  234 1    
   223  112  113 2    
   224  112  114 am   BACKBONE|DICT|INTERRES
   225  114  115 1    
   226  114  235 1    
   227  115  116 1    
   228  115  117 1    
   229  115  236 1    
   230  116  237 1    
   231  116  238 1    
   232  116  239 1    
   233  117  118 2    
   234  117  119 am   BACKBONE|DICT|INTERRES
   235  119  120 1    
   236  119  240 1    
   237  120  121 1    
   238  120  124 1    
   239  120  241 1    
   240  121  122 am   BACKBONE|DICT|INTERRES
   241  121  123 2    
   242  122  242 1    
   243  122  243 1    
   244  124  125 1    
   245  124  244 1    
   246  124  245 1    
   247  125  126 1    
   248  126  246 1    
   249  126  247 1    
@<TRIPOS>SUBSTRUCTURE
     1 UNK         1 GROUP             0       ****    0 ROOT    
