@<TRIPOS>MOLECULE
3R540
247   249    1
SMALL
USER_CHARGES


@<TRIPOS>ATOM
      1 CA         -6.3671  -17.3968  -45.0352 C.3       0 UNK        -0.1800 
      2 C          -5.8166  -15.9963  -45.2639 C.2       0 UNK         0.5000 
      3 O          -6.1411  -15.0792  -44.5089 O.2       0 UNK        -0.5000 
      4 N          -4.9974  -15.8261  -46.3077 N.am      1 UNK        -0.5000 
      5 CA         -4.3140  -14.5758  -46.6489 C.3       1 UNK         0.1400 
      6 C6         -3.8233  -14.5678  -48.1197 C.3       23 UNK        -0.0398 
      7 S7         -2.8542  -16.0374  -48.6160 S.3       23 UNK        -0.2404 
      8 C8         -1.2185  -15.2928  -48.8668 C.3       23 UNK        -0.0205 
      9 C9         -0.1972  -16.3305  -49.2984 C.ar      23 UNK        -0.0193 
     10 C10         0.0091  -16.6022  -50.6546 C.ar      23 UNK        -0.1150 
     11 C11         0.9688  -17.5389  -51.0503 C.ar      23 UNK        -0.0193 
     12 C12         1.7216  -18.2054  -50.0792 C.ar      23 UNK        -0.1150 
     13 C13         1.5158  -17.9485  -48.7213 C.ar      23 UNK        -0.0193 
     14 C14         0.5555  -17.0095  -48.3374 C.ar      23 UNK        -0.1150 
     15 C15         2.3238  -18.6909  -47.6682 C.3       23 UNK        -0.0205 
     16 S16         1.8109  -20.4305  -47.5292 S.3       23 UNK        -0.2404 
     17 C17         0.0422  -20.2404  -47.1294 C.3       23 UNK        -0.0398 
     18 CA         -0.5687  -21.5432  -46.5762 C.3       11 UNK         0.1400 
     19 N           0.0207  -21.9561  -45.3013 N.am      11 UNK        -0.5000 
     20 C          -0.2088  -23.1339  -44.7056 C.2       10 UNK         0.5000 
     21 O          -0.9371  -24.0073  -45.1774 O.2       10 UNK        -0.5000 
     22 CA          0.4508  -23.3511  -43.3353 C.3       10 UNK         0.1400 
     23 CB          1.9102  -23.8039  -43.4938 C.3       10 UNK        -0.1800 
     24 N           0.3977  -22.1342  -42.5264 N.am      10 UNK        -0.5000 
     25 C          -0.6937  -21.7123  -41.8742 C.2       9 UNK         0.5000 
     26 O          -1.7537  -22.3387  -41.8402 O.2       9 UNK        -0.5000 
     27 CA         -0.5922  -20.3481  -41.1640 C.3       9 UNK         0.1400 
     28 CB          0.0416  -20.5069  -39.7739 C.3       9 UNK        -0.1800 
     29 N           0.1659  -19.3536  -41.9260 N.am      9 UNK        -0.5000 
     30 C          -0.2175  -18.8516  -43.1084 C.2       8 UNK         0.5000 
     31 O          -1.2556  -19.1755  -43.6797 O.2       8 UNK        -0.5000 
     32 CA          0.7325  -17.8518  -43.7917 C.3       8 UNK         0.1400 
     33 CB          0.4767  -16.4366  -43.2498 C.3       8 UNK        -0.1800 
     34 N           2.1574  -18.1635  -43.6583 N.am      8 UNK        -0.5000 
     35 C           2.7619  -19.3472  -43.8412 C.2       7 UNK         0.5000 
     36 O           2.1710  -20.3857  -44.1347 O.2       7 UNK        -0.5000 
     37 CA          4.2837  -19.3855  -43.6090 C.3       7 UNK         0.1400 
     38 CB          5.0408  -19.1137  -44.9175 C.3       7 UNK        -0.1800 
     39 N           4.7179  -18.4383  -42.5780 N.am      7 UNK        -0.5000 
     40 C           4.4168  -18.5392  -41.2757 C.2       6 UNK         0.5000 
     41 O           3.7969  -19.4894  -40.7962 O.2       6 UNK        -0.5000 
     42 CA          4.8192  -17.3688  -40.3564 C.3       6 UNK         0.1400 
     43 CB          6.2910  -17.4715  -39.9111 C.3       6 UNK        -0.1800 
     44 N           4.4895  -16.0483  -40.9129 N.am      6 UNK        -0.5000 
     45 C           5.0606  -15.4040  -41.9391 C.2       5 UNK         0.5000 
     46 O           6.0647  -15.8019  -42.5349 O.2       5 UNK        -0.5000 
     47 CA          4.3599  -14.1041  -42.3863 C.3       5 UNK         0.1400 
     48 CB          4.9744  -12.8918  -41.6703 C.3       5 UNK        -0.1800 
     49 N           4.4015  -13.8718  -43.8340 N.am      5 UNK        -0.5000 
     50 C           4.0427  -14.7468  -44.7847 C.2       4 UNK         0.5000 
     51 O           3.6318  -15.8839  -44.5517 O.2       4 UNK        -0.5000 
     52 CA          4.1228  -14.2263  -46.2332 C.3       4 UNK         0.1400 
     53 CB          4.0917  -15.3571  -47.2832 C.3       4 UNK        -0.1800 
     54 N           3.0807  -13.2260  -46.4978 N.am      4 UNK        -0.5000 
     55 C           1.7525  -13.4108  -46.4426 C.2       3 UNK         0.5000 
     56 O           1.2084  -14.4960  -46.2360 O.2       3 UNK        -0.5000 
     57 CA          0.8848  -12.1605  -46.6890 C.3       3 UNK         0.1400 
     58 CB          0.7118  -11.9056  -48.1948 C.3       3 UNK        -0.1800 
     59 N          -0.4385  -12.2709  -46.0700 N.am      3 UNK        -0.5000 
     60 C          -0.6619  -12.3032  -44.7487 C.2       2 UNK         0.5000 
     61 O           0.2267  -12.1742  -43.9048 O.2       2 UNK        -0.5000 
     62 CA         -2.1196  -12.4739  -44.2783 C.3       2 UNK         0.1400 
     63 CB         -2.6650  -11.1409  -43.7405 C.3       2 UNK        -0.1800 
     64 N          -3.0316  -12.9644  -45.3167 N.am      2 UNK        -0.5000 
     65 C          -3.1893  -14.2558  -45.6375 C.2       1 UNK         0.5000 
     66 O          -2.5100  -15.1661  -45.1588 O.2       1 UNK        -0.5000 
     67 C          -2.1033  -21.4389  -46.5010 C.2       11 UNK         0.5000 
     68 O          -2.7686  -21.8513  -47.4476 O.2       11 UNK        -0.5000 
     69 N          -2.6460  -20.9476  -45.3779 N.am      12 UNK        -0.5000 
     70 CA         -4.0830  -20.8876  -45.1047 C.3       12 UNK         0.1400 
     71 CB         -4.3296  -20.1387  -43.7869 C.3       12 UNK        -0.1800 
     72 C          -4.7429  -22.2771  -45.0671 C.2       12 UNK         0.5000 
     73 O          -5.8204  -22.4494  -45.6367 O.2       12 UNK        -0.5000 
     74 N          -4.0636  -23.2541  -44.4485 N.am      13 UNK        -0.5000 
     75 CA         -4.4891  -24.6561  -44.4046 C.3       13 UNK         0.1400 
     76 CB         -3.6301  -25.4206  -43.3860 C.3       13 UNK        -0.1800 
     77 C          -4.4432  -25.3350  -45.7885 C.2       13 UNK         0.5000 
     78 O          -5.2914  -26.1773  -46.0827 O.2       13 UNK        -0.5000 
     79 N          -3.4815  -24.9234  -46.6249 N.am      14 UNK        -0.5000 
     80 CA         -3.3359  -25.3372  -48.0220 C.3       14 UNK         0.1400 
     81 CB         -1.8585  -25.1888  -48.4223 C.3       14 UNK        -0.1800 
     82 C          -4.2408  -24.5506  -48.9961 C.2       14 UNK         0.5000 
     83 O          -4.1821  -24.8083  -50.1993 O.2       14 UNK        -0.5000 
     84 N          -5.0240  -23.5868  -48.4859 N.am      15 UNK        -0.5000 
     85 CA         -5.8981  -22.6624  -49.2186 C.3       15 UNK         0.1400 
     86 CB         -7.0985  -23.4187  -49.8249 C.3       15 UNK        -0.1800 
     87 C          -5.1412  -21.8060  -50.2577 C.2       15 UNK         0.5000 
     88 O          -5.6629  -21.5528  -51.3453 O.2       15 UNK        -0.5000 
     89 N          -3.9112  -21.4020  -49.9086 N.am      16 UNK        -0.5000 
     90 CA         -2.9379  -20.6874  -50.7373 C.3       16 UNK         0.1400 
     91 CB         -3.3817  -19.2298  -50.9631 C.3       16 UNK        -0.1800 
     92 C          -2.6113  -21.4656  -52.0282 C.2       16 UNK         0.5000 
     93 O          -2.7893  -20.9577  -53.1359 O.2       16 UNK        -0.5000 
     94 N          -2.1682  -22.7160  -51.8346 N.am      17 UNK        -0.5000 
     95 CA         -1.8264  -23.6994  -52.8650 C.3       17 UNK         0.1400 
     96 CB         -0.6327  -23.2148  -53.7182 C.3       17 UNK        -0.1800 
     97 C          -3.0506  -24.1132  -53.7071 C.2       17 UNK         0.5000 
     98 O          -2.9813  -24.1131  -54.9347 O.2       17 UNK        -0.5000 
     99 N          -4.1408  -24.4779  -53.0181 N.am      18 UNK        -0.5000 
    100 CA        -5.4224  -24.9366  -53.5578 C.3       18 UNK         0.1400 
    101 CB        -5.2593  -26.2538  -54.3459 C.3       18 UNK        -0.1800 
    102 C         -6.1564  -23.8422  -54.3584 C.2       18 UNK         0.5000 
    103 O         -6.1820  -23.8760  -55.5898 O.2       18 UNK        -0.5000 
    104 N         -6.7637  -22.9085  -53.6159 N.am      19 UNK        -0.5000 
    105 CA        -7.6219  -21.8109  -54.0675 C.3       19 UNK         0.1400 
    106 CB        -8.8280  -22.3218  -54.8859 C.3       19 UNK        -0.1800 
    107 C         -6.8324  -20.6849  -54.7584 C.2       19 UNK         0.5000 
    108 O         -7.1764  -20.2729  -55.8679 O.2       19 UNK        -0.5000 
    109 N         -5.8047  -20.1874  -54.0554 N.am      20 UNK        -0.5000 
    110 CA        -5.0023  -19.0020  -54.3883 C.3       20 UNK         0.1400 
    111 CB        -5.8667  -17.7256  -54.3153 C.3       20 UNK        -0.1800 
    112 C         -4.2061  -19.1109  -55.7043 C.2       20 UNK         0.5000 
    113 O         -3.9319  -18.0901  -56.3398 O.2       20 UNK        -0.5000 
    114 N         -3.8144  -20.3351  -56.0848 N.am      21 UNK        -0.5000 
    115 CA        -3.0702  -20.6176  -57.3153 C.3       21 UNK         0.1400 
    116 CB        -3.0076  -22.1320  -57.5494 C.3       21 UNK        -0.1800 
    117 C         -1.6526  -20.0141  -57.3294 C.2       21 UNK         0.5000 
    118 O         -1.1297  -19.7419  -58.4111 O.2       21 UNK        -0.5000 
    119 N         -1.0676  -19.7932  -56.1435 N.am      22 UNK        -0.5000 
    120 CA         0.2014  -19.0695  -55.9734 C.3       22 UNK         0.1400 
    121 C          0.0822  -17.5167  -56.0561 C.2       22 UNK         0.5000 
    122 N         -1.1056  -16.9354  -56.1889 N.am      22 UNK        -0.7600 
    123 O          1.0943  -16.8225  -56.0177 O.2       22 UNK        -0.5000 
    124 C124        0.9855  -19.5516  -54.7256 C.3       23 UNK        -0.0398 
    125 S125        0.1871  -19.2019  -53.1189 S.3       23 UNK        -0.2404 
    126 C126        1.2124  -17.8213  -52.5234 C.3       23 UNK        -0.0205 
    127 H127       -5.9077  -18.1266  -45.7022 H         1 UNK         0.0600 
    128 H128       -7.4436  -17.4091  -45.2051 H         1 UNK         0.0600 
    129 H129       -6.1806  -17.7086  -44.0078 H         1 UNK         0.0600 
    130 H130       -4.7329  -16.6202  -46.8730 H         1 UNK         0.3000 
    131 H131       -5.0558  -13.7784  -46.5631 H         1 UNK         0.0600 
    132 H132       -4.6925  -14.5284  -48.7775 H         1 UNK         0.0800 
    133 H133       -3.2640  -13.6559  -48.3353 H         1 UNK         0.0800 
    134 H134       -1.2875  -14.5046  -49.6178 H         1 UNK         0.0800 
    135 H135       -0.8969  -14.8182  -47.9387 H         1 UNK         0.0800 
    136 H136       -0.5745  -16.0829  -51.4017 H         1 UNK         0.1150 
    137 H137        2.4621  -18.9340  -50.3786 H         1 UNK         0.1150 
    138 H138        0.3938  -16.8012  -47.2888 H         1 UNK         0.1150 
    139 H139        3.3826  -18.6505  -47.9275 H         1 UNK         0.0800 
    140 H140        2.2300  -18.2071  -46.6949 H         1 UNK         0.0800 
    141 H141       -0.4699  -19.9344  -48.0440 H         1 UNK         0.0800 
    142 H142       -0.0859  -19.4264  -46.4164 H         1 UNK         0.0800 
    143 H143       -0.3490  -22.3357  -47.2945 H         1 UNK         0.0600 
    144 H144        0.6814  -21.3130  -44.8727 H         1 UNK         0.3000 
    145 H145       -0.0952  -24.1442  -42.8197 H         1 UNK         0.0600 
    146 H146        2.3717  -23.9912  -42.5242 H         1 UNK         0.0600 
    147 H147        1.9689  -24.7302  -44.0667 H         1 UNK         0.0600 
    148 H148        2.5136  -23.0592  -44.0138 H         1 UNK         0.0600 
    149 H149        1.1981  -21.5174  -42.5877 H         1 UNK         0.3000 
    150 H150       -1.6079  -19.9682  -41.0346 H         1 UNK         0.0600 
    151 H151        0.0316  -19.5644  -39.2262 H         1 UNK         0.0600 
    152 H152       -0.5062  -21.2359  -39.1753 H         1 UNK         0.0600 
    153 H153        1.0766  -20.8454  -39.8397 H         1 UNK         0.0600 
    154 H154        1.0533  -19.0617  -41.5423 H         1 UNK         0.3000 
    155 H155        0.5023  -17.8476  -44.8571 H         1 UNK         0.0600 
    156 H156       -0.5771  -16.1682  -43.3374 H         1 UNK         0.0600 
    157 H157        1.0411  -15.6900  -43.8074 H         1 UNK         0.0600 
    158 H158        0.7541  -16.3502  -42.1988 H         1 UNK         0.0600 
    159 H159        2.7649  -17.3571  -43.5540 H         1 UNK         0.3000 
    160 H160        4.5391  -20.3926  -43.2728 H         1 UNK         0.0600 
    161 H161        4.8386  -18.1148  -45.3037 H         1 UNK         0.0600 
    162 H162        4.7498  -19.8270  -45.6898 H         1 UNK         0.0600 
    163 H163        6.1176  -19.2071  -44.7767 H         1 UNK         0.0600 
    164 H164        5.2171  -17.6104  -42.8873 H         1 UNK         0.3000 
    165 H165        4.2086  -17.4599  -39.4565 H         1 UNK         0.0600 
    166 H166        6.5614  -16.6493  -39.2487 H         1 UNK         0.0600 
    167 H167        6.4634  -18.3995  -39.3647 H         1 UNK         0.0600 
    168 H168        6.9799  -17.4643  -40.7558 H         1 UNK         0.0600 
    169 H169        3.6678  -15.6252  -40.5036 H         1 UNK         0.3000 
    170 H170        3.3055  -14.1710  -42.1103 H         1 UNK         0.0600 
    171 H171        4.9360  -13.0143  -40.5870 H         1 UNK         0.0600 
    172 H172        6.0200  -12.7508  -41.9474 H         1 UNK         0.0600 
    173 H173        4.4356  -11.9749  -41.9105 H         1 UNK         0.0600 
    174 H174        4.7250  -12.9608  -44.1230 H         1 UNK         0.3000 
    175 H175        5.0824  -13.7174  -46.3359 H         1 UNK         0.0600 
    176 H176        4.1971  -14.9616  -48.2932 H         1 UNK         0.0600 
    177 H177        4.9081  -16.0614  -47.1201 H         1 UNK         0.0600 
    178 H178        3.1630  -15.9243  -47.2436 H         1 UNK         0.0600 
    179 H179        3.4207  -12.2925  -46.6819 H         1 UNK         0.3000 
    180 H180        1.3899  -11.2990  -46.2473 H         1 UNK         0.0600 
    181 H181        0.2160  -12.7385  -48.6921 H         1 UNK         0.0600 
    182 H182        1.6776  -11.7652  -48.6816 H         1 UNK         0.0600 
    183 H183        0.1241  -11.0060  -48.3788 H         1 UNK         0.0600 
    184 H184       -1.2224  -12.4047  -46.6886 H         1 UNK         0.3000 
    185 H185       -2.1093  -13.1892  -43.4528 H         1 UNK         0.0600 
    186 H186       -2.7047  -10.3782  -44.5192 H         1 UNK         0.0600 
    187 H187       -3.6697  -11.2605  -43.3345 H         1 UNK         0.0600 
    188 H188       -2.0364  -10.7558  -42.9363 H         1 UNK         0.0600 
    189 H189       -3.6290  -12.2720  -45.7458 H         1 UNK         0.3000 
    190 H190       -2.0377  -20.5447  -44.6688 H         1 UNK         0.3000 
    191 H191       -4.5511  -20.3213  -45.9124 H         1 UNK         0.0600 
    192 H192       -3.9806  -19.1079  -43.8499 H         1 UNK         0.0600 
    193 H193       -5.3928  -20.1078  -43.5455 H         1 UNK         0.0600 
    194 H194       -3.8155  -20.6147  -42.9510 H         1 UNK         0.0600 
    195 H195       -3.1771  -23.0326  -44.0159 H         1 UNK         0.3000 
    196 H196       -5.5247  -24.6813  -44.0590 H         1 UNK         0.0600 
    197 H197       -3.6922  -24.9659  -42.3971 H         1 UNK         0.0600 
    198 H198       -2.5800  -25.4448  -43.6769 H         1 UNK         0.0600 
    199 H199       -3.9666  -26.4537  -43.2913 H         1 UNK         0.0600 
    200 H200       -2.7952  -24.2637  -46.2771 H         1 UNK         0.3000 
    201 H201       -3.6064  -26.3913  -48.1089 H         1 UNK         0.0600 
    202 H202       -1.2089  -25.7464  -47.7471 H         1 UNK         0.0600 
    203 H203       -1.5405  -24.1467  -48.4060 H         1 UNK         0.0600 
    204 H204       -1.6826  -25.5704  -49.4289 H         1 UNK         0.0600 
    205 H205       -4.9755  -23.4271  -47.4879 H         1 UNK         0.3000 
    206 H206       -6.2883  -21.9615  -48.4796 H         1 UNK         0.0600 
    207 H207       -6.7878  -24.1243  -50.5948 H         1 UNK         0.0600 
    208 H208       -7.6355  -23.9776  -49.0585 H         1 UNK         0.0600 
    209 H209       -7.8107  -22.7284  -50.2785 H         1 UNK         0.0600 
    210 H210       -3.5749  -21.6619  -48.9809 H         1 UNK         0.3000 
    211 H211       -2.0082  -20.6518  -50.1673 H         1 UNK         0.0600 
    212 H212       -4.3792  -19.1674  -51.3948 H         1 UNK         0.0600 
    213 H213       -2.6911  -18.7024  -51.6225 H         1 UNK         0.0600 
    214 H214       -3.4020  -18.6864  -50.0191 H         1 UNK         0.0600 
    215 H215       -2.1189  -23.0518  -50.8840 H         1 UNK         0.3000 
    216 H216       -1.5048  -24.5969  -52.3347 H         1 UNK         0.0600 
    217 H217       -0.2872  -24.0041  -54.3866 H         1 UNK         0.0600 
    218 H218        0.2109  -22.9272  -53.0908 H         1 UNK         0.0600 
    219 H219       -0.8946  -22.3574  -54.3387 H         1 UNK         0.0600 
    220 H220       -4.0900  -24.4608  -52.0008 H         1 UNK         0.3000 
    221 H221       -6.0454  -25.1673  -52.6925 H         1 UNK         0.0600 
    222 H222       -4.6561  -26.1263  -55.2450 H         1 UNK         0.0600 
    223 H223       -4.7887  -27.0228  -53.7332 H         1 UNK         0.0600 
    224 H224       -6.2303  -26.6377  -54.6604 H         1 UNK         0.0600 
    225 H225       -6.5590  -22.8872  -52.6234 H         1 UNK         0.3000 
    226 H226       -8.0284  -21.3675  -53.1572 H         1 UNK         0.0600 
    227 H227       -9.3690  -23.1001  -54.3479 H         1 UNK         0.0600 
    228 H228       -9.5329  -21.5128  -55.0808 H         1 UNK         0.0600 
    229 H229       -8.5275  -22.7268  -55.8523 H         1 UNK         0.0600 
    230 H230       -5.5858  -20.6282  -53.1662 H         1 UNK         0.3000 
    231 H231       -4.2454  -18.9085  -53.6142 H         1 UNK         0.0600 
    232 H232       -6.3892  -17.6584  -53.3610 H         1 UNK         0.0600 
    233 H233       -5.2524  -16.8293  -54.4084 H         1 UNK         0.0600 
    234 H234       -6.6120  -17.6948  -55.1105 H         1 UNK         0.0600 
    235 H235       -4.0280  -21.1179  -55.4817 H         1 UNK         0.3000 
    236 H236       -3.6282  -20.1719  -58.1413 H         1 UNK         0.0600 
    237 H237       -2.6557  -22.3527  -58.5576 H         1 UNK         0.0600 
    238 H238       -2.3163  -22.6103  -56.8566 H         1 UNK         0.0600 
    239 H239       -3.9857  -22.6003  -57.4334 H         1 UNK         0.0600 
    240 H240       -1.5652  -20.0350  -55.2963 H         1 UNK         0.3000 
    241 H241        0.8303  -19.3340  -56.8258 H         1 UNK         0.0600 
    242 H242       -1.1550  -15.9310  -56.2493 H         1 UNK         0.3800 
    243 H243       -1.9591  -17.4785  -56.2451 H         1 UNK         0.3800 
    244 H244        1.9931  -19.1333  -54.7352 H         1 UNK         0.0800 
    245 H245        1.1282  -20.6310  -54.7893 H         1 UNK         0.0800 
    246 H246        1.0029  -16.9310  -53.1182 H         1 UNK         0.0800 
    247 H247        2.2678  -18.0521  -52.6757 H         1 UNK         0.0800 
@<TRIPOS>BOND
     1    1    2 1    
     2    1  127 1    
     3    1  128 1    
     4    1  129 1    
     5    2    3 2    
     6    2    4 am   BACKBONE|DICT|INTERRES
     7    4    5 1    
     8    4  130 1    
     9    5    6 1    
    10    5   65 1    
    11    5  131 1    
    12    6    7 1    
    13    6  132 1    
    14    6  133 1    
    15    7    8 1    
    16    8    9 1    
    17    8  134 1    
    18    8  135 1    
    19    9   10 ar   
    20    9   14 ar   
    21   10   11 ar   
    22   10  136 1    
    23   11   12 ar   
    24   11  126 1    
    25   12   13 ar   
    26   12  137 1    
    27   13   14 ar   
    28   13   15 1    
    29   14  138 1    
    30   15   16 1    
    31   15  139 1    
    32   15  140 1    
    33   16   17 1    
    34   17   18 1    
    35   17  141 1    
    36   17  142 1    
    37   18   19 1    
    38   18   67 1    
    39   18  143 1    
    40   19   20 am   BACKBONE|DICT|INTERRES
    41   19  144 1    
    42   20   21 2    
    43   20   22 1    
    44   22   23 1    
    45   22   24 1    
    46   22  145 1    
    47   23  146 1    
    48   23  147 1    
    49   23  148 1    
    50   24   25 am   BACKBONE|DICT|INTERRES
    51   24  149 1    
    52   25   26 2    
    53   25   27 1    
    54   27   28 1    
    55   27   29 1    
    56   27  150 1    
    57   28  151 1    
    58   28  152 1    
    59   28  153 1    
    60   29   30 am   BACKBONE|DICT|INTERRES
    61   29  154 1    
    62   30   31 2    
    63   30   32 1    
    64   32   33 1    
    65   32   34 1    
    66   32  155 1    
    67   33  156 1    
    68   33  157 1    
    69   33  158 1    
    70   34   35 am   BACKBONE|DICT|INTERRES
    71   34  159 1    
    72   35   36 2    
    73   35   37 1    
    74   37   38 1    
    75   37   39 1    
    76   37  160 1    
    77   38  161 1    
    78   38  162 1    
    79   38  163 1    
    80   39   40 am   BACKBONE|DICT|INTERRES
    81   39  164 1    
    82   40   41 2    
    83   40   42 1    
    84   42   43 1    
    85   42   44 1    
    86   42  165 1    
    87   43  166 1    
    88   43  167 1    
    89   43  168 1    
    90   44   45 am   BACKBONE|DICT|INTERRES
    91   44  169 1    
    92   45   46 2    
    93   45   47 1    
    94   47   48 1    
    95   47   49 1    
    96   47  170 1    
    97   48  171 1    
    98   48  172 1    
    99   48  173 1    
   100   49   50 am   BACKBONE|DICT|INTERRES
   101   49  174 1    
   102   50   51 2    
   103   50   52 1    
   104   52   53 1    
   105   52   54 1    
   106   52  175 1    
   107   53  176 1    
   108   53  177 1    
   109   53  178 1    
   110   54   55 am   BACKBONE|DICT|INTERRES
   111   54  179 1    
   112   55   56 2    
   113   55   57 1    
   114   57   58 1    
   115   57   59 1    
   116   57  180 1    
   117   58  181 1    
   118   58  182 1    
   119   58  183 1    
   120   59   60 am   BACKBONE|DICT|INTERRES
   121   59  184 1    
   122   60   61 2    
   123   60   62 1    
   124   62   63 1    
   125   62   64 1    
   126   62  185 1    
   127   63  186 1    
   128   63  187 1    
   129   63  188 1    
   130   64   65 am   BACKBONE|DICT|INTERRES
   131   64  189 1    
   132   65   66 2    
   133   67   68 2    
   134   67   69 am   BACKBONE|DICT|INTERRES
   135   69   70 1    
   136   69  190 1    
   137   70   71 1    
   138   70   72 1    
   139   70  191 1    
   140   71  192 1    
   141   71  193 1    
   142   71  194 1    
   143   72   73 2    
   144   72   74 am   BACKBONE|DICT|INTERRES
   145   74   75 1    
   146   74  195 1    
   147   75   76 1    
   148   75   77 1    
   149   75  196 1    
   150   76  197 1    
   151   76  198 1    
   152   76  199 1    
   153   77   78 2    
   154   77   79 am   BACKBONE|DICT|INTERRES
   155   79   80 1    
   156   79  200 1    
   157   80   81 1    
   158   80   82 1    
   159   80  201 1    
   160   81  202 1    
   161   81  203 1    
   162   81  204 1    
   163   82   83 2    
   164   82   84 am   BACKBONE|DICT|INTERRES
   165   84   85 1    
   166   84  205 1    
   167   85   86 1    
   168   85   87 1    
   169   85  206 1    
   170   86  207 1    
   171   86  208 1    
   172   86  209 1    
   173   87   88 2    
   174   87   89 am   BACKBONE|DICT|INTERRES
   175   89   90 1    
   176   89  210 1    
   177   90   91 1    
   178   90   92 1    
   179   90  211 1    
   180   91  212 1    
   181   91  213 1    
   182   91  214 1    
   183   92   93 2    
   184   92   94 am   BACKBONE|DICT|INTERRES
   185   94   95 1    
   186   94  215 1    
   187   95   96 1    
   188   95   97 1    
   189   95  216 1    
   190   96  217 1    
   191   96  218 1    
   192   96  219 1    
   193   97   98 2    
   194   97   99 am   BACKBONE|DICT|INTERRES
   195   99  100 1    
   196   99  220 1    
   197  100  101 1    
   198  100  102 1    
   199  100  221 1    
   200  101  222 1    
   201  101  223 1    
   202  101  224 1    
   203  102  103 2    
   204  102  104 am   BACKBONE|DICT|INTERRES
   205  104  105 1    
   206  104  225 1    
   207  105  106 1    
   208  105  107 1    
   209  105  226 1    
   210  106  227 1    
   211  106  228 1    
   212  106  229 1    
   213  107  108 2    
   214  107  109 am   BACKBONE|DICT|INTERRES
   215  109  110 1    
   216  109  230 1    
   217  110  111 1    
   218  110  112 1    
   219  110  231 1    
   220  111  232 1    
   221  111  233 1    
   222  111  234 1    
   223  112  113 2    
   224  112  114 am   BACKBONE|DICT|INTERRES
   225  114  115 1    
   226  114  235 1    
   227  115  116 1    
   228  115  117 1    
   229  115  236 1    
   230  116  237 1    
   231  116  238 1    
   232  116  239 1    
   233  117  118 2    
   234  117  119 am   BACKBONE|DICT|INTERRES
   235  119  120 1    
   236  119  240 1    
   237  120  121 1    
   238  120  124 1    
   239  120  241 1    
   240  121  122 am   BACKBONE|DICT|INTERRES
   241  121  123 2    
   242  122  242 1    
   243  122  243 1    
   244  124  125 1    
   245  124  244 1    
   246  124  245 1    
   247  125  126 1    
   248  126  246 1    
   249  126  247 1    
@<TRIPOS>SUBSTRUCTURE
     1 UNK         1 GROUP             0       ****    0 ROOT    
