@<TRIPOS>MOLECULE
3R540
247   249    1
SMALL
USER_CHARGES


@<TRIPOS>ATOM
      1 CA          5.2930   -9.8687  -49.5567 C.3       0 UNK        -0.1800 
      2 C           5.4377  -11.3608  -49.8198 C.2       0 UNK         0.5000 
      3 O           6.4596  -11.9488  -49.4653 O.2       0 UNK        -0.5000 
      4 N           4.4198  -11.9742  -50.4392 N.am      1 UNK        -0.5000 
      5 CA          4.3623  -13.4115  -50.7434 C.3       1 UNK         0.1400 
      6 C6          3.2513  -13.7157  -51.7791 C.3       23 UNK        -0.0398 
      7 S7          3.5789  -15.2255  -52.7495 S.3       23 UNK        -0.2404 
      8 C8          1.9045  -15.6666  -53.3102 C.3       23 UNK        -0.0205 
      9 C9          1.0977  -16.3605  -52.2225 C.ar      23 UNK        -0.0193 
     10 C10         0.1734  -15.6439  -51.4569 C.ar      23 UNK        -0.1150 
     11 C11        -0.5852  -16.2884  -50.4762 C.ar      23 UNK        -0.0193 
     12 C12        -0.4279  -17.6619  -50.2728 C.ar      23 UNK        -0.1150 
     13 C13         0.4900  -18.3900  -51.0351 C.ar      23 UNK        -0.0193 
     14 C14         1.2545  -17.7320  -52.0031 C.ar      23 UNK        -0.1150 
     15 C15         0.6211  -19.8941  -50.8573 C.3       23 UNK        -0.0205 
     16 S16         1.9456  -20.3407  -49.6891 S.3       23 UNK        -0.2404 
     17 C17         1.1304  -20.0989  -48.0736 C.3       23 UNK        -0.0398 
     18 CA          0.5860  -21.4156  -47.4679 C.3       11 UNK         0.1400 
     19 N           0.3309  -21.2911  -46.0312 N.am      11 UNK        -0.5000 
     20 C           0.0074  -22.3070  -45.2187 C.2       10 UNK         0.5000 
     21 O          -0.0547  -23.4803  -45.5829 O.2       10 UNK        -0.5000 
     22 CA         -0.3585  -21.9499  -43.7674 C.3       10 UNK         0.1400 
     23 CB          0.9050  -21.7510  -42.9180 C.3       10 UNK        -0.1800 
     24 N          -1.2162  -20.7666  -43.6780 N.am      10 UNK        -0.5000 
     25 C          -2.4548  -20.6935  -44.1882 C.2       9 UNK         0.5000 
     26 O          -3.0165  -21.6348  -44.7470 O.2       9 UNK        -0.5000 
     27 CA         -3.1744  -19.3362  -44.0970 C.3       9 UNK         0.1400 
     28 CB         -3.7920  -19.1388  -42.7050 C.3       9 UNK        -0.1800 
     29 N          -2.2966  -18.2093  -44.4077 N.am      9 UNK        -0.5000 
     30 C          -1.7154  -18.0003  -45.5975 C.2       8 UNK         0.5000 
     31 O          -1.8778  -18.7198  -46.5836 O.2       8 UNK        -0.5000 
     32 CA         -0.7376  -16.8159  -45.6774 C.3       8 UNK         0.1400 
     33 CB         -1.4916  -15.4774  -45.7087 C.3       8 UNK        -0.1800 
     34 N           0.2123  -16.8084  -44.5655 N.am      8 UNK        -0.5000 
     35 C           1.0947  -17.7813  -44.2992 C.2       7 UNK         0.5000 
     36 O           1.2468  -18.7801  -45.0002 O.2       7 UNK        -0.5000 
     37 CA          1.9101  -17.6352  -43.0035 C.3       7 UNK         0.1400 
     38 CB          3.1399  -16.7408  -43.2244 C.3       7 UNK        -0.1800 
     39 N           1.0991  -17.1066  -41.9058 N.am      7 UNK        -0.5000 
     40 C           0.1033  -17.7802  -41.3110 C.2       6 UNK         0.5000 
     41 O          -0.2133  -18.9326  -41.6036 O.2       6 UNK        -0.5000 
     42 CA         -0.7020  -17.0201  -40.2417 C.3       6 UNK         0.1400 
     43 CB          0.0395  -17.0248  -38.8966 C.3       6 UNK        -0.1800 
     44 N          -0.9854  -15.6399  -40.6366 N.am      6 UNK        -0.5000 
     45 C          -1.7811  -15.2941  -41.6588 C.2       5 UNK         0.5000 
     46 O          -2.4063  -16.1060  -42.3403 O.2       5 UNK        -0.5000 
     47 CA         -1.8486  -13.7937  -42.0080 C.3       5 UNK         0.1400 
     48 CB         -2.9606  -13.1042  -41.2039 C.3       5 UNK        -0.1800 
     49 N          -0.5817  -13.0868  -41.7903 N.am      5 UNK        -0.5000 
     50 C           0.5703  -13.3756  -42.4097 C.2       4 UNK         0.5000 
     51 O           0.6889  -14.2699  -43.2527 O.2       4 UNK        -0.5000 
     52 CA          1.8027  -12.5735  -41.9706 C.3       4 UNK         0.1400 
     53 CB          2.1992  -12.9390  -40.5253 C.3       4 UNK        -0.1800 
     54 N           2.9026  -12.8771  -42.8793 N.am      4 UNK        -0.5000 
     55 C           4.0454  -12.1931  -42.9967 C.2       3 UNK         0.5000 
     56 O           4.2925  -11.1638  -42.3668 O.2       3 UNK        -0.5000 
     57 CA          5.1051  -12.7588  -43.9624 C.3       3 UNK         0.1400 
     58 CB          6.1680  -13.5447  -43.1781 C.3       3 UNK        -0.1800 
     59 N           4.5531  -13.6310  -45.0027 N.am      3 UNK        -0.5000 
     60 C           3.9126  -13.1926  -46.0924 C.2       2 UNK         0.5000 
     61 O           3.6757  -12.0033  -46.3210 O.2       2 UNK        -0.5000 
     62 CA          3.4600  -14.2635  -47.0944 C.3       2 UNK         0.1400 
     63 CB          2.0010  -14.6669  -46.8402 C.3       2 UNK        -0.1800 
     64 N           3.5764  -13.7066  -48.4357 N.am      2 UNK        -0.5000 
     65 C           4.2108  -14.2748  -49.4679 C.2       1 UNK         0.5000 
     66 O           4.6952  -15.4068  -49.4331 O.2       1 UNK        -0.5000 
     67 C          -0.6615  -21.9244  -48.2197 C.2       11 UNK         0.5000 
     68 O          -0.5520  -22.8651  -49.0062 O.2       11 UNK        -0.5000 
     69 N          -1.8278  -21.3272  -47.9347 N.am      12 UNK        -0.5000 
     70 CA         -3.1198  -21.7252  -48.4954 C.3       12 UNK         0.1400 
     71 CB         -4.2025  -20.7453  -48.0254 C.3       12 UNK        -0.1800 
     72 C          -3.5046  -23.1738  -48.1425 C.2       12 UNK         0.5000 
     73 O          -3.9721  -23.9056  -49.0157 O.2       12 UNK        -0.5000 
     74 N          -3.2653  -23.5694  -46.8839 N.am      13 UNK        -0.5000 
     75 CA         -3.4643  -24.9280  -46.3818 C.3       13 UNK         0.1400 
     76 CB         -3.3279  -24.9421  -44.8522 C.3       13 UNK        -0.1800 
     77 C          -2.5084  -25.9467  -47.0273 C.2       13 UNK         0.5000 
     78 O          -2.9554  -27.0263  -47.4135 O.2       13 UNK        -0.5000 
     79 N          -1.2267  -25.5808  -47.1764 N.am      14 UNK        -0.5000 
     80 CA         -0.2028  -26.3858  -47.8513 C.3       14 UNK         0.1400 
     81 CB          1.1773  -25.7418  -47.6513 C.3       14 UNK        -0.1800 
     82 C          -0.4966  -26.5943  -49.3494 C.2       14 UNK         0.5000 
     83 O          -0.2532  -27.6814  -49.8738 O.2       14 UNK        -0.5000 
     84 N          -1.0615  -25.5660  -49.9948 N.am      15 UNK        -0.5000 
     85 CA         -1.5656  -25.6008  -51.3684 C.3       15 UNK         0.1400 
     86 CB         -1.6282  -24.1605  -51.9012 C.3       15 UNK        -0.1800 
     87 C          -2.9416  -26.2899  -51.5028 C.2       15 UNK         0.5000 
     88 O          -3.4507  -26.3926  -52.6197 O.2       15 UNK        -0.5000 
     89 N          -3.5420  -26.7135  -50.3781 N.am      16 UNK        -0.5000 
     90 CA         -4.8532  -27.3619  -50.2435 C.3       16 UNK         0.1400 
     91 CB         -4.8099  -28.7799  -50.8487 C.3       16 UNK        -0.1800 
     92 C          -6.0213  -26.5165  -50.7969 C.2       16 UNK         0.5000 
     93 O          -7.0348  -27.0727  -51.2231 O.2       16 UNK        -0.5000 
     94 N          -5.8375  -25.1872  -50.8104 N.am      17 UNK        -0.5000 
     95 CA         -6.6961  -24.1640  -51.4132 C.3       17 UNK         0.1400 
     96 CB         -8.0143  -24.0340  -50.6233 C.3       17 UNK        -0.1800 
     97 C          -6.9273  -24.3357  -52.9345 C.2       17 UNK         0.5000 
     98 O          -7.8749  -23.7570  -53.4682 O.2       17 UNK        -0.5000 
     99 N          -6.0659  -25.1057  -53.6197 N.am      18 UNK        -0.5000 
    100 CA        -6.1439  -25.3464  -55.0644 C.3       18 UNK         0.1400 
    101 CB        -5.3009  -26.5800  -55.4208 C.3       18 UNK        -0.1800 
    102 C         -5.6933  -24.1252  -55.8870 C.2       18 UNK         0.5000 
    103 O         -6.1876  -23.9136  -56.9951 O.2       18 UNK        -0.5000 
    104 N         -4.7823  -23.3361  -55.3126 N.am      19 UNK        -0.5000 
    105 CA        -4.3042  -22.0527  -55.8014 C.3       19 UNK         0.1400 
    106 CB        -3.1679  -22.2622  -56.8166 C.3       19 UNK        -0.1800 
    107 C         -3.8225  -21.2636  -54.5781 C.2       19 UNK         0.5000 
    108 O         -3.3959  -21.8797  -53.5979 O.2       19 UNK        -0.5000 
    109 N         -3.9034  -19.9277  -54.6564 N.am      20 UNK        -0.5000 
    110 CA        -3.5089  -18.9672  -53.6162 C.3       20 UNK         0.1400 
    111 CB        -1.9744  -18.9035  -53.5010 C.3       20 UNK        -0.1800 
    112 C         -4.2069  -19.2318  -52.2637 C.2       20 UNK         0.5000 
    113 O         -3.5568  -19.3069  -51.2192 O.2       20 UNK        -0.5000 
    114 N         -5.5363  -19.3931  -52.3207 N.am      21 UNK        -0.5000 
    115 CA        -6.4186  -19.7029  -51.1935 C.3       21 UNK         0.1400 
    116 CB        -7.7224  -20.3053  -51.7464 C.3       21 UNK        -0.1800 
    117 C         -6.6661  -18.4819  -50.2784 C.2       21 UNK         0.5000 
    118 O         -7.8119  -18.0748  -50.0767 O.2       21 UNK        -0.5000 
    119 N         -5.5758  -17.9017  -49.7711 N.am      22 UNK        -0.5000 
    120 CA        -5.5425  -16.7535  -48.8578 C.3       22 UNK         0.1400 
    121 C         -6.2136  -17.0424  -47.4850 C.2       22 UNK         0.5000 
    122 N         -6.8795  -16.0579  -46.8967 N.am      22 UNK        -0.7600 
    123 O         -6.0997  -18.1310  -46.9273 O.2       22 UNK        -0.5000 
    124 C124       -4.0919  -16.2563  -48.6475 C.3       23 UNK        -0.0398 
    125 S125       -3.2824  -15.7365  -50.1989 S.3       23 UNK        -0.2404 
    126 C126       -1.5697  -15.5029  -49.6290 C.3       23 UNK        -0.0205 
    127 H127        6.1160   -9.3238  -50.0191 H         1 UNK         0.0600 
    128 H128        5.3133   -9.6750  -48.4841 H         1 UNK         0.0600 
    129 H129        4.3579   -9.4748  -49.9556 H         1 UNK         0.0600 
    130 H130        3.6125  -11.4315  -50.7123 H         1 UNK         0.3000 
    131 H131        5.3237  -13.6717  -51.1923 H         1 UNK         0.0600 
    132 H132        2.2755  -13.7737  -51.2962 H         1 UNK         0.0800 
    133 H133        3.1780  -12.9002  -52.5001 H         1 UNK         0.0800 
    134 H134        1.9887  -16.3291  -54.1730 H         1 UNK         0.0800 
    135 H135        1.3873  -14.7740  -53.6658 H         1 UNK         0.0800 
    136 H136        0.0399  -14.5850  -51.6265 H         1 UNK         0.1150 
    137 H137       -1.0398  -18.1642  -49.5362 H         1 UNK         0.1150 
    138 H138        1.9616  -18.2918  -52.5992 H         1 UNK         0.1150 
    139 H139       -0.3321  -20.3198  -50.5420 H         1 UNK         0.0800 
    140 H140        0.8425  -20.3539  -51.8215 H         1 UNK         0.0800 
    141 H141        0.3539  -19.3375  -48.1364 H         1 UNK         0.0800 
    142 H142        1.8915  -19.6837  -47.4123 H         1 UNK         0.0800 
    143 H143        1.3611  -22.1776  -47.5749 H         1 UNK         0.0600 
    144 H144        0.4116  -20.3573  -45.6370 H         1 UNK         0.3000 
    145 H145       -0.9140  -22.7924  -43.3504 H         1 UNK         0.0600 
    146 H146        0.6532  -21.5762  -41.8719 H         1 UNK         0.0600 
    147 H147        1.5429  -22.6349  -42.9552 H         1 UNK         0.0600 
    148 H148        1.4966  -20.9048  -43.2665 H         1 UNK         0.0600 
    149 H149       -0.8392  -19.9668  -43.1790 H         1 UNK         0.3000 
    150 H150       -3.9833  -19.3382  -44.8308 H         1 UNK         0.0600 
    151 H151       -4.4617  -19.9623  -42.4539 H         1 UNK         0.0600 
    152 H152       -4.3758  -18.2192  -42.6611 H         1 UNK         0.0600 
    153 H153       -3.0278  -19.0861  -41.9288 H         1 UNK         0.0600 
    154 H154       -2.1341  -17.5427  -43.6586 H         1 UNK         0.3000 
    155 H155       -0.1699  -16.9155  -46.6046 H         1 UNK         0.0600 
    156 H156       -2.0404  -15.3029  -44.7861 H         1 UNK         0.0600 
    157 H157       -2.2217  -15.4502  -46.5142 H         1 UNK         0.0600 
    158 H158       -0.8103  -14.6395  -45.8534 H         1 UNK         0.0600 
    159 H159        0.1980  -15.9928  -43.9602 H         1 UNK         0.3000 
    160 H160        2.2631  -18.6276  -42.7161 H         1 UNK         0.0600 
    161 H161        2.8603  -15.7355  -43.5341 H         1 UNK         0.0600 
    162 H162        3.7845  -17.1542  -44.0011 H         1 UNK         0.0600 
    163 H163        3.7373  -16.6584  -42.3162 H         1 UNK         0.0600 
    164 H164        1.2579  -16.1454  -41.6452 H         1 UNK         0.3000 
    165 H165       -1.6539  -17.5391  -40.1095 H         1 UNK         0.0600 
    166 H166       -0.5589  -16.5556  -38.1155 H         1 UNK         0.0600 
    167 H167        0.2527  -18.0444  -38.5729 H         1 UNK         0.0600 
    168 H168        0.9903  -16.4934  -38.9562 H         1 UNK         0.0600 
    169 H169       -0.5156  -14.9095  -40.1230 H         1 UNK         0.3000 
    170 H170       -2.0956  -13.7098  -43.0675 H         1 UNK         0.0600 
    171 H171       -3.9207  -13.5967  -41.3645 H         1 UNK         0.0600 
    172 H172       -2.7562  -13.1245  -40.1327 H         1 UNK         0.0600 
    173 H173       -3.0773  -12.0628  -41.5045 H         1 UNK         0.0600 
    174 H174       -0.5970  -12.3414  -41.1091 H         1 UNK         0.3000 
    175 H175        1.5639  -11.5103  -42.0371 H         1 UNK         0.0600 
    176 H176        2.4490  -13.9969  -40.4338 H         1 UNK         0.0600 
    177 H177        3.0631  -12.3648  -40.1908 H         1 UNK         0.0600 
    178 H178        1.3909  -12.7292  -39.8241 H         1 UNK         0.0600 
    179 H179        2.7318  -13.6743  -43.4776 H         1 UNK         0.3000 
    180 H180        5.5969  -11.9104  -44.4435 H         1 UNK         0.0600 
    181 H181        5.7392  -14.4158  -42.6808 H         1 UNK         0.0600 
    182 H182        6.6275  -12.9216  -42.4096 H         1 UNK         0.0600 
    183 H183        6.9674  -13.8905  -43.8337 H         1 UNK         0.0600 
    184 H184        4.7217  -14.6202  -44.8928 H         1 UNK         0.3000 
    185 H185        4.0996  -15.1415  -46.9820 H         1 UNK         0.0600 
    186 H186        1.8762  -15.0428  -45.8256 H         1 UNK         0.0600 
    187 H187        1.3217  -13.8225  -46.9625 H         1 UNK         0.0600 
    188 H188        1.6851  -15.4540  -47.5252 H         1 UNK         0.0600 
    189 H189        3.2903  -12.7400  -48.5167 H         1 UNK         0.3000 
    190 H190       -1.8359  -20.5359  -47.2969 H         1 UNK         0.3000 
    191 H191       -3.0453  -21.6555  -49.5829 H         1 UNK         0.0600 
    192 H192       -4.2938  -20.7308  -46.9397 H         1 UNK         0.0600 
    193 H193       -5.1790  -21.0121  -48.4287 H         1 UNK         0.0600 
    194 H194       -3.9764  -19.7301  -48.3498 H         1 UNK         0.0600 
    195 H195       -2.9364  -22.8815  -46.2116 H         1 UNK         0.3000 
    196 H196       -4.4843  -25.2273  -46.6320 H         1 UNK         0.0600 
    197 H197       -3.4926  -25.9440  -44.4540 H         1 UNK         0.0600 
    198 H198       -4.0597  -24.2822  -44.3860 H         1 UNK         0.0600 
    199 H199       -2.3369  -24.6197  -44.5322 H         1 UNK         0.0600 
    200 H200       -0.9198  -24.6937  -46.7855 H         1 UNK         0.3000 
    201 H201       -0.1891  -27.3696  -47.3781 H         1 UNK         0.0600 
    202 H202        1.4276  -25.6678  -46.5930 H         1 UNK         0.0600 
    203 H203        1.2193  -24.7384  -48.0756 H         1 UNK         0.0600 
    204 H204        1.9583  -26.3341  -48.1296 H         1 UNK         0.0600 
    205 H205       -1.1558  -24.6810  -49.5040 H         1 UNK         0.3000 
    206 H206       -0.8608  -26.1610  -51.9857 H         1 UNK         0.0600 
    207 H207       -0.6570  -23.6699  -51.8340 H         1 UNK         0.0600 
    208 H208       -1.9275  -24.1420  -52.9497 H         1 UNK         0.0600 
    209 H209       -2.3455  -23.5557  -51.3447 H         1 UNK         0.0600 
    210 H210       -3.0569  -26.5613  -49.5025 H         1 UNK         0.3000 
    211 H211       -5.0363  -27.4629  -49.1732 H         1 UNK         0.0600 
    212 H212       -4.6939  -28.7530  -51.9327 H         1 UNK         0.0600 
    213 H213       -5.7267  -29.3288  -50.6308 H         1 UNK         0.0600 
    214 H214       -3.9826  -29.3580  -50.4368 H         1 UNK         0.0600 
    215 H215       -4.9941  -24.8317  -50.3657 H         1 UNK         0.3000 
    216 H216       -6.1542  -23.2236  -51.3027 H         1 UNK         0.0600 
    217 H217       -8.6059  -23.1890  -50.9765 H         1 UNK         0.0600 
    218 H218       -7.8221  -23.8711  -49.5628 H         1 UNK         0.0600 
    219 H219       -8.6328  -24.9266  -50.7197 H         1 UNK         0.0600 
    220 H220       -5.2991  -25.5519  -53.1271 H         1 UNK         0.3000 
    221 H221       -7.1831  -25.5599  -55.3234 H         1 UNK         0.0600 
    222 H222       -4.2413  -26.4146  -55.2223 H         1 UNK         0.0600 
    223 H223       -5.6166  -27.4531  -54.8493 H         1 UNK         0.0600 
    224 H224       -5.4010  -26.8276  -56.4782 H         1 UNK         0.0600 
    225 H225       -4.4455  -23.5658  -54.3854 H         1 UNK         0.3000 
    226 H226       -5.1289  -21.5126  -56.2711 H         1 UNK         0.0600 
    227 H227       -3.5109  -22.8267  -57.6838 H         1 UNK         0.0600 
    228 H228       -2.7876  -21.3069  -57.1801 H         1 UNK         0.0600 
    229 H229       -2.3307  -22.8036  -56.3742 H         1 UNK         0.0600 
    230 H230       -4.2744  -19.5200  -55.5034 H         1 UNK         0.3000 
    231 H231       -3.8517  -17.9870  -53.9508 H         1 UNK         0.0600 
    232 H232       -1.5089  -18.7263  -54.4702 H         1 UNK         0.0600 
    233 H233       -1.5589  -19.8244  -53.0905 H         1 UNK         0.0600 
    234 H234       -1.6777  -18.0843  -52.8466 H         1 UNK         0.0600 
    235 H235       -5.9862  -19.2973  -53.2191 H         1 UNK         0.3000 
    236 H236       -5.9363  -20.4703  -50.5862 H         1 UNK         0.0600 
    237 H237       -8.3844  -20.6153  -50.9369 H         1 UNK         0.0600 
    238 H238       -8.2679  -19.5894  -52.3624 H         1 UNK         0.0600 
    239 H239       -7.5230  -21.1857  -52.3568 H         1 UNK         0.0600 
    240 H240       -4.6750  -18.2918  -50.0330 H         1 UNK         0.3000 
    241 H241       -6.1073  -15.9533  -49.3401 H         1 UNK         0.0600 
    242 H242       -7.3074  -16.2281  -46.0000 H         1 UNK         0.3800 
    243 H243       -6.9855  -15.1536  -47.3300 H         1 UNK         0.3800 
    244 H244       -4.0809  -15.4028  -47.9677 H         1 UNK         0.0800 
    245 H245       -3.4920  -17.0402  -48.1810 H         1 UNK         0.0800 
    246 H246       -1.4594  -15.8222  -48.5948 H         1 UNK         0.0800 
    247 H247       -1.3308  -14.4385  -49.6450 H         1 UNK         0.0800 
@<TRIPOS>BOND
     1    1    2 1    
     2    1  127 1    
     3    1  128 1    
     4    1  129 1    
     5    2    3 2    
     6    2    4 am   BACKBONE|DICT|INTERRES
     7    4    5 1    
     8    4  130 1    
     9    5    6 1    
    10    5   65 1    
    11    5  131 1    
    12    6    7 1    
    13    6  132 1    
    14    6  133 1    
    15    7    8 1    
    16    8    9 1    
    17    8  134 1    
    18    8  135 1    
    19    9   10 ar   
    20    9   14 ar   
    21   10   11 ar   
    22   10  136 1    
    23   11   12 ar   
    24   11  126 1    
    25   12   13 ar   
    26   12  137 1    
    27   13   14 ar   
    28   13   15 1    
    29   14  138 1    
    30   15   16 1    
    31   15  139 1    
    32   15  140 1    
    33   16   17 1    
    34   17   18 1    
    35   17  141 1    
    36   17  142 1    
    37   18   19 1    
    38   18   67 1    
    39   18  143 1    
    40   19   20 am   BACKBONE|DICT|INTERRES
    41   19  144 1    
    42   20   21 2    
    43   20   22 1    
    44   22   23 1    
    45   22   24 1    
    46   22  145 1    
    47   23  146 1    
    48   23  147 1    
    49   23  148 1    
    50   24   25 am   BACKBONE|DICT|INTERRES
    51   24  149 1    
    52   25   26 2    
    53   25   27 1    
    54   27   28 1    
    55   27   29 1    
    56   27  150 1    
    57   28  151 1    
    58   28  152 1    
    59   28  153 1    
    60   29   30 am   BACKBONE|DICT|INTERRES
    61   29  154 1    
    62   30   31 2    
    63   30   32 1    
    64   32   33 1    
    65   32   34 1    
    66   32  155 1    
    67   33  156 1    
    68   33  157 1    
    69   33  158 1    
    70   34   35 am   BACKBONE|DICT|INTERRES
    71   34  159 1    
    72   35   36 2    
    73   35   37 1    
    74   37   38 1    
    75   37   39 1    
    76   37  160 1    
    77   38  161 1    
    78   38  162 1    
    79   38  163 1    
    80   39   40 am   BACKBONE|DICT|INTERRES
    81   39  164 1    
    82   40   41 2    
    83   40   42 1    
    84   42   43 1    
    85   42   44 1    
    86   42  165 1    
    87   43  166 1    
    88   43  167 1    
    89   43  168 1    
    90   44   45 am   BACKBONE|DICT|INTERRES
    91   44  169 1    
    92   45   46 2    
    93   45   47 1    
    94   47   48 1    
    95   47   49 1    
    96   47  170 1    
    97   48  171 1    
    98   48  172 1    
    99   48  173 1    
   100   49   50 am   BACKBONE|DICT|INTERRES
   101   49  174 1    
   102   50   51 2    
   103   50   52 1    
   104   52   53 1    
   105   52   54 1    
   106   52  175 1    
   107   53  176 1    
   108   53  177 1    
   109   53  178 1    
   110   54   55 am   BACKBONE|DICT|INTERRES
   111   54  179 1    
   112   55   56 2    
   113   55   57 1    
   114   57   58 1    
   115   57   59 1    
   116   57  180 1    
   117   58  181 1    
   118   58  182 1    
   119   58  183 1    
   120   59   60 am   BACKBONE|DICT|INTERRES
   121   59  184 1    
   122   60   61 2    
   123   60   62 1    
   124   62   63 1    
   125   62   64 1    
   126   62  185 1    
   127   63  186 1    
   128   63  187 1    
   129   63  188 1    
   130   64   65 am   BACKBONE|DICT|INTERRES
   131   64  189 1    
   132   65   66 2    
   133   67   68 2    
   134   67   69 am   BACKBONE|DICT|INTERRES
   135   69   70 1    
   136   69  190 1    
   137   70   71 1    
   138   70   72 1    
   139   70  191 1    
   140   71  192 1    
   141   71  193 1    
   142   71  194 1    
   143   72   73 2    
   144   72   74 am   BACKBONE|DICT|INTERRES
   145   74   75 1    
   146   74  195 1    
   147   75   76 1    
   148   75   77 1    
   149   75  196 1    
   150   76  197 1    
   151   76  198 1    
   152   76  199 1    
   153   77   78 2    
   154   77   79 am   BACKBONE|DICT|INTERRES
   155   79   80 1    
   156   79  200 1    
   157   80   81 1    
   158   80   82 1    
   159   80  201 1    
   160   81  202 1    
   161   81  203 1    
   162   81  204 1    
   163   82   83 2    
   164   82   84 am   BACKBONE|DICT|INTERRES
   165   84   85 1    
   166   84  205 1    
   167   85   86 1    
   168   85   87 1    
   169   85  206 1    
   170   86  207 1    
   171   86  208 1    
   172   86  209 1    
   173   87   88 2    
   174   87   89 am   BACKBONE|DICT|INTERRES
   175   89   90 1    
   176   89  210 1    
   177   90   91 1    
   178   90   92 1    
   179   90  211 1    
   180   91  212 1    
   181   91  213 1    
   182   91  214 1    
   183   92   93 2    
   184   92   94 am   BACKBONE|DICT|INTERRES
   185   94   95 1    
   186   94  215 1    
   187   95   96 1    
   188   95   97 1    
   189   95  216 1    
   190   96  217 1    
   191   96  218 1    
   192   96  219 1    
   193   97   98 2    
   194   97   99 am   BACKBONE|DICT|INTERRES
   195   99  100 1    
   196   99  220 1    
   197  100  101 1    
   198  100  102 1    
   199  100  221 1    
   200  101  222 1    
   201  101  223 1    
   202  101  224 1    
   203  102  103 2    
   204  102  104 am   BACKBONE|DICT|INTERRES
   205  104  105 1    
   206  104  225 1    
   207  105  106 1    
   208  105  107 1    
   209  105  226 1    
   210  106  227 1    
   211  106  228 1    
   212  106  229 1    
   213  107  108 2    
   214  107  109 am   BACKBONE|DICT|INTERRES
   215  109  110 1    
   216  109  230 1    
   217  110  111 1    
   218  110  112 1    
   219  110  231 1    
   220  111  232 1    
   221  111  233 1    
   222  111  234 1    
   223  112  113 2    
   224  112  114 am   BACKBONE|DICT|INTERRES
   225  114  115 1    
   226  114  235 1    
   227  115  116 1    
   228  115  117 1    
   229  115  236 1    
   230  116  237 1    
   231  116  238 1    
   232  116  239 1    
   233  117  118 2    
   234  117  119 am   BACKBONE|DICT|INTERRES
   235  119  120 1    
   236  119  240 1    
   237  120  121 1    
   238  120  124 1    
   239  120  241 1    
   240  121  122 am   BACKBONE|DICT|INTERRES
   241  121  123 2    
   242  122  242 1    
   243  122  243 1    
   244  124  125 1    
   245  124  244 1    
   246  124  245 1    
   247  125  126 1    
   248  126  246 1    
   249  126  247 1    
@<TRIPOS>SUBSTRUCTURE
     1 UNK         1 GROUP             0       ****    0 ROOT    
