@<TRIPOS>MOLECULE
3R540
247   249    1
SMALL
USER_CHARGES


@<TRIPOS>ATOM
      1 CA          5.4175  -13.8952  -47.0032 C.3       0 UNK        -0.1800 
      2 C           4.2600  -13.0610  -47.5330 C.2       0 UNK         0.5000 
      3 O           4.4847  -12.1307  -48.3068 O.2       0 UNK        -0.5000 
      4 N           3.0320  -13.3909  -47.1111 N.am      1 UNK        -0.5000 
      5 CA          1.7809  -12.6774  -47.4056 C.3       1 UNK         0.1400 
      6 C6          1.3923  -12.6609  -48.9096 C.3       23 UNK        -0.0398 
      7 S7          0.9509  -14.3199  -49.5305 S.3       23 UNK        -0.2404 
      8 C8          2.4540  -14.8071  -50.4262 C.3       23 UNK        -0.0205 
      9 C9          2.2148  -16.0746  -51.2322 C.ar      23 UNK        -0.0193 
     10 C10         1.6008  -15.9958  -52.4855 C.ar      23 UNK        -0.1150 
     11 C11         1.3887  -17.1472  -53.2485 C.ar      23 UNK        -0.0193 
     12 C12         1.7919  -18.3869  -52.7427 C.ar      23 UNK        -0.1150 
     13 C13         2.4012  -18.4841  -51.4894 C.ar      23 UNK        -0.0193 
     14 C14         2.6150  -17.3208  -50.7394 C.ar      23 UNK        -0.1150 
     15 C15         2.8687  -19.8443  -50.9842 C.3       23 UNK        -0.0205 
     16 S16         2.3146  -20.2104  -49.2902 S.3       23 UNK        -0.2404 
     17 C17         0.5118  -20.4200  -49.4912 C.3       23 UNK        -0.0398 
     18 CA         -0.0004  -21.6888  -48.7677 C.3       11 UNK         0.1400 
     19 N           0.2758  -21.6701  -47.3270 N.am      11 UNK        -0.5000 
     20 C           0.1187  -22.7144  -46.5026 C.2       10 UNK         0.5000 
     21 O          -0.2604  -23.8247  -46.8719 O.2       10 UNK        -0.5000 
     22 CA          0.3855  -22.4664  -45.0091 C.3       10 UNK         0.1400 
     23 CB          1.8873  -22.5445  -44.6952 C.3       10 UNK        -0.1800 
     24 N          -0.1490  -21.1779  -44.5697 N.am      10 UNK        -0.5000 
     25 C          -1.4527  -20.9251  -44.3906 C.2       9 UNK         0.5000 
     26 O          -2.3385  -21.7646  -44.5540 O.2       9 UNK        -0.5000 
     27 CA         -1.8342  -19.4814  -44.0066 C.3       9 UNK         0.1400 
     28 CB         -1.6721  -19.2573  -42.4962 C.3       9 UNK        -0.1800 
     29 N          -1.0625  -18.4701  -44.7309 N.am      9 UNK        -0.5000 
     30 C          -1.0958  -18.3135  -46.0619 C.2       8 UNK         0.5000 
     31 O          -1.7947  -18.9899  -46.8136 O.2       8 UNK        -0.5000 
     32 CA         -0.1625  -17.2540  -46.6664 C.3       8 UNK         0.1400 
     33 CB         -0.7949  -15.8639  -46.5211 C.3       8 UNK        -0.1800 
     34 N           1.1870  -17.2388  -46.0984 N.am      8 UNK        -0.5000 
     35 C           2.0115  -18.2839  -45.9439 C.2       7 UNK         0.5000 
     36 O           1.6936  -19.4459  -46.1856 O.2       7 UNK        -0.5000 
     37 CA          3.4180  -17.9978  -45.3836 C.3       7 UNK         0.1400 
     38 CB          4.3336  -17.3945  -46.4666 C.3       7 UNK        -0.1800 
     39 N           3.3951  -17.1941  -44.1535 N.am      7 UNK        -0.5000 
     40 C           3.0178  -15.9185  -44.0104 C.2       6 UNK         0.5000 
     41 O           2.7611  -15.1640  -44.9539 O.2       6 UNK        -0.5000 
     42 CA          2.8204  -15.4222  -42.5683 C.3       6 UNK         0.1400 
     43 CB          4.0154  -14.5696  -42.1172 C.3       6 UNK        -0.1800 
     44 N           1.5894  -14.6381  -42.4753 N.am      6 UNK        -0.5000 
     45 C           0.3605  -15.1278  -42.6969 C.2       5 UNK         0.5000 
     46 O           0.1263  -16.3285  -42.8642 O.2       5 UNK        -0.5000 
     47 CA         -0.7813  -14.0967  -42.8063 C.3       5 UNK         0.1400 
     48 CB         -2.1842  -14.7400  -42.7403 C.3       5 UNK        -0.1800 
     49 N          -0.6665  -12.9803  -41.8609 N.am      5 UNK        -0.5000 
     50 C          -0.7472  -13.0341  -40.5232 C.2       4 UNK         0.5000 
     51 O          -0.8864  -14.0749  -39.8781 O.2       4 UNK        -0.5000 
     52 CA         -0.6780  -11.6692  -39.8045 C.3       4 UNK         0.1400 
     53 CB         -0.7247  -11.7811  -38.2650 C.3       4 UNK        -0.1800 
     54 N           0.4644  -10.8598  -40.2470 N.am      4 UNK        -0.5000 
     55 C           1.7644  -11.1491  -40.0875 C.2       3 UNK         0.5000 
     56 O           2.1825  -12.1496  -39.5020 O.2       3 UNK        -0.5000 
     57 CA          2.7548  -10.1444  -40.7183 C.3       3 UNK         0.1400 
     58 CB          4.2250  -10.5949  -40.5824 C.3       3 UNK        -0.1800 
     59 N           2.4617   -9.8242  -42.1242 N.am      3 UNK        -0.5000 
     60 C           2.3342  -10.7031  -43.1286 C.2       2 UNK         0.5000 
     61 O           2.2931  -11.9250  -42.9646 O.2       2 UNK        -0.5000 
     62 CA          2.2497  -10.1343  -44.5561 C.3       2 UNK         0.1400 
     63 CB          3.4712   -9.2589  -44.8996 C.3       2 UNK        -0.1800 
     64 N           2.1843  -11.2701  -45.4668 N.am      2 UNK        -0.5000 
     65 C           1.7711  -11.2847  -46.7370 C.2       1 UNK         0.5000 
     66 O           1.3980  -10.2832  -47.3506 O.2       1 UNK        -0.5000 
     67 C          -1.4952  -21.9327  -49.0602 C.2       11 UNK         0.5000 
     68 O          -1.8094  -22.6442  -50.0141 O.2       11 UNK        -0.5000 
     69 N          -2.3848  -21.3759  -48.2255 N.am      12 UNK        -0.5000 
     70 CA         -3.8209  -21.6454  -48.2369 C.3       12 UNK         0.1400 
     71 CB         -4.5568  -20.6371  -47.3429 C.3       12 UNK        -0.1800 
     72 C          -4.1372  -23.0880  -47.8147 C.2       12 UNK         0.5000 
     73 O          -4.8724  -23.7732  -48.5243 O.2       12 UNK        -0.5000 
     74 N          -3.5536  -23.5429  -46.6951 N.am      13 UNK        -0.5000 
     75 CA         -3.7211  -24.8999  -46.1624 C.3       13 UNK         0.1400 
     76 CB         -3.0024  -25.0223  -44.8114 C.3       13 UNK        -0.1800 
     77 C          -3.2505  -26.0012  -47.1312 C.2       13 UNK         0.5000 
     78 O          -3.9123  -27.0334  -47.2433 O.2       13 UNK        -0.5000 
     79 N          -2.1624  -25.7354  -47.8664 N.am      14 UNK        -0.5000 
     80 CA         -1.6352  -26.5819  -48.9403 C.3       14 UNK         0.1400 
     81 CB         -0.2838  -26.0152  -49.4010 C.3       14 UNK        -0.1800 
     82 C          -2.5943  -26.7463  -50.1396 C.2       14 UNK         0.5000 
     83 O          -2.4832  -27.7332  -50.8673 O.2       14 UNK        -0.5000 
     84 N          -3.5290  -25.8021  -50.3061 N.am      15 UNK        -0.5000 
     85 CA         -4.6060  -25.8240  -51.2957 C.3       15 UNK         0.1400 
     86 CB         -4.6077  -24.4759  -52.0325 C.3       15 UNK        -0.1800 
     87 C          -5.9737  -26.1166  -50.6415 C.2       15 UNK         0.5000 
     88 O          -7.0088  -25.8248  -51.2433 O.2       15 UNK        -0.5000 
     89 N          -5.9655  -26.6556  -49.4104 N.am      16 UNK        -0.5000 
     90 CA         -7.1221  -27.0319  -48.5855 C.3       16 UNK         0.1400 
     91 CB         -7.8490  -28.2408  -49.2102 C.3       16 UNK        -0.1800 
     92 C          -8.0843  -25.8633  -48.2731 C.2       16 UNK         0.5000 
     93 O          -9.2693  -26.0950  -48.0293 O.2       16 UNK        -0.5000 
     94 N          -7.5615  -24.6284  -48.3135 N.am      17 UNK        -0.5000 
     95 CA         -8.2569  -23.3436  -48.1862 C.3       17 UNK         0.1400 
     96 CB         -8.8698  -23.1840  -46.7801 C.3       17 UNK        -0.1800 
     97 C          -9.2722  -23.0508  -49.3151 C.2       17 UNK         0.5000 
     98 O         -10.0464  -22.0998  -49.1959 O.2       17 UNK        -0.5000 
     99 N          -9.2453  -23.8373  -50.4019 N.am      18 UNK        -0.5000 
    100 CA       -10.0738  -23.6342  -51.5937 C.3       18 UNK         0.1400 
    101 CB       -10.2287  -24.9748  -52.3278 C.3       18 UNK        -0.1800 
    102 C         -9.4814  -22.5672  -52.5345 C.2       18 UNK         0.5000 
    103 O        -10.2121  -21.9815  -53.3344 O.2       18 UNK        -0.5000 
    104 N         -8.1723  -22.3341  -52.4089 N.am      19 UNK        -0.5000 
    105 CA        -7.3758  -21.3371  -53.1102 C.3       19 UNK         0.1400 
    106 CB        -7.1033  -21.7926  -54.5612 C.3       19 UNK        -0.1800 
    107 C         -6.1016  -21.1207  -52.2738 C.2       19 UNK         0.5000 
    108 O         -6.1588  -21.2356  -51.0465 O.2       19 UNK        -0.5000 
    109 N         -4.9718  -20.8611  -52.9366 N.am      20 UNK        -0.5000 
    110 CA        -3.6372  -20.8772  -52.3525 C.3       20 UNK         0.1400 
    111 CB        -3.1830  -19.4470  -52.0217 C.3       20 UNK        -0.1800 
    112 C         -2.6905  -21.5512  -53.3507 C.2       20 UNK         0.5000 
    113 O         -2.9167  -21.4645  -54.5616 O.2       20 UNK        -0.5000 
    114 N         -1.6532  -22.2138  -52.8277 N.am      21 UNK        -0.5000 
    115 CA        -0.6265  -22.9510  -53.5674 C.3       21 UNK         0.1400 
    116 CB         0.0817  -23.9056  -52.5902 C.3       21 UNK        -0.1800 
    117 C          0.3574  -22.0309  -54.3261 C.2       21 UNK         0.5000 
    118 O          1.5661  -22.0771  -54.0914 O.2       21 UNK        -0.5000 
    119 N         -0.1895  -21.2034  -55.2201 N.am      22 UNK        -0.5000 
    120 CA         0.5336  -20.2622  -56.0886 C.3       22 UNK         0.1400 
    121 C          1.0391  -20.8879  -57.4216 C.2       22 UNK         0.5000 
    122 N          0.7180  -22.1359  -57.7410 N.am      22 UNK        -0.7600 
    123 O          1.7494  -20.2311  -58.1780 O.2       22 UNK        -0.5000 
    124 C124       -0.3059  -18.9854  -56.3545 C.3       23 UNK        -0.0398 
    125 S125       -0.7127  -18.0801  -54.8212 S.3       23 UNK        -0.2404 
    126 C126        0.7748  -17.0426  -54.6377 C.3       23 UNK        -0.0205 
    127 H127        5.7301  -14.6226  -47.7523 H         1 UNK         0.0600 
    128 H128        6.2686  -13.2556  -46.7698 H         1 UNK         0.0600 
    129 H129        5.1444  -14.4310  -46.0942 H         1 UNK         0.0600 
    130 H130        2.9427  -14.1396  -46.4259 H         1 UNK         0.3000 
    131 H131        1.0020  -13.2265  -46.8779 H         1 UNK         0.0600 
    132 H132        0.5113  -12.0363  -49.0653 H         1 UNK         0.0800 
    133 H133        2.1786  -12.2200  -49.5227 H         1 UNK         0.0800 
    134 H134        2.7634  -14.0016  -51.0938 H         1 UNK         0.0800 
    135 H135        3.2684  -14.9538  -49.7156 H         1 UNK         0.0800 
    136 H136        1.2978  -15.0315  -52.8692 H         1 UNK         0.1150 
    137 H137        1.6395  -19.2787  -53.3331 H         1 UNK         0.1150 
    138 H138        3.0953  -17.3864  -49.7731 H         1 UNK         0.1150 
    139 H139        2.5370  -20.6462  -51.6463 H         1 UNK         0.0800 
    140 H140        3.9590  -19.8622  -51.0041 H         1 UNK         0.0800 
    141 H141        0.2765  -20.4680  -50.5562 H         1 UNK         0.0800 
    142 H142        0.0159  -19.5277  -49.1063 H         1 UNK         0.0800 
    143 H143        0.5389  -22.5432  -49.1826 H         1 UNK         0.0600 
    144 H144        0.6543  -20.8049  -46.9479 H         1 UNK         0.3000 
    145 H145       -0.1142  -23.2556  -44.4437 H         1 UNK         0.0600 
    146 H146        2.0753  -22.4042  -43.6307 H         1 UNK         0.0600 
    147 H147        2.2897  -23.5201  -44.9706 H         1 UNK         0.0600 
    148 H148        2.4583  -21.7918  -45.2390 H         1 UNK         0.0600 
    149 H149        0.5062  -20.4098  -44.5199 H         1 UNK         0.3000 
    150 H150       -2.8871  -19.3411  -44.2599 H         1 UNK         0.0600 
    151 H151       -2.2469  -19.9893  -41.9275 H         1 UNK         0.0600 
    152 H152       -2.0262  -18.2678  -42.2056 H         1 UNK         0.0600 
    153 H153       -0.6298  -19.3420  -42.1863 H         1 UNK         0.0600 
    154 H154       -0.4796  -17.8515  -44.1762 H         1 UNK         0.3000 
    155 H155       -0.0583  -17.4720  -47.7308 H         1 UNK         0.0600 
    156 H156       -0.2087  -15.1115  -47.0397 H         1 UNK         0.0600 
    157 H157       -0.8729  -15.5645  -45.4774 H         1 UNK         0.0600 
    158 H158       -1.7985  -15.8414  -46.9480 H         1 UNK         0.0600 
    159 H159        1.5528  -16.3333  -45.8222 H         1 UNK         0.3000 
    160 H160        3.8458  -18.9600  -45.0974 H         1 UNK         0.0600 
    161 H161        4.4708  -18.0996  -47.2875 H         1 UNK         0.0600 
    162 H162        5.3208  -17.1616  -46.0677 H         1 UNK         0.0600 
    163 H163        3.9182  -16.4837  -46.8973 H         1 UNK         0.0600 
    164 H164        3.5639  -17.7238  -43.3096 H         1 UNK         0.3000 
    165 H165        2.7257  -16.2775  -41.8962 H         1 UNK         0.0600 
    166 H166        4.2045  -13.7430  -42.8030 H         1 UNK         0.0600 
    167 H167        3.8495  -14.1496  -41.1247 H         1 UNK         0.0600 
    168 H168        4.9252  -15.1690  -42.0717 H         1 UNK         0.0600 
    169 H169        1.7136  -13.6298  -42.4325 H         1 UNK         0.3000 
    170 H170       -0.6775  -13.6540  -43.7980 H         1 UNK         0.0600 
    171 H171       -2.3214  -15.4722  -43.5366 H         1 UNK         0.0600 
    172 H172       -2.3489  -15.2587  -41.7955 H         1 UNK         0.0600 
    173 H173       -2.9676  -13.9908  -42.8534 H         1 UNK         0.0600 
    174 H174       -0.5036  -12.0761  -42.2797 H         1 UNK         0.3000 
    175 H175       -1.5720  -11.1240  -40.1111 H         1 UNK         0.0600 
    176 H176       -0.6941  -10.7971  -37.7971 H         1 UNK         0.0600 
    177 H177       -1.6457  -12.2659  -37.9393 H         1 UNK         0.0600 
    178 H178        0.1061  -12.3665  -37.8705 H         1 UNK         0.0600 
    179 H179        0.2328  -10.0186  -40.7568 H         1 UNK         0.3000 
    180 H180        2.6440   -9.2155  -40.1570 H         1 UNK         0.0600 
    181 H181        4.4100  -11.5335  -41.1060 H         1 UNK         0.0600 
    182 H182        4.4951  -10.7440  -39.5363 H         1 UNK         0.0600 
    183 H183        4.9055   -9.8464  -40.9882 H         1 UNK         0.0600 
    184 H184        2.4463   -8.8388  -42.3476 H         1 UNK         0.3000 
    185 H185        1.3323   -9.5491  -44.6409 H         1 UNK         0.0600 
    186 H186        3.4250   -8.8973  -45.9269 H         1 UNK         0.0600 
    187 H187        3.5268   -8.3805  -44.2561 H         1 UNK         0.0600 
    188 H188        4.4039   -9.8126  -44.7844 H         1 UNK         0.0600 
    189 H189        2.4343  -12.1453  -45.0201 H         1 UNK         0.3000 
    190 H190       -2.0552  -20.7226  -47.5194 H         1 UNK         0.3000 
    191 H191       -4.1860  -21.5119  -49.2546 H         1 UNK         0.0600 
    192 H192       -4.4099  -19.6179  -47.7004 H         1 UNK         0.0600 
    193 H193       -5.6306  -20.8284  -47.3406 H         1 UNK         0.0600 
    194 H194       -4.2106  -20.6816  -46.3100 H         1 UNK         0.0600 
    195 H195       -2.9801  -22.9111  -46.1462 H         1 UNK         0.3000 
    196 H196       -4.7889  -25.0518  -45.9916 H         1 UNK         0.0600 
    197 H197       -3.1386  -26.0168  -44.3849 H         1 UNK         0.0600 
    198 H198       -3.3929  -24.3041  -44.0903 H         1 UNK         0.0600 
    199 H199       -1.9306  -24.8512  -44.9090 H         1 UNK         0.0600 
    200 H200       -1.6346  -24.8915  -47.6572 H         1 UNK         0.3000 
    201 H201       -1.4642  -27.5772  -48.5254 H         1 UNK         0.0600 
    202 H202        0.4435  -26.0251  -48.5891 H         1 UNK         0.0600 
    203 H203       -0.3798  -24.9864  -49.7473 H         1 UNK         0.0600 
    204 H204        0.1342  -26.6027  -50.2194 H         1 UNK         0.0600 
    205 H205       -3.5654  -25.0344  -49.6454 H         1 UNK         0.3000 
    206 H206       -4.4341  -26.6114  -52.0317 H         1 UNK         0.0600 
    207 H207       -3.6530  -24.3053  -52.5286 H         1 UNK         0.0600 
    208 H208       -5.3823  -24.4366  -52.7992 H         1 UNK         0.0600 
    209 H209       -4.7802  -23.6519  -51.3406 H         1 UNK         0.0600 
    210 H210       -5.0662  -26.8172  -48.9713 H         1 UNK         0.3000 
    211 H211       -6.7171  -27.3504  -47.6242 H         1 UNK         0.0600 
    212 H212       -8.3371  -27.9773  -50.1491 H         1 UNK         0.0600 
    213 H213       -8.6169  -28.6281  -48.5397 H         1 UNK         0.0600 
    214 H214       -7.1553  -29.0573  -49.4102 H         1 UNK         0.0600 
    215 H215       -6.5671  -24.5426  -48.5144 H         1 UNK         0.3000 
    216 H216       -7.4819  -22.5829  -48.2904 H         1 UNK         0.0600 
    217 H217       -8.1288  -23.3756  -46.0040 H         1 UNK         0.0600 
    218 H218       -9.7070  -23.8640  -46.6220 H         1 UNK         0.0600 
    219 H219       -9.2413  -22.1701  -46.6275 H         1 UNK         0.0600 
    220 H220       -8.5706  -24.5934  -50.4452 H         1 UNK         0.3000 
    221 H221      -11.0666  -23.2977  -51.2874 H         1 UNK         0.0600 
    222 H222       -9.2707  -25.3490  -52.6905 H         1 UNK         0.0600 
    223 H223      -10.6601  -25.7345  -51.6756 H         1 UNK         0.0600 
    224 H224      -10.8883  -24.8728  -53.1904 H         1 UNK         0.0600 
    225 H225       -7.6729  -22.8169  -51.6735 H         1 UNK         0.3000 
    226 H226       -7.9229  -20.3927  -53.1242 H         1 UNK         0.0600 
    227 H227       -8.0320  -21.9937  -55.0953 H         1 UNK         0.0600 
    228 H228       -6.5771  -21.0242  -55.1284 H         1 UNK         0.0600 
    229 H229       -6.5026  -22.7027  -54.5904 H         1 UNK         0.0600 
    230 H230       -4.9792  -20.8401  -53.9486 H         1 UNK         0.3000 
    231 H231       -3.6410  -21.4742  -51.4418 H         1 UNK         0.0600 
    232 H232       -2.1741  -19.4424  -51.6069 H         1 UNK         0.0600 
    233 H233       -3.8405  -18.9880  -51.2833 H         1 UNK         0.0600 
    234 H234       -3.1776  -18.8124  -52.9086 H         1 UNK         0.0600 
    235 H235       -1.5950  -22.2835  -51.8146 H         1 UNK         0.3000 
    236 H236       -1.1271  -23.5650  -54.3189 H         1 UNK         0.0600 
    237 H237        0.8380  -24.5035  -53.1000 H         1 UNK         0.0600 
    238 H238        0.5764  -23.3625  -51.7839 H         1 UNK         0.0600 
    239 H239       -0.6292  -24.5997  -52.1415 H         1 UNK         0.0600 
    240 H240       -1.2028  -21.2047  -55.2998 H         1 UNK         0.3000 
    241 H241        1.4397  -19.9496  -55.5677 H         1 UNK         0.0600 
    242 H242        0.1361  -22.6875  -57.1315 H         1 UNK         0.3800 
    243 H243        1.0568  -22.5309  -58.6046 H         1 UNK         0.3800 
    244 H244        0.2098  -18.3062  -57.0357 H         1 UNK         0.0800 
    245 H245       -1.2417  -19.2495  -56.8496 H         1 UNK         0.0800 
    246 H246        0.5055  -16.0108  -54.8682 H         1 UNK         0.0800 
    247 H247        1.5365  -17.3276  -55.3643 H         1 UNK         0.0800 
@<TRIPOS>BOND
     1    1    2 1    
     2    1  127 1    
     3    1  128 1    
     4    1  129 1    
     5    2    3 2    
     6    2    4 am   BACKBONE|DICT|INTERRES
     7    4    5 1    
     8    4  130 1    
     9    5    6 1    
    10    5   65 1    
    11    5  131 1    
    12    6    7 1    
    13    6  132 1    
    14    6  133 1    
    15    7    8 1    
    16    8    9 1    
    17    8  134 1    
    18    8  135 1    
    19    9   10 ar   
    20    9   14 ar   
    21   10   11 ar   
    22   10  136 1    
    23   11   12 ar   
    24   11  126 1    
    25   12   13 ar   
    26   12  137 1    
    27   13   14 ar   
    28   13   15 1    
    29   14  138 1    
    30   15   16 1    
    31   15  139 1    
    32   15  140 1    
    33   16   17 1    
    34   17   18 1    
    35   17  141 1    
    36   17  142 1    
    37   18   19 1    
    38   18   67 1    
    39   18  143 1    
    40   19   20 am   BACKBONE|DICT|INTERRES
    41   19  144 1    
    42   20   21 2    
    43   20   22 1    
    44   22   23 1    
    45   22   24 1    
    46   22  145 1    
    47   23  146 1    
    48   23  147 1    
    49   23  148 1    
    50   24   25 am   BACKBONE|DICT|INTERRES
    51   24  149 1    
    52   25   26 2    
    53   25   27 1    
    54   27   28 1    
    55   27   29 1    
    56   27  150 1    
    57   28  151 1    
    58   28  152 1    
    59   28  153 1    
    60   29   30 am   BACKBONE|DICT|INTERRES
    61   29  154 1    
    62   30   31 2    
    63   30   32 1    
    64   32   33 1    
    65   32   34 1    
    66   32  155 1    
    67   33  156 1    
    68   33  157 1    
    69   33  158 1    
    70   34   35 am   BACKBONE|DICT|INTERRES
    71   34  159 1    
    72   35   36 2    
    73   35   37 1    
    74   37   38 1    
    75   37   39 1    
    76   37  160 1    
    77   38  161 1    
    78   38  162 1    
    79   38  163 1    
    80   39   40 am   BACKBONE|DICT|INTERRES
    81   39  164 1    
    82   40   41 2    
    83   40   42 1    
    84   42   43 1    
    85   42   44 1    
    86   42  165 1    
    87   43  166 1    
    88   43  167 1    
    89   43  168 1    
    90   44   45 am   BACKBONE|DICT|INTERRES
    91   44  169 1    
    92   45   46 2    
    93   45   47 1    
    94   47   48 1    
    95   47   49 1    
    96   47  170 1    
    97   48  171 1    
    98   48  172 1    
    99   48  173 1    
   100   49   50 am   BACKBONE|DICT|INTERRES
   101   49  174 1    
   102   50   51 2    
   103   50   52 1    
   104   52   53 1    
   105   52   54 1    
   106   52  175 1    
   107   53  176 1    
   108   53  177 1    
   109   53  178 1    
   110   54   55 am   BACKBONE|DICT|INTERRES
   111   54  179 1    
   112   55   56 2    
   113   55   57 1    
   114   57   58 1    
   115   57   59 1    
   116   57  180 1    
   117   58  181 1    
   118   58  182 1    
   119   58  183 1    
   120   59   60 am   BACKBONE|DICT|INTERRES
   121   59  184 1    
   122   60   61 2    
   123   60   62 1    
   124   62   63 1    
   125   62   64 1    
   126   62  185 1    
   127   63  186 1    
   128   63  187 1    
   129   63  188 1    
   130   64   65 am   BACKBONE|DICT|INTERRES
   131   64  189 1    
   132   65   66 2    
   133   67   68 2    
   134   67   69 am   BACKBONE|DICT|INTERRES
   135   69   70 1    
   136   69  190 1    
   137   70   71 1    
   138   70   72 1    
   139   70  191 1    
   140   71  192 1    
   141   71  193 1    
   142   71  194 1    
   143   72   73 2    
   144   72   74 am   BACKBONE|DICT|INTERRES
   145   74   75 1    
   146   74  195 1    
   147   75   76 1    
   148   75   77 1    
   149   75  196 1    
   150   76  197 1    
   151   76  198 1    
   152   76  199 1    
   153   77   78 2    
   154   77   79 am   BACKBONE|DICT|INTERRES
   155   79   80 1    
   156   79  200 1    
   157   80   81 1    
   158   80   82 1    
   159   80  201 1    
   160   81  202 1    
   161   81  203 1    
   162   81  204 1    
   163   82   83 2    
   164   82   84 am   BACKBONE|DICT|INTERRES
   165   84   85 1    
   166   84  205 1    
   167   85   86 1    
   168   85   87 1    
   169   85  206 1    
   170   86  207 1    
   171   86  208 1    
   172   86  209 1    
   173   87   88 2    
   174   87   89 am   BACKBONE|DICT|INTERRES
   175   89   90 1    
   176   89  210 1    
   177   90   91 1    
   178   90   92 1    
   179   90  211 1    
   180   91  212 1    
   181   91  213 1    
   182   91  214 1    
   183   92   93 2    
   184   92   94 am   BACKBONE|DICT|INTERRES
   185   94   95 1    
   186   94  215 1    
   187   95   96 1    
   188   95   97 1    
   189   95  216 1    
   190   96  217 1    
   191   96  218 1    
   192   96  219 1    
   193   97   98 2    
   194   97   99 am   BACKBONE|DICT|INTERRES
   195   99  100 1    
   196   99  220 1    
   197  100  101 1    
   198  100  102 1    
   199  100  221 1    
   200  101  222 1    
   201  101  223 1    
   202  101  224 1    
   203  102  103 2    
   204  102  104 am   BACKBONE|DICT|INTERRES
   205  104  105 1    
   206  104  225 1    
   207  105  106 1    
   208  105  107 1    
   209  105  226 1    
   210  106  227 1    
   211  106  228 1    
   212  106  229 1    
   213  107  108 2    
   214  107  109 am   BACKBONE|DICT|INTERRES
   215  109  110 1    
   216  109  230 1    
   217  110  111 1    
   218  110  112 1    
   219  110  231 1    
   220  111  232 1    
   221  111  233 1    
   222  111  234 1    
   223  112  113 2    
   224  112  114 am   BACKBONE|DICT|INTERRES
   225  114  115 1    
   226  114  235 1    
   227  115  116 1    
   228  115  117 1    
   229  115  236 1    
   230  116  237 1    
   231  116  238 1    
   232  116  239 1    
   233  117  118 2    
   234  117  119 am   BACKBONE|DICT|INTERRES
   235  119  120 1    
   236  119  240 1    
   237  120  121 1    
   238  120  124 1    
   239  120  241 1    
   240  121  122 am   BACKBONE|DICT|INTERRES
   241  121  123 2    
   242  122  242 1    
   243  122  243 1    
   244  124  125 1    
   245  124  244 1    
   246  124  245 1    
   247  125  126 1    
   248  126  246 1    
   249  126  247 1    
@<TRIPOS>SUBSTRUCTURE
     1 UNK         1 GROUP             0       ****    0 ROOT    
