@<TRIPOS>MOLECULE
3R540
247   249    1
SMALL
USER_CHARGES


@<TRIPOS>ATOM
      1 CA          1.3337   -8.8618  -47.3624 C.3       0 UNK        -0.1800 
      2 C           2.5235   -9.6543  -47.8857 C.2       0 UNK         0.5000 
      3 O           3.5247   -9.0627  -48.2912 O.2       0 UNK        -0.5000 
      4 N           2.4141  -10.9875  -47.8856 N.am      1 UNK        -0.5000 
      5 CA          3.4815  -11.9187  -48.2594 C.3       1 UNK         0.1400 
      6 C6          2.9159  -13.3277  -48.5865 C.3       23 UNK        -0.0398 
      7 S7          2.0327  -14.1179  -47.1924 S.3       23 UNK        -0.2404 
      8 C8          0.3535  -14.3340  -47.8661 C.3       23 UNK        -0.0205 
      9 C9          0.1896  -15.5302  -48.8012 C.ar      23 UNK        -0.0193 
     10 C10        -0.7693  -15.4680  -49.8157 C.ar      23 UNK        -0.1150 
     11 C11        -0.9806  -16.5564  -50.6645 C.ar      23 UNK        -0.0193 
     12 C12        -0.2287  -17.7206  -50.4888 C.ar      23 UNK        -0.1150 
     13 C13         0.7249  -17.8134  -49.4716 C.ar      23 UNK        -0.0193 
     14 C14         0.9337  -16.7065  -48.6387 C.ar      23 UNK        -0.1150 
     15 C15         1.5078  -19.1211  -49.3330 C.3       23 UNK        -0.0205 
     16 S16         2.3248  -19.4284  -47.7249 S.3       23 UNK        -0.2404 
     17 C17         0.9491  -19.3682  -46.5280 C.3       23 UNK        -0.0398 
     18 CA          0.2646  -20.7391  -46.3070 C.3       11 UNK         0.1400 
     19 N          -0.2762  -20.8629  -44.9510 N.am      11 UNK        -0.5000 
     20 C          -0.8410  -21.9668  -44.4414 C.2       10 UNK         0.5000 
     21 O          -0.9031  -23.0431  -45.0332 O.2       10 UNK        -0.5000 
     22 CA         -1.5034  -21.8267  -43.0610 C.3       10 UNK         0.1400 
     23 CB         -0.4740  -22.0037  -41.9362 C.3       10 UNK        -0.1800 
     24 N          -2.1887  -20.5411  -42.9185 N.am      10 UNK        -0.5000 
     25 C          -3.3064  -20.2113  -43.5830 C.2       9 UNK         0.5000 
     26 O          -3.8978  -20.9755  -44.3447 O.2       9 UNK        -0.5000 
     27 CA         -3.8244  -18.7732  -43.4019 C.3       9 UNK         0.1400 
     28 CB         -4.6627  -18.6561  -42.1204 C.3       9 UNK        -0.1800 
     29 N          -2.7456  -17.7850  -43.3691 N.am      9 UNK        -0.5000 
     30 C          -1.9394  -17.5045  -44.4031 C.2       8 UNK         0.5000 
     31 O          -2.0414  -18.0283  -45.5114 O.2       8 UNK        -0.5000 
     32 CA         -0.7943  -16.5092  -44.1353 C.3       8 UNK         0.1400 
     33 CB         -1.2740  -15.0667  -44.3526 C.3       8 UNK        -0.1800 
     34 N          -0.2285  -16.6279  -42.7882 N.am      8 UNK        -0.5000 
     35 C           0.3590  -17.7267  -42.2960 C.2       7 UNK         0.5000 
     36 O           0.4899  -18.7710  -42.9370 O.2       7 UNK        -0.5000 
     37 CA          0.8256  -17.6375  -40.8331 C.3       7 UNK         0.1400 
     38 CB          0.0576  -18.6102  -39.9169 C.3       7 UNK        -0.1800 
     39 N           2.2783  -17.7687  -40.7153 N.am      7 UNK        -0.5000 
     40 C           3.0552  -18.8574  -40.8347 C.2       6 UNK         0.5000 
     41 O           2.6276  -20.0045  -40.9646 O.2       6 UNK        -0.5000 
     42 CA          4.5825  -18.6274  -40.7863 C.3       6 UNK         0.1400 
     43 CB          5.3160  -19.4671  -41.8476 C.3       6 UNK        -0.1800 
     44 N           4.9250  -17.2178  -40.9886 N.am      6 UNK        -0.5000 
     45 C           5.2459  -16.3434  -40.0243 C.2       5 UNK         0.5000 
     46 O           5.3664  -16.6508  -38.8383 O.2       5 UNK        -0.5000 
     47 CA          5.4370  -14.8686  -40.4433 C.3       5 UNK         0.1400 
     48 CB          6.9300  -14.5477  -40.6093 C.3       5 UNK        -0.1800 
     49 N           4.7396  -14.5121  -41.6813 N.am      5 UNK        -0.5000 
     50 C           3.4100  -14.5258  -41.8562 C.2       4 UNK         0.5000 
     51 O           2.6071  -14.7579  -40.9526 O.2       4 UNK        -0.5000 
     52 CA          2.8902  -14.3158  -43.2924 C.3       4 UNK         0.1400 
     53 CB          2.4285  -12.8652  -43.4899 C.3       4 UNK        -0.1800 
     54 N           3.8604  -14.6693  -44.3344 N.am      4 UNK        -0.5000 
     55 C           4.3951  -15.8887  -44.5101 C.2       3 UNK         0.5000 
     56 O           4.1262  -16.8474  -43.7872 O.2       3 UNK        -0.5000 
     57 CA          5.4169  -16.0825  -45.6488 C.3       3 UNK         0.1400 
     58 CB          4.8588  -17.0294  -46.7201 C.3       3 UNK        -0.1800 
     59 N           5.8360  -14.8405  -46.2968 N.am      3 UNK        -0.5000 
     60 C           6.6437  -13.9118  -45.7661 C.2       2 UNK         0.5000 
     61 O           7.1493  -14.0049  -44.6473 O.2       2 UNK        -0.5000 
     62 CA          6.8960  -12.6539  -46.6248 C.3       2 UNK         0.1400 
     63 CB          8.2022  -12.7983  -47.4200 C.3       2 UNK        -0.1800 
     64 N           5.7946  -12.3704  -47.5542 N.am      2 UNK        -0.5000 
     65 C           4.5712  -11.9858  -47.1647 C.2       1 UNK         0.5000 
     66 O           4.2820  -11.7573  -45.9874 O.2       1 UNK        -0.5000 
     67 C          -0.8197  -21.0052  -47.3727 C.2       11 UNK         0.5000 
     68 O          -0.6149  -21.8354  -48.2578 O.2       11 UNK        -0.5000 
     69 N          -1.9712  -20.3321  -47.2373 N.am      12 UNK        -0.5000 
     70 CA         -3.1393  -20.4926  -48.1026 C.3       12 UNK         0.1400 
     71 CB         -4.1942  -19.4417  -47.7288 C.3       12 UNK        -0.1800 
     72 C          -3.7308  -21.9142  -48.0552 C.2       12 UNK         0.5000 
     73 O          -4.0938  -22.4529  -49.1014 O.2       12 UNK        -0.5000 
     74 N          -3.7810  -22.5146  -46.8572 N.am      13 UNK        -0.5000 
     75 CA         -4.2034  -23.8995  -46.6456 C.3       13 UNK         0.1400 
     76 CB         -4.3523  -24.1798  -45.1431 C.3       13 UNK        -0.1800 
     77 C          -3.2520  -24.9151  -47.3042 C.2       13 UNK         0.5000 
     78 O          -3.7246  -25.8351  -47.9715 O.2       13 UNK        -0.5000 
     79 N          -1.9358  -24.7091  -47.1501 N.am      14 UNK        -0.5000 
     80 CA         -0.8844  -25.5166  -47.7761 C.3       14 UNK         0.1400 
     81 CB          0.4826  -25.1211  -47.1976 C.3       14 UNK        -0.1800 
     82 C          -0.8786  -25.4088  -49.3130 C.2       14 UNK         0.5000 
     83 O          -0.6395  -26.4076  -49.9925 O.2       14 UNK        -0.5000 
     84 N          -1.1824  -24.2113  -49.8310 N.am      15 UNK        -0.5000 
     85 CA         -1.3714  -23.9317  -51.2558 C.3       15 UNK         0.1400 
     86 CB         -1.3035  -22.4104  -51.4738 C.3       15 UNK        -0.1800 
     87 C          -2.6898  -24.4961  -51.8281 C.2       15 UNK         0.5000 
     88 O          -2.8428  -24.5225  -53.0494 O.2       15 UNK        -0.5000 
     89 N          -3.6151  -24.9132  -50.9482 N.am      16 UNK        -0.5000 
     90 CA         -4.9806  -25.3701  -51.2279 C.3       16 UNK         0.1400 
     91 CB         -4.9733  -26.6926  -52.0219 C.3       16 UNK        -0.1800 
     92 C          -5.8348  -24.2733  -51.8941 C.2       16 UNK         0.5000 
     93 O          -6.6358  -24.5632  -52.7860 O.2       16 UNK        -0.5000 
     94 N          -5.6434  -23.0228  -51.4485 N.am      17 UNK        -0.5000 
     95 CA         -6.1716  -21.8010  -52.0592 C.3       17 UNK         0.1400 
     96 CB         -5.6477  -20.5864  -51.2829 C.3       17 UNK        -0.1800 
     97 C          -7.7045  -21.7341  -52.1772 C.2       17 UNK         0.5000 
     98 O          -8.2088  -21.0447  -53.0624 O.2       17 UNK        -0.5000 
     99 N          -8.4157  -22.4707  -51.3147 N.am      18 UNK        -0.5000 
    100 CA        -9.8711  -22.6173  -51.3424 C.3       18 UNK         0.1400 
    101 CB       -10.3193  -23.3353  -50.0602 C.3       18 UNK        -0.1800 
    102 C        -10.3999  -23.3606  -52.5878 C.2       18 UNK         0.5000 
    103 O        -11.5632  -23.1678  -52.9443 O.2       18 UNK        -0.5000 
    104 N         -9.5554  -24.1907  -53.2164 N.am      19 UNK        -0.5000 
    105 CA        -9.8917  -24.9835  -54.3991 C.3       19 UNK         0.1400 
    106 CB        -9.7347  -26.4751  -54.0613 C.3       19 UNK        -0.1800 
    107 C         -9.0116  -24.6125  -55.6031 C.2       19 UNK         0.5000 
    108 O         -9.5260  -24.4968  -56.7160 O.2       19 UNK        -0.5000 
    109 N         -7.7036  -24.4457  -55.3709 N.am      20 UNK        -0.5000 
    110 CA        -6.6950  -24.2426  -56.4127 C.3       20 UNK         0.1400 
    111 CB        -5.3687  -24.8444  -55.9184 C.3       20 UNK        -0.1800 
    112 C         -6.4920  -22.7671  -56.8072 C.2       20 UNK         0.5000 
    113 O         -5.8176  -22.5148  -57.8068 O.2       20 UNK        -0.5000 
    114 N         -7.0499  -21.8382  -56.0140 N.am      21 UNK        -0.5000 
    115 CA        -6.7934  -20.3906  -55.9802 C.3       21 UNK         0.1400 
    116 CB        -6.9630  -19.7231  -57.3596 C.3       21 UNK        -0.1800 
    117 C         -5.4202  -20.0712  -55.3536 C.2       21 UNK         0.5000 
    118 O         -4.4811  -20.8629  -55.4603 O.2       21 UNK        -0.5000 
    119 N         -5.3328  -18.9252  -54.6686 N.am      22 UNK        -0.5000 
    120 CA        -4.1112  -18.4726  -53.9861 C.3       22 UNK         0.1400 
    121 C         -3.0063  -18.0486  -54.9939 C.2       22 UNK         0.5000 
    122 N         -1.7993  -18.5849  -54.8760 N.am      22 UNK        -0.7600 
    123 O         -3.2325  -17.2101  -55.8632 O.2       22 UNK        -0.5000 
    124 C124       -4.4147  -17.3472  -52.9580 C.3       23 UNK        -0.0398 
    125 S125       -3.4490  -17.5361  -51.4218 S.3       23 UNK        -0.2404 
    126 C126       -2.0132  -16.4780  -51.7773 C.3       23 UNK        -0.0205 
    127 H127        0.5185   -9.5143  -47.0484 H         1 UNK         0.0600 
    128 H128        0.9561   -8.1949  -48.1375 H         1 UNK         0.0600 
    129 H129        1.6335   -8.2571  -46.5065 H         1 UNK         0.0600 
    130 H130        1.5883  -11.4179  -47.4959 H         1 UNK         0.3000 
    131 H131        3.9531  -11.5350  -49.1668 H         1 UNK         0.0600 
    132 H132        2.2455  -13.2572  -49.4441 H         1 UNK         0.0800 
    133 H133        3.7154  -13.9979  -48.9058 H         1 UNK         0.0800 
    134 H134       -0.3321  -14.4679  -47.0317 H         1 UNK         0.0800 
    135 H135        0.0500  -13.4119  -48.3643 H         1 UNK         0.0800 
    136 H136       -1.3580  -14.5701  -49.9422 H         1 UNK         0.1150 
    137 H137       -0.3967  -18.5631  -51.1453 H         1 UNK         0.1150 
    138 H138        1.6665  -16.7639  -47.8492 H         1 UNK         0.1150 
    139 H139        0.8521  -19.9640  -49.5529 H         1 UNK         0.0800 
    140 H140        2.2778  -19.1326  -50.1051 H         1 UNK         0.0800 
    141 H141        1.3930  -19.0252  -45.5920 H         1 UNK         0.0800 
    142 H142        0.2311  -18.5950  -46.8013 H         1 UNK         0.0800 
    143 H143        1.0188  -21.5232  -46.4035 H         1 UNK         0.0600 
    144 H144       -0.2212  -20.0397  -44.3603 H         1 UNK         0.3000 
    145 H145       -2.2472  -22.6199  -42.9624 H         1 UNK         0.0600 
    146 H146       -0.9373  -21.9052  -40.9545 H         1 UNK         0.0600 
    147 H147       -0.0172  -22.9930  -41.9827 H         1 UNK         0.0600 
    148 H148        0.3315  -21.2726  -42.0053 H         1 UNK         0.0600 
    149 H149       -1.7292  -19.8414  -42.3554 H         1 UNK         0.3000 
    150 H150       -4.4679  -18.5423  -44.2536 H         1 UNK         0.0600 
    151 H151       -5.4852  -19.3726  -42.1260 H         1 UNK         0.0600 
    152 H152       -5.1002  -17.6621  -42.0250 H         1 UNK         0.0600 
    153 H153       -4.0662  -18.8480  -41.2276 H         1 UNK         0.0600 
    154 H154       -2.5925  -17.3047  -42.4950 H         1 UNK         0.3000 
    155 H155       -0.0006  -16.7195  -44.8556 H         1 UNK         0.0600 
    156 H156       -0.4363  -14.3687  -44.3554 H         1 UNK         0.0600 
    157 H157       -1.9720  -14.7525  -43.5757 H         1 UNK         0.0600 
    158 H158       -1.7894  -14.9636  -45.3080 H         1 UNK         0.0600 
    159 H159       -0.3088  -15.8127  -42.1974 H         1 UNK         0.3000 
    160 H160        0.6035  -16.6320  -40.4724 H         1 UNK         0.0600 
    161 H161        0.1803  -19.6490  -40.2194 H         1 UNK         0.0600 
    162 H162       -1.0113  -18.3949  -39.9342 H         1 UNK         0.0600 
    163 H163        0.3902  -18.5219  -38.8827 H         1 UNK         0.0600 
    164 H164        2.7574  -16.8810  -40.6279 H         1 UNK         0.3000 
    165 H165        4.9233  -18.9591  -39.8037 H         1 UNK         0.0600 
    166 H166        4.9623  -19.2421  -42.8542 H         1 UNK         0.0600 
    167 H167        6.3905  -19.2855  -41.8209 H         1 UNK         0.0600 
    168 H168        5.1647  -20.5337  -41.6783 H         1 UNK         0.0600 
    169 H169        4.8030  -16.8827  -41.9398 H         1 UNK         0.3000 
    170 H170        5.0370  -14.2451  -39.6411 H         1 UNK         0.0600 
    171 H171        7.4842  -14.7780  -39.6983 H         1 UNK         0.0600 
    172 H172        7.3767  -15.1236  -41.4211 H         1 UNK         0.0600 
    173 H173        7.0850  -13.4901  -40.8239 H         1 UNK         0.0600 
    174 H174        5.3208  -14.3152  -42.4843 H         1 UNK         0.3000 
    175 H175        2.0252  -14.9681  -43.4227 H         1 UNK         0.0600 
    176 H176        3.2592  -12.1644  -43.3989 H         1 UNK         0.0600 
    177 H177        1.9767  -12.7229  -44.4714 H         1 UNK         0.0600 
    178 H178        1.6800  -12.5875  -42.7467 H         1 UNK         0.0600 
    179 H179        4.1225  -13.9281  -44.9706 H         1 UNK         0.3000 
    180 H180        6.2996  -16.5512  -45.2088 H         1 UNK         0.0600 
    181 H181        3.9741  -16.6143  -47.2031 H         1 UNK         0.0600 
    182 H182        4.5762  -17.9876  -46.2826 H         1 UNK         0.0600 
    183 H183        5.5991  -17.2348  -47.4934 H         1 UNK         0.0600 
    184 H184        5.4658  -14.6735  -47.2198 H         1 UNK         0.3000 
    185 H185        7.0004  -11.8052  -45.9454 H         1 UNK         0.0600 
    186 H186        8.4270  -11.8891  -47.9781 H         1 UNK         0.0600 
    187 H187        9.0456  -12.9859  -46.7540 H         1 UNK         0.0600 
    188 H188        8.1538  -13.6256  -48.1292 H         1 UNK         0.0600 
    189 H189        5.9798  -12.5285  -48.5346 H         1 UNK         0.3000 
    190 H190       -2.0472  -19.6321  -46.5032 H         1 UNK         0.3000 
    191 H191       -2.8198  -20.3005  -49.1289 H         1 UNK         0.0600 
    192 H192       -5.0754  -19.5224  -48.3647 H         1 UNK         0.0600 
    193 H193       -3.8001  -18.4322  -47.8491 H         1 UNK         0.0600 
    194 H194       -4.5231  -19.5513  -46.6950 H         1 UNK         0.0600 
    195 H195       -3.5239  -21.9846  -46.0306 H         1 UNK         0.3000 
    196 H196       -5.1856  -24.0194  -47.1076 H         1 UNK         0.0600 
    197 H197       -4.6957  -25.2002  -44.9689 H         1 UNK         0.0600 
    198 H198       -5.0813  -23.5094  -44.6877 H         1 UNK         0.0600 
    199 H199       -3.4080  -24.0569  -44.6134 H         1 UNK         0.0600 
    200 H200       -1.6237  -23.9509  -46.5483 H         1 UNK         0.3000 
    201 H201       -1.0711  -26.5615  -47.5198 H         1 UNK         0.0600 
    202 H202        0.5134  -25.2771  -46.1192 H         1 UNK         0.0600 
    203 H203        0.7137  -24.0729  -47.3897 H         1 UNK         0.0600 
    204 H204        1.2816  -25.7202  -47.6361 H         1 UNK         0.0600 
    205 H205       -1.2802  -23.4220  -49.1984 H         1 UNK         0.3000 
    206 H206       -0.5506  -24.3931  -51.8085 H         1 UNK         0.0600 
    207 H207       -0.3557  -22.0023  -51.1222 H         1 UNK         0.0600 
    208 H208       -1.3925  -22.1607  -52.5317 H         1 UNK         0.0600 
    209 H209       -2.1059  -21.8933  -50.9473 H         1 UNK         0.0600 
    210 H210       -3.3842  -24.8414  -49.9655 H         1 UNK         0.3000 
    211 H211       -5.4408  -25.5683  -50.2591 H         1 UNK         0.0600 
    212 H212       -4.5910  -26.5575  -53.0341 H         1 UNK         0.0600 
    213 H213       -5.9809  -27.1013  -52.1075 H         1 UNK         0.0600 
    214 H214       -4.3587  -27.4449  -51.5277 H         1 UNK         0.0600 
    215 H215       -4.9982  -22.8854  -50.6726 H         1 UNK         0.3000 
    216 H216       -5.7691  -21.7618  -53.0714 H         1 UNK         0.0600 
    217 H217       -5.9938  -19.6546  -51.7304 H         1 UNK         0.0600 
    218 H218       -4.5579  -20.5603  -51.2749 H         1 UNK         0.0600 
    219 H219       -5.9926  -20.6006  -50.2493 H         1 UNK         0.0600 
    220 H220       -7.9153  -23.0083  -50.6225 H         1 UNK         0.3000 
    221 H221      -10.3103  -21.6175  -51.3470 H         1 UNK         0.0600 
    222 H222       -9.8938  -24.3373  -49.9910 H         1 UNK         0.0600 
    223 H223      -10.0200  -22.7800  -49.1711 H         1 UNK         0.0600 
    224 H224      -11.4049  -23.4368  -50.0278 H         1 UNK         0.0600 
    225 H225       -8.6052  -24.2744  -52.8708 H         1 UNK         0.3000 
    226 H226      -10.9290  -24.8157  -54.6959 H         1 UNK         0.0600 
    227 H227      -10.4119  -26.7684  -53.2590 H         1 UNK         0.0600 
    228 H228       -9.9651  -27.0992  -54.9258 H         1 UNK         0.0600 
    229 H229       -8.7184  -26.7129  -53.7440 H         1 UNK         0.0600 
    230 H230       -7.3447  -24.5552  -54.4241 H         1 UNK         0.3000 
    231 H231       -6.9945  -24.7840  -57.3126 H         1 UNK         0.0600 
    232 H232       -4.6005  -24.7892  -56.6906 H         1 UNK         0.0600 
    233 H233       -5.4846  -25.8945  -55.6498 H         1 UNK         0.0600 
    234 H234       -4.9892  -24.3149  -55.0432 H         1 UNK         0.0600 
    235 H235       -7.5918  -22.1827  -55.2338 H         1 UNK         0.3000 
    236 H236       -7.5597  -19.9727  -55.3271 H         1 UNK         0.0600 
    237 H237       -7.9020  -20.0158  -57.8292 H         1 UNK         0.0600 
    238 H238       -6.9725  -18.6370  -57.2625 H         1 UNK         0.0600 
    239 H239       -6.1502  -19.9737  -58.0414 H         1 UNK         0.0600 
    240 H240       -6.1236  -18.2983  -54.6443 H         1 UNK         0.3000 
    241 H241       -3.7434  -19.3409  -53.4345 H         1 UNK         0.0600 
    242 H242       -1.5998  -19.2871  -54.1815 H         1 UNK         0.3800 
    243 H243       -1.0766  -18.3098  -55.5226 H         1 UNK         0.3800 
    244 H244       -4.2726  -16.3495  -53.3782 H         1 UNK         0.0800 
    245 H245       -5.4621  -17.3825  -52.6559 H         1 UNK         0.0800 
    246 H246       -2.3501  -15.4502  -51.9209 H         1 UNK         0.0800 
    247 H247       -1.5465  -16.7847  -52.7133 H         1 UNK         0.0800 
@<TRIPOS>BOND
     1    1    2 1    
     2    1  127 1    
     3    1  128 1    
     4    1  129 1    
     5    2    3 2    
     6    2    4 am   BACKBONE|DICT|INTERRES
     7    4    5 1    
     8    4  130 1    
     9    5    6 1    
    10    5   65 1    
    11    5  131 1    
    12    6    7 1    
    13    6  132 1    
    14    6  133 1    
    15    7    8 1    
    16    8    9 1    
    17    8  134 1    
    18    8  135 1    
    19    9   10 ar   
    20    9   14 ar   
    21   10   11 ar   
    22   10  136 1    
    23   11   12 ar   
    24   11  126 1    
    25   12   13 ar   
    26   12  137 1    
    27   13   14 ar   
    28   13   15 1    
    29   14  138 1    
    30   15   16 1    
    31   15  139 1    
    32   15  140 1    
    33   16   17 1    
    34   17   18 1    
    35   17  141 1    
    36   17  142 1    
    37   18   19 1    
    38   18   67 1    
    39   18  143 1    
    40   19   20 am   BACKBONE|DICT|INTERRES
    41   19  144 1    
    42   20   21 2    
    43   20   22 1    
    44   22   23 1    
    45   22   24 1    
    46   22  145 1    
    47   23  146 1    
    48   23  147 1    
    49   23  148 1    
    50   24   25 am   BACKBONE|DICT|INTERRES
    51   24  149 1    
    52   25   26 2    
    53   25   27 1    
    54   27   28 1    
    55   27   29 1    
    56   27  150 1    
    57   28  151 1    
    58   28  152 1    
    59   28  153 1    
    60   29   30 am   BACKBONE|DICT|INTERRES
    61   29  154 1    
    62   30   31 2    
    63   30   32 1    
    64   32   33 1    
    65   32   34 1    
    66   32  155 1    
    67   33  156 1    
    68   33  157 1    
    69   33  158 1    
    70   34   35 am   BACKBONE|DICT|INTERRES
    71   34  159 1    
    72   35   36 2    
    73   35   37 1    
    74   37   38 1    
    75   37   39 1    
    76   37  160 1    
    77   38  161 1    
    78   38  162 1    
    79   38  163 1    
    80   39   40 am   BACKBONE|DICT|INTERRES
    81   39  164 1    
    82   40   41 2    
    83   40   42 1    
    84   42   43 1    
    85   42   44 1    
    86   42  165 1    
    87   43  166 1    
    88   43  167 1    
    89   43  168 1    
    90   44   45 am   BACKBONE|DICT|INTERRES
    91   44  169 1    
    92   45   46 2    
    93   45   47 1    
    94   47   48 1    
    95   47   49 1    
    96   47  170 1    
    97   48  171 1    
    98   48  172 1    
    99   48  173 1    
   100   49   50 am   BACKBONE|DICT|INTERRES
   101   49  174 1    
   102   50   51 2    
   103   50   52 1    
   104   52   53 1    
   105   52   54 1    
   106   52  175 1    
   107   53  176 1    
   108   53  177 1    
   109   53  178 1    
   110   54   55 am   BACKBONE|DICT|INTERRES
   111   54  179 1    
   112   55   56 2    
   113   55   57 1    
   114   57   58 1    
   115   57   59 1    
   116   57  180 1    
   117   58  181 1    
   118   58  182 1    
   119   58  183 1    
   120   59   60 am   BACKBONE|DICT|INTERRES
   121   59  184 1    
   122   60   61 2    
   123   60   62 1    
   124   62   63 1    
   125   62   64 1    
   126   62  185 1    
   127   63  186 1    
   128   63  187 1    
   129   63  188 1    
   130   64   65 am   BACKBONE|DICT|INTERRES
   131   64  189 1    
   132   65   66 2    
   133   67   68 2    
   134   67   69 am   BACKBONE|DICT|INTERRES
   135   69   70 1    
   136   69  190 1    
   137   70   71 1    
   138   70   72 1    
   139   70  191 1    
   140   71  192 1    
   141   71  193 1    
   142   71  194 1    
   143   72   73 2    
   144   72   74 am   BACKBONE|DICT|INTERRES
   145   74   75 1    
   146   74  195 1    
   147   75   76 1    
   148   75   77 1    
   149   75  196 1    
   150   76  197 1    
   151   76  198 1    
   152   76  199 1    
   153   77   78 2    
   154   77   79 am   BACKBONE|DICT|INTERRES
   155   79   80 1    
   156   79  200 1    
   157   80   81 1    
   158   80   82 1    
   159   80  201 1    
   160   81  202 1    
   161   81  203 1    
   162   81  204 1    
   163   82   83 2    
   164   82   84 am   BACKBONE|DICT|INTERRES
   165   84   85 1    
   166   84  205 1    
   167   85   86 1    
   168   85   87 1    
   169   85  206 1    
   170   86  207 1    
   171   86  208 1    
   172   86  209 1    
   173   87   88 2    
   174   87   89 am   BACKBONE|DICT|INTERRES
   175   89   90 1    
   176   89  210 1    
   177   90   91 1    
   178   90   92 1    
   179   90  211 1    
   180   91  212 1    
   181   91  213 1    
   182   91  214 1    
   183   92   93 2    
   184   92   94 am   BACKBONE|DICT|INTERRES
   185   94   95 1    
   186   94  215 1    
   187   95   96 1    
   188   95   97 1    
   189   95  216 1    
   190   96  217 1    
   191   96  218 1    
   192   96  219 1    
   193   97   98 2    
   194   97   99 am   BACKBONE|DICT|INTERRES
   195   99  100 1    
   196   99  220 1    
   197  100  101 1    
   198  100  102 1    
   199  100  221 1    
   200  101  222 1    
   201  101  223 1    
   202  101  224 1    
   203  102  103 2    
   204  102  104 am   BACKBONE|DICT|INTERRES
   205  104  105 1    
   206  104  225 1    
   207  105  106 1    
   208  105  107 1    
   209  105  226 1    
   210  106  227 1    
   211  106  228 1    
   212  106  229 1    
   213  107  108 2    
   214  107  109 am   BACKBONE|DICT|INTERRES
   215  109  110 1    
   216  109  230 1    
   217  110  111 1    
   218  110  112 1    
   219  110  231 1    
   220  111  232 1    
   221  111  233 1    
   222  111  234 1    
   223  112  113 2    
   224  112  114 am   BACKBONE|DICT|INTERRES
   225  114  115 1    
   226  114  235 1    
   227  115  116 1    
   228  115  117 1    
   229  115  236 1    
   230  116  237 1    
   231  116  238 1    
   232  116  239 1    
   233  117  118 2    
   234  117  119 am   BACKBONE|DICT|INTERRES
   235  119  120 1    
   236  119  240 1    
   237  120  121 1    
   238  120  124 1    
   239  120  241 1    
   240  121  122 am   BACKBONE|DICT|INTERRES
   241  121  123 2    
   242  122  242 1    
   243  122  243 1    
   244  124  125 1    
   245  124  244 1    
   246  124  245 1    
   247  125  126 1    
   248  126  246 1    
   249  126  247 1    
@<TRIPOS>SUBSTRUCTURE
     1 UNK         1 GROUP             0       ****    0 ROOT    
