@<TRIPOS>MOLECULE
3R540
247   249    1
SMALL
USER_CHARGES


@<TRIPOS>ATOM
      1 CA          0.2005  -13.3049  -50.8311 C.3       0 UNK        -0.1800 
      2 C           1.4013  -13.2800  -49.8975 C.2       0 UNK         0.5000 
      3 O           1.2701  -13.6163  -48.7216 O.2       0 UNK        -0.5000 
      4 N           2.5663  -12.8706  -50.4141 N.am      1 UNK        -0.5000 
      5 CA          3.8656  -12.7348  -49.7353 C.3       1 UNK         0.1400 
      6 C6          4.4605  -14.0450  -49.1340 C.3       23 UNK        -0.0398 
      7 S7          4.1876  -15.5603  -50.1226 S.3       23 UNK        -0.2404 
      8 C8          3.2480  -16.5422  -48.9081 C.3       23 UNK        -0.0205 
      9 C9          2.4330  -17.6534  -49.5455 C.ar      23 UNK        -0.0193 
     10 C10         1.2443  -17.3480  -50.2120 C.ar      23 UNK        -0.1150 
     11 C11         0.4239  -18.3643  -50.7055 C.ar      23 UNK        -0.0193 
     12 C12         0.8061  -19.6984  -50.5325 C.ar      23 UNK        -0.1150 
     13 C13         2.0031  -20.0195  -49.8821 C.ar      23 UNK        -0.0193 
     14 C14         2.8197  -18.9885  -49.4040 C.ar      23 UNK        -0.1150 
     15 C15         2.3942  -21.4825  -49.6892 C.3       23 UNK        -0.0205 
     16 S16         2.9118  -21.9018  -47.9847 S.3       23 UNK        -0.2404 
     17 C17         1.5113  -21.2978  -46.9804 C.3       23 UNK        -0.0398 
     18 CA          0.4981  -22.3919  -46.5697 C.3       11 UNK         0.1400 
     19 N          -0.3855  -21.9078  -45.5061 N.am      11 UNK        -0.5000 
     20 C          -1.3076  -22.6354  -44.8622 C.2       10 UNK         0.5000 
     21 O          -1.4802  -23.8394  -45.0423 O.2       10 UNK        -0.5000 
     22 CA         -2.2262  -21.8768  -43.8890 C.3       10 UNK         0.1400 
     23 CB         -1.5549  -21.7033  -42.5187 C.3       10 UNK        -0.1800 
     24 N          -2.6208  -20.5707  -44.4184 N.am      10 UNK        -0.5000 
     25 C          -3.4649  -20.3984  -45.4463 C.2       9 UNK         0.5000 
     26 O          -4.0307  -21.3237  -46.0274 O.2       9 UNK        -0.5000 
     27 CA         -3.6799  -18.9528  -45.9333 C.3       9 UNK         0.1400 
     28 CB         -4.7480  -18.2459  -45.0863 C.3       9 UNK        -0.1800 
     29 N          -2.4509  -18.1588  -45.9229 N.am      9 UNK        -0.5000 
     30 C          -1.3782  -18.4271  -46.6797 C.2       8 UNK         0.5000 
     31 O          -1.3047  -19.3900  -47.4412 O.2       8 UNK        -0.5000 
     32 CA         -0.1626  -17.5021  -46.5008 C.3       8 UNK         0.1400 
     33 CB         -0.3770  -16.1719  -47.2311 C.3       8 UNK        -0.1800 
     34 N           0.1593  -17.2132  -45.1033 N.am      8 UNK        -0.5000 
     35 C           0.4348  -18.1211  -44.1557 C.2       7 UNK         0.5000 
     36 O           0.3268  -19.3373  -44.3219 O.2       7 UNK        -0.5000 
     37 CA          0.9329  -17.5554  -42.8083 C.3       7 UNK         0.1400 
     38 CB          1.5501  -18.6276  -41.8873 C.3       7 UNK        -0.1800 
     39 N           1.8520  -16.4280  -43.0003 N.am      7 UNK        -0.5000 
     40 C           3.0248  -16.4342  -43.6552 C.2       6 UNK         0.5000 
     41 O           3.5773  -17.4541  -44.0682 O.2       6 UNK        -0.5000 
     42 CA          3.6770  -15.0670  -43.9385 C.3       6 UNK         0.1400 
     43 CB          3.6524  -14.7756  -45.4474 C.3       6 UNK        -0.1800 
     44 N           3.0037  -13.9709  -43.2391 N.am      6 UNK        -0.5000 
     45 C           3.3567  -13.5048  -42.0332 C.2       5 UNK         0.5000 
     46 O           4.3455  -13.8956  -41.4122 O.2       5 UNK        -0.5000 
     47 CA          2.4402  -12.4401  -41.3984 C.3       5 UNK         0.1400 
     48 CB          3.0037  -11.0298  -41.6251 C.3       5 UNK        -0.1800 
     49 N           1.0626  -12.5020  -41.8949 N.am      5 UNK        -0.5000 
     50 C           0.1895  -13.4653  -41.5636 C.2       4 UNK         0.5000 
     51 O           0.4557  -14.3874  -40.7931 O.2       4 UNK        -0.5000 
     52 CA         -1.1968  -13.4300  -42.2349 C.3       4 UNK         0.1400 
     53 CB         -2.2020  -12.6744  -41.3534 C.3       4 UNK        -0.1800 
     54 N          -1.1948  -12.8387  -43.5739 N.am      4 UNK        -0.5000 
     55 C          -0.5141  -13.3081  -44.6273 C.2       3 UNK         0.5000 
     56 O           0.2130  -14.3033  -44.5748 O.2       3 UNK        -0.5000 
     57 CA         -0.6411  -12.5345  -45.9557 C.3       3 UNK         0.1400 
     58 CB         -1.6641  -11.3767  -45.9276 C.3       3 UNK        -0.1800 
     59 N           0.6587  -12.0560  -46.4310 N.am      3 UNK        -0.5000 
     60 C           1.5122  -11.2397  -45.7895 C.2       2 UNK         0.5000 
     61 O           1.2944  -10.7861  -44.6648 O.2       2 UNK        -0.5000 
     62 CA          2.8273  -10.8750  -46.5129 C.3       2 UNK         0.1400 
     63 CB          4.0222  -10.7692  -45.5449 C.3       2 UNK        -0.1800 
     64 N           3.1190  -11.8234  -47.5871 N.am      2 UNK        -0.5000 
     65 C           3.8372  -11.5929  -48.6925 C.2       1 UNK         0.5000 
     66 O           4.4275  -10.5366  -48.9224 O.2       1 UNK        -0.5000 
     67 C          -0.3056  -22.9226  -47.7770 C.2       11 UNK         0.5000 
     68 O          -0.0449  -24.0317  -48.2450 O.2       11 UNK        -0.5000 
     69 N          -1.2972  -22.1432  -48.2292 N.am      12 UNK        -0.5000 
     70 CA         -2.2142  -22.5211  -49.3017 C.3       12 UNK         0.1400 
     71 CB         -3.0463  -21.3068  -49.7187 C.3       12 UNK        -0.1800 
     72 C          -3.1218  -23.7047  -48.9261 C.2       12 UNK         0.5000 
     73 O          -3.3187  -24.5949  -49.7500 O.2       12 UNK        -0.5000 
     74 N          -3.6259  -23.7327  -47.6833 N.am      13 UNK        -0.5000 
     75 CA         -4.4112  -24.8474  -47.1469 C.3       13 UNK         0.1400 
     76 CB         -4.9801  -24.4781  -45.7696 C.3       13 UNK        -0.1800 
     77 C          -3.6067  -26.1589  -47.0752 C.2       13 UNK         0.5000 
     78 O          -4.1287  -27.2088  -47.4498 O.2       13 UNK        -0.5000 
     79 N          -2.3368  -26.0693  -46.6543 N.am      14 UNK        -0.5000 
     80 CA         -1.3869  -27.1836  -46.5993 C.3       14 UNK         0.1400 
     81 CB         -0.1214  -26.7405  -45.8496 C.3       14 UNK        -0.1800 
     82 C          -1.0260  -27.7634  -47.9818 C.2       14 UNK         0.5000 
     83 O          -0.6859  -28.9440  -48.0660 O.2       14 UNK        -0.5000 
     84 N          -1.1362  -26.9487  -49.0420 N.am      15 UNK        -0.5000 
     85 CA         -0.9838  -27.3763  -50.4359 C.3       15 UNK         0.1400 
     86 CB         -0.7275  -26.1479  -51.3248 C.3       15 UNK        -0.1800 
     87 C          -2.1883  -28.1926  -50.9552 C.2       15 UNK         0.5000 
     88 O          -2.0604  -28.8450  -51.9910 O.2       15 UNK        -0.5000 
     89 N          -3.3154  -28.1482  -50.2265 N.am      16 UNK        -0.5000 
     90 CA         -4.5697  -28.8810  -50.4279 C.3       16 UNK         0.1400 
     91 CB         -4.3705  -30.3545  -50.0182 C.3       16 UNK        -0.1800 
     92 C          -5.1630  -28.7341  -51.8503 C.2       16 UNK         0.5000 
     93 O          -5.2006  -29.7131  -52.5959 O.2       16 UNK        -0.5000 
     94 N          -5.6225  -27.5459  -52.2642 N.am      17 UNK        -0.5000 
     95 CA         -5.6715  -26.2745  -51.5413 C.3       17 UNK         0.1400 
     96 CB         -7.0313  -26.1222  -50.8349 C.3       17 UNK        -0.1800 
     97 C          -5.3702  -25.1466  -52.5419 C.2       17 UNK         0.5000 
     98 O          -6.1714  -24.2262  -52.7123 O.2       17 UNK        -0.5000 
     99 N          -4.2440  -25.2930  -53.2516 N.am      18 UNK        -0.5000 
    100 CA        -3.7935  -24.3989  -54.3159 C.3       18 UNK         0.1400 
    101 CB        -2.5372  -24.9978  -54.9669 C.3       18 UNK        -0.1800 
    102 C         -3.5118  -22.9686  -53.8199 C.2       18 UNK         0.5000 
    103 O         -2.8664  -22.7981  -52.7849 O.2       18 UNK        -0.5000 
    104 N         -3.9700  -21.9815  -54.6032 N.am      19 UNK        -0.5000 
    105 CA        -3.7696  -20.5387  -54.4221 C.3       19 UNK         0.1400 
    106 CB        -2.2755  -20.1734  -54.5582 C.3       19 UNK        -0.1800 
    107 C         -4.4127  -19.9618  -53.1421 C.2       19 UNK         0.5000 
    108 O         -3.9149  -18.9729  -52.6080 O.2       19 UNK        -0.5000 
    109 N         -5.5354  -20.5498  -52.6982 N.am      20 UNK        -0.5000 
    110 CA        -6.2816  -20.2036  -51.4767 C.3       20 UNK         0.1400 
    111 CB        -7.4880  -21.1461  -51.3491 C.3       20 UNK        -0.1800 
    112 C         -6.7315  -18.7324  -51.3391 C.2       20 UNK         0.5000 
    113 O         -7.0376  -18.2993  -50.2267 O.2       20 UNK        -0.5000 
    114 N         -6.7347  -17.9808  -52.4484 N.am      21 UNK        -0.5000 
    115 CA        -7.0255  -16.5473  -52.5227 C.3       21 UNK         0.1400 
    116 CB        -6.9493  -16.1053  -53.9922 C.3       21 UNK        -0.1800 
    117 C         -6.1201  -15.6550  -51.6448 C.2       21 UNK         0.5000 
    118 O         -6.5459  -14.5576  -51.2814 O.2       21 UNK        -0.5000 
    119 N         -4.9130  -16.1292  -51.3007 N.am      22 UNK        -0.5000 
    120 CA        -4.0229  -15.4797  -50.3220 C.3       22 UNK         0.1400 
    121 C         -4.4691  -15.6185  -48.8324 C.2       22 UNK         0.5000 
    122 N         -5.4700  -16.4277  -48.5007 N.am      22 UNK        -0.7600 
    123 O         -3.9073  -14.9596  -47.9618 O.2       22 UNK        -0.5000 
    124 C124       -2.5383  -15.8745  -50.5293 C.3       23 UNK        -0.0398 
    125 S125       -2.2074  -17.6451  -50.2339 S.3       23 UNK        -0.2404 
    126 C126       -0.8754  -18.0198  -51.4179 C.3       23 UNK        -0.0205 
    127 H127        0.3481  -12.6506  -51.6904 H         1 UNK         0.0600 
    128 H128       -0.6943  -12.9734  -50.3040 H         1 UNK         0.0600 
    129 H129        0.0300  -14.3162  -51.1974 H         1 UNK         0.0600 
    130 H130        2.5814  -12.5979  -51.3867 H         1 UNK         0.3000 
    131 H131        4.5522  -12.4167  -50.5216 H         1 UNK         0.0600 
    132 H132        5.5371  -13.9253  -49.0037 H         1 UNK         0.0800 
    133 H133        4.0749  -14.2210  -48.1322 H         1 UNK         0.0800 
    134 H134        3.9393  -16.9477  -48.1679 H         1 UNK         0.0800 
    135 H135        2.5604  -15.8989  -48.3590 H         1 UNK         0.0800 
    136 H136        0.9428  -16.3166  -50.3186 H         1 UNK         0.1150 
    137 H137        0.1641  -20.4873  -50.8991 H         1 UNK         0.1150 
    138 H138        3.7380  -19.2288  -48.8872 H         1 UNK         0.1150 
    139 H139        1.5705  -22.1395  -49.9725 H         1 UNK         0.0800 
    140 H140        3.2149  -21.7142  -50.3690 H         1 UNK         0.0800 
    141 H141        1.0110  -20.4730  -47.4842 H         1 UNK         0.0800 
    142 H142        1.9486  -20.8587  -46.0825 H         1 UNK         0.0800 
    143 H143        1.0568  -23.2329  -46.1535 H         1 UNK         0.0600 
    144 H144       -0.2898  -20.9283  -45.2533 H         1 UNK         0.3000 
    145 H145       -3.1297  -22.4731  -43.7465 H         1 UNK         0.0600 
    146 H146       -2.2145  -21.1927  -41.8170 H         1 UNK         0.0600 
    147 H147       -1.3055  -22.6722  -42.0844 H         1 UNK         0.0600 
    148 H148       -0.6304  -21.1308  -42.5891 H         1 UNK         0.0600 
    149 H149       -2.1478  -19.7639  -44.0389 H         1 UNK         0.3000 
    150 H150       -4.0363  -18.9991  -46.9650 H         1 UNK         0.0600 
    151 H151       -5.6895  -18.7963  -45.1088 H         1 UNK         0.0600 
    152 H152       -4.9490  -17.2426  -45.4621 H         1 UNK         0.0600 
    153 H153       -4.4431  -18.1582  -44.0428 H         1 UNK         0.0600 
    154 H154       -2.4245  -17.3555  -45.3131 H         1 UNK         0.3000 
    155 H155        0.7047  -17.9984  -46.9406 H         1 UNK         0.0600 
    156 H156        0.4732  -15.5061  -47.0911 H         1 UNK         0.0600 
    157 H157       -1.2708  -15.6563  -46.8796 H         1 UNK         0.0600 
    158 H158       -0.4893  -16.3291  -48.3005 H         1 UNK         0.0600 
    159 H159        0.2667  -16.2300  -44.8700 H         1 UNK         0.3000 
    160 H160        0.0552  -17.1510  -42.3023 H         1 UNK         0.0600 
    161 H161        2.3863  -19.1409  -42.3626 H         1 UNK         0.0600 
    162 H162        0.8117  -19.3846  -41.6223 H         1 UNK         0.0600 
    163 H163        1.9102  -18.1877  -40.9574 H         1 UNK         0.0600 
    164 H164        1.4984  -15.5300  -42.7023 H         1 UNK         0.3000 
    165 H165        4.7202  -15.1303  -43.6226 H         1 UNK         0.0600 
    166 H166        4.2076  -13.8688  -45.6803 H         1 UNK         0.0600 
    167 H167        4.1187  -15.5860  -46.0087 H         1 UNK         0.0600 
    168 H168        2.6352  -14.6590  -45.8234 H         1 UNK         0.0600 
    169 H169        2.1558  -13.6217  -43.6671 H         1 UNK         0.3000 
    170 H170        2.4235  -12.6237  -40.3219 H         1 UNK         0.0600 
    171 H171        4.0098  -10.9410  -41.2135 H         1 UNK         0.0600 
    172 H172        3.0622  -10.7846  -42.6845 H         1 UNK         0.0600 
    173 H173        2.3859  -10.2744  -41.1393 H         1 UNK         0.0600 
    174 H174        0.7893  -11.7991  -42.5705 H         1 UNK         0.3000 
    175 H175       -1.5371  -14.4631  -42.3324 H         1 UNK         0.0600 
    176 H176       -1.9310  -11.6234  -41.2446 H         1 UNK         0.0600 
    177 H177       -3.2076  -12.7212  -41.7717 H         1 UNK         0.0600 
    178 H178       -2.2476  -13.1071  -40.3530 H         1 UNK         0.0600 
    179 H179       -1.7472  -12.0027  -43.6971 H         1 UNK         0.3000 
    180 H180       -0.9883  -13.2569  -46.6950 H         1 UNK         0.0600 
    181 H181       -1.3886  -10.5961  -45.2175 H         1 UNK         0.0600 
    182 H182       -2.6599  -11.7358  -45.6647 H         1 UNK         0.0600 
    183 H183       -1.7454  -10.9107  -46.9097 H         1 UNK         0.0600 
    184 H184        0.9204  -12.4287  -47.3389 H         1 UNK         0.3000 
    185 H185        2.6635   -9.8937  -46.9623 H         1 UNK         0.0600 
    186 H186        4.9517  -10.5637  -46.0754 H         1 UNK         0.0600 
    187 H187        3.8739   -9.9547  -44.8355 H         1 UNK         0.0600 
    188 H188        4.1590  -11.6829  -44.9677 H         1 UNK         0.0600 
    189 H189        2.6161  -12.7027  -47.5467 H         1 UNK         0.3000 
    190 H190       -1.4179  -21.2144  -47.8295 H         1 UNK         0.3000 
    191 H191       -1.6150  -22.8269  -50.1622 H         1 UNK         0.0600 
    192 H192       -2.4067  -20.5127  -50.0998 H         1 UNK         0.0600 
    193 H193       -3.7310  -21.5799  -50.5201 H         1 UNK         0.0600 
    194 H194       -3.6326  -20.9054  -48.8914 H         1 UNK         0.0600 
    195 H195       -3.4767  -22.9390  -47.0683 H         1 UNK         0.3000 
    196 H196       -5.2519  -25.0140  -47.8238 H         1 UNK         0.0600 
    197 H197       -5.5875  -25.2902  -45.3682 H         1 UNK         0.0600 
    198 H198       -5.6173  -23.5958  -45.8300 H         1 UNK         0.0600 
    199 H199       -4.1897  -24.2727  -45.0483 H         1 UNK         0.0600 
    200 H200       -1.9979  -25.1729  -46.3140 H         1 UNK         0.3000 
    201 H201       -1.8549  -27.9860  -46.0254 H         1 UNK         0.0600 
    202 H202       -0.3568  -26.4197  -44.8347 H         1 UNK         0.0600 
    203 H203        0.3770  -25.9131  -46.3546 H         1 UNK         0.0600 
    204 H204        0.5957  -27.5588  -45.7730 H         1 UNK         0.0600 
    205 H205       -1.3882  -25.9808  -48.8865 H         1 UNK         0.3000 
    206 H206       -0.1040  -28.0203  -50.4975 H         1 UNK         0.0600 
    207 H207        0.0974  -25.5462  -50.9424 H         1 UNK         0.0600 
    208 H208       -0.4646  -26.4527  -52.3383 H         1 UNK         0.0600 
    209 H209       -1.6037  -25.5050  -51.4000 H         1 UNK         0.0600 
    210 H210       -3.2999  -27.5757  -49.3908 H         1 UNK         0.3000 
    211 H211       -5.2963  -28.4542  -49.7359 H         1 UNK         0.0600 
    212 H212       -3.6336  -30.8549  -50.6476 H         1 UNK         0.0600 
    213 H213       -5.3042  -30.9127  -50.0964 H         1 UNK         0.0600 
    214 H214       -4.0327  -30.4310  -48.9845 H         1 UNK         0.0600 
    215 H215       -5.9689  -27.4882  -53.2114 H         1 UNK         0.3000 
    216 H216       -4.8957  -26.2262  -50.7833 H         1 UNK         0.0600 
    217 H217       -7.1955  -26.9189  -50.1098 H         1 UNK         0.0600 
    218 H218       -7.8576  -26.1418  -51.5462 H         1 UNK         0.0600 
    219 H219       -7.0837  -25.1767  -50.2933 H         1 UNK         0.0600 
    220 H220       -3.6461  -26.0785  -53.0444 H         1 UNK         0.3000 
    221 H221       -4.5843  -24.3622  -55.0680 H         1 UNK         0.0600 
    222 H222       -1.7186  -25.0870  -54.2515 H         1 UNK         0.0600 
    223 H223       -2.7362  -25.9887  -55.3755 H         1 UNK         0.0600 
    224 H224       -2.1869  -24.3721  -55.7888 H         1 UNK         0.0600 
    225 H225       -4.4940  -22.2379  -55.4285 H         1 UNK         0.3000 
    226 H226       -4.2929  -20.0590  -55.2503 H         1 UNK         0.0600 
    227 H227       -1.8583  -20.5596  -55.4881 H         1 UNK         0.0600 
    228 H228       -2.1335  -19.0921  -54.5662 H         1 UNK         0.0600 
    229 H229       -1.6843  -20.5739  -53.7343 H         1 UNK         0.0600 
    230 H230       -5.8665  -21.3623  -53.1991 H         1 UNK         0.3000 
    231 H231       -5.6242  -20.3896  -50.6282 H         1 UNK         0.0600 
    232 H232       -8.0731  -20.9208  -50.4563 H         1 UNK         0.0600 
    233 H233       -7.1689  -22.1848  -51.2671 H         1 UNK         0.0600 
    234 H234       -8.1542  -21.0640  -52.2085 H         1 UNK         0.0600 
    235 H235       -6.4451  -18.4224  -53.3078 H         1 UNK         0.3000 
    236 H236       -8.0506  -16.4059  -52.1749 H         1 UNK         0.0600 
    237 H237       -7.6572  -16.6590  -54.6093 H         1 UNK         0.0600 
    238 H238       -7.1898  -15.0463  -54.0959 H         1 UNK         0.0600 
    239 H239       -5.9511  -16.2574  -54.4049 H         1 UNK         0.0600 
    240 H240       -4.6234  -17.0428  -51.6317 H         1 UNK         0.3000 
    241 H241       -4.0717  -14.4077  -50.5224 H         1 UNK         0.0600 
    242 H242       -5.9503  -16.9873  -49.1974 H         1 UNK         0.3800 
    243 H243       -5.7554  -16.4823  -47.5378 H         1 UNK         0.3800 
    244 H244       -2.2445  -15.6147  -51.5464 H         1 UNK         0.0800 
    245 H245       -1.8949  -15.2866  -49.8740 H         1 UNK         0.0800 
    246 H246       -1.1955  -18.8589  -52.0358 H         1 UNK         0.0800 
    247 H247       -0.7105  -17.1882  -52.1031 H         1 UNK         0.0800 
@<TRIPOS>BOND
     1    1    2 1    
     2    1  127 1    
     3    1  128 1    
     4    1  129 1    
     5    2    3 2    
     6    2    4 am   BACKBONE|DICT|INTERRES
     7    4    5 1    
     8    4  130 1    
     9    5    6 1    
    10    5   65 1    
    11    5  131 1    
    12    6    7 1    
    13    6  132 1    
    14    6  133 1    
    15    7    8 1    
    16    8    9 1    
    17    8  134 1    
    18    8  135 1    
    19    9   10 ar   
    20    9   14 ar   
    21   10   11 ar   
    22   10  136 1    
    23   11   12 ar   
    24   11  126 1    
    25   12   13 ar   
    26   12  137 1    
    27   13   14 ar   
    28   13   15 1    
    29   14  138 1    
    30   15   16 1    
    31   15  139 1    
    32   15  140 1    
    33   16   17 1    
    34   17   18 1    
    35   17  141 1    
    36   17  142 1    
    37   18   19 1    
    38   18   67 1    
    39   18  143 1    
    40   19   20 am   BACKBONE|DICT|INTERRES
    41   19  144 1    
    42   20   21 2    
    43   20   22 1    
    44   22   23 1    
    45   22   24 1    
    46   22  145 1    
    47   23  146 1    
    48   23  147 1    
    49   23  148 1    
    50   24   25 am   BACKBONE|DICT|INTERRES
    51   24  149 1    
    52   25   26 2    
    53   25   27 1    
    54   27   28 1    
    55   27   29 1    
    56   27  150 1    
    57   28  151 1    
    58   28  152 1    
    59   28  153 1    
    60   29   30 am   BACKBONE|DICT|INTERRES
    61   29  154 1    
    62   30   31 2    
    63   30   32 1    
    64   32   33 1    
    65   32   34 1    
    66   32  155 1    
    67   33  156 1    
    68   33  157 1    
    69   33  158 1    
    70   34   35 am   BACKBONE|DICT|INTERRES
    71   34  159 1    
    72   35   36 2    
    73   35   37 1    
    74   37   38 1    
    75   37   39 1    
    76   37  160 1    
    77   38  161 1    
    78   38  162 1    
    79   38  163 1    
    80   39   40 am   BACKBONE|DICT|INTERRES
    81   39  164 1    
    82   40   41 2    
    83   40   42 1    
    84   42   43 1    
    85   42   44 1    
    86   42  165 1    
    87   43  166 1    
    88   43  167 1    
    89   43  168 1    
    90   44   45 am   BACKBONE|DICT|INTERRES
    91   44  169 1    
    92   45   46 2    
    93   45   47 1    
    94   47   48 1    
    95   47   49 1    
    96   47  170 1    
    97   48  171 1    
    98   48  172 1    
    99   48  173 1    
   100   49   50 am   BACKBONE|DICT|INTERRES
   101   49  174 1    
   102   50   51 2    
   103   50   52 1    
   104   52   53 1    
   105   52   54 1    
   106   52  175 1    
   107   53  176 1    
   108   53  177 1    
   109   53  178 1    
   110   54   55 am   BACKBONE|DICT|INTERRES
   111   54  179 1    
   112   55   56 2    
   113   55   57 1    
   114   57   58 1    
   115   57   59 1    
   116   57  180 1    
   117   58  181 1    
   118   58  182 1    
   119   58  183 1    
   120   59   60 am   BACKBONE|DICT|INTERRES
   121   59  184 1    
   122   60   61 2    
   123   60   62 1    
   124   62   63 1    
   125   62   64 1    
   126   62  185 1    
   127   63  186 1    
   128   63  187 1    
   129   63  188 1    
   130   64   65 am   BACKBONE|DICT|INTERRES
   131   64  189 1    
   132   65   66 2    
   133   67   68 2    
   134   67   69 am   BACKBONE|DICT|INTERRES
   135   69   70 1    
   136   69  190 1    
   137   70   71 1    
   138   70   72 1    
   139   70  191 1    
   140   71  192 1    
   141   71  193 1    
   142   71  194 1    
   143   72   73 2    
   144   72   74 am   BACKBONE|DICT|INTERRES
   145   74   75 1    
   146   74  195 1    
   147   75   76 1    
   148   75   77 1    
   149   75  196 1    
   150   76  197 1    
   151   76  198 1    
   152   76  199 1    
   153   77   78 2    
   154   77   79 am   BACKBONE|DICT|INTERRES
   155   79   80 1    
   156   79  200 1    
   157   80   81 1    
   158   80   82 1    
   159   80  201 1    
   160   81  202 1    
   161   81  203 1    
   162   81  204 1    
   163   82   83 2    
   164   82   84 am   BACKBONE|DICT|INTERRES
   165   84   85 1    
   166   84  205 1    
   167   85   86 1    
   168   85   87 1    
   169   85  206 1    
   170   86  207 1    
   171   86  208 1    
   172   86  209 1    
   173   87   88 2    
   174   87   89 am   BACKBONE|DICT|INTERRES
   175   89   90 1    
   176   89  210 1    
   177   90   91 1    
   178   90   92 1    
   179   90  211 1    
   180   91  212 1    
   181   91  213 1    
   182   91  214 1    
   183   92   93 2    
   184   92   94 am   BACKBONE|DICT|INTERRES
   185   94   95 1    
   186   94  215 1    
   187   95   96 1    
   188   95   97 1    
   189   95  216 1    
   190   96  217 1    
   191   96  218 1    
   192   96  219 1    
   193   97   98 2    
   194   97   99 am   BACKBONE|DICT|INTERRES
   195   99  100 1    
   196   99  220 1    
   197  100  101 1    
   198  100  102 1    
   199  100  221 1    
   200  101  222 1    
   201  101  223 1    
   202  101  224 1    
   203  102  103 2    
   204  102  104 am   BACKBONE|DICT|INTERRES
   205  104  105 1    
   206  104  225 1    
   207  105  106 1    
   208  105  107 1    
   209  105  226 1    
   210  106  227 1    
   211  106  228 1    
   212  106  229 1    
   213  107  108 2    
   214  107  109 am   BACKBONE|DICT|INTERRES
   215  109  110 1    
   216  109  230 1    
   217  110  111 1    
   218  110  112 1    
   219  110  231 1    
   220  111  232 1    
   221  111  233 1    
   222  111  234 1    
   223  112  113 2    
   224  112  114 am   BACKBONE|DICT|INTERRES
   225  114  115 1    
   226  114  235 1    
   227  115  116 1    
   228  115  117 1    
   229  115  236 1    
   230  116  237 1    
   231  116  238 1    
   232  116  239 1    
   233  117  118 2    
   234  117  119 am   BACKBONE|DICT|INTERRES
   235  119  120 1    
   236  119  240 1    
   237  120  121 1    
   238  120  124 1    
   239  120  241 1    
   240  121  122 am   BACKBONE|DICT|INTERRES
   241  121  123 2    
   242  122  242 1    
   243  122  243 1    
   244  124  125 1    
   245  124  244 1    
   246  124  245 1    
   247  125  126 1    
   248  126  246 1    
   249  126  247 1    
@<TRIPOS>SUBSTRUCTURE
     1 UNK         1 GROUP             0       ****    0 ROOT    
