@<TRIPOS>MOLECULE
3R540
247   249    1
SMALL
USER_CHARGES


@<TRIPOS>ATOM
      1 CA         -0.1618  -11.9314  -45.0349 C.3       0 UNK        -0.1800 
      2 C           1.1746  -11.7578  -45.7413 C.2       0 UNK         0.5000 
      3 O           2.2233  -11.9588  -45.1296 O.2       0 UNK        -0.5000 
      4 N           1.1410  -11.3812  -47.0264 N.am      1 UNK        -0.5000 
      5 CA          2.3008  -11.1734  -47.9045 C.3       1 UNK         0.1400 
      6 C6          3.1185  -12.4715  -48.1700 C.3       23 UNK        -0.0398 
      7 S7          2.0742  -13.7987  -48.8508 S.3       23 UNK        -0.2404 
      8 C8          3.2932  -14.8160  -49.7371 C.3       23 UNK        -0.0205 
      9 C9          2.6660  -16.1102  -50.2352 C.ar      23 UNK        -0.0193 
     10 C10         1.6467  -16.0671  -51.1891 C.ar      23 UNK        -0.1150 
     11 C11         1.0411  -17.2409  -51.6454 C.ar      23 UNK        -0.0193 
     12 C12         1.4944  -18.4747  -51.1671 C.ar      23 UNK        -0.1150 
     13 C13         2.5358  -18.5358  -50.2336 C.ar      23 UNK        -0.0193 
     14 C14         3.1058  -17.3493  -49.7594 C.ar      23 UNK        -0.1150 
     15 C15         3.0841  -19.8804  -49.7734 C.3       23 UNK        -0.0205 
     16 S16         2.3280  -20.4525  -48.2206 S.3       23 UNK        -0.2404 
     17 C17         0.6801  -20.9660  -48.8005 C.3       23 UNK        -0.0398 
     18 CA         -0.0286  -21.9439  -47.8322 C.3       11 UNK         0.1400 
     19 N          -0.3157  -21.3572  -46.5168 N.am      11 UNK        -0.5000 
     20 C          -0.8395  -22.0294  -45.4798 C.2       10 UNK         0.5000 
     21 O          -1.0786  -23.2359  -45.4980 O.2       10 UNK        -0.5000 
     22 CA         -1.2102  -21.2212  -44.2247 C.3       10 UNK         0.1400 
     23 CB          0.0040  -21.0540  -43.3040 C.3       10 UNK        -0.1800 
     24 N          -1.7770  -19.9141  -44.5500 N.am      10 UNK        -0.5000 
     25 C          -2.9586  -19.7359  -45.1550 C.2       9 UNK         0.5000 
     26 O          -3.7213  -20.6573  -45.4469 O.2       9 UNK        -0.5000 
     27 CA         -3.3260  -18.2954  -45.5537 C.3       9 UNK         0.1400 
     28 CB         -3.8842  -17.5015  -44.3634 C.3       9 UNK        -0.1800 
     29 N          -2.2040  -17.5761  -46.1622 N.am      9 UNK        -0.5000 
     30 C          -1.6784  -17.9049  -47.3509 C.2       8 UNK         0.5000 
     31 O          -2.0701  -18.8565  -48.0266 O.2       8 UNK        -0.5000 
     32 CA         -0.5260  -17.0320  -47.8816 C.3       8 UNK         0.1400 
     33 CB         -1.0958  -15.7282  -48.4620 C.3       8 UNK        -0.1800 
     34 N           0.5507  -16.7117  -46.9343 N.am      8 UNK        -0.5000 
     35 C           1.1702  -17.5558  -46.0940 C.2       7 UNK         0.5000 
     36 O           0.7891  -18.7073  -45.8843 O.2       7 UNK        -0.5000 
     37 CA          2.4403  -17.0459  -45.3747 C.3       7 UNK         0.1400 
     38 CB          2.8903  -15.6338  -45.7933 C.3       7 UNK        -0.1800 
     39 N           2.2306  -17.0626  -43.9315 N.am      7 UNK        -0.5000 
     40 C           2.4591  -18.1129  -43.1303 C.2       6 UNK         0.5000 
     41 O           3.0683  -19.1224  -43.4863 O.2       6 UNK        -0.5000 
     42 CA          1.9249  -18.0386  -41.6808 C.3       6 UNK         0.1400 
     43 CB          3.0807  -17.8061  -40.6949 C.3       6 UNK        -0.1800 
     44 N           0.9112  -17.0048  -41.4575 N.am      6 UNK        -0.5000 
     45 C          -0.2787  -16.9166  -42.0691 C.2       5 UNK         0.5000 
     46 O          -0.7192  -17.7772  -42.8287 O.2       5 UNK        -0.5000 
     47 CA         -1.0870  -15.6190  -41.8485 C.3       5 UNK         0.1400 
     48 CB         -2.2230  -15.8614  -40.8434 C.3       5 UNK        -0.1800 
     49 N          -0.2962  -14.4610  -41.4053 N.am      5 UNK        -0.5000 
     50 C           0.7678  -13.9478  -42.0399 C.2       4 UNK         0.5000 
     51 O           1.2206  -14.4198  -43.0862 O.2       4 UNK        -0.5000 
     52 CA          1.4672  -12.7486  -41.3754 C.3       4 UNK         0.1400 
     53 CB          1.7009  -12.9714  -39.8656 C.3       4 UNK        -0.1800 
     54 N           2.7420  -12.5387  -42.0509 N.am      4 UNK        -0.5000 
     55 C           3.5007  -11.4400  -42.0149 C.2       3 UNK         0.5000 
     56 O           3.1957  -10.4166  -41.4002 O.2       3 UNK        -0.5000 
     57 CA          4.8259  -11.4840  -42.7932 C.3       3 UNK         0.1400 
     58 CB          5.3547  -12.9106  -43.0521 C.3       3 UNK        -0.1800 
     59 N           4.6410  -10.8067  -44.0703 N.am      3 UNK        -0.5000 
     60 C           5.4706   -9.8951  -44.5962 C.2       2 UNK         0.5000 
     61 O           6.4912   -9.5008  -44.0292 O.2       2 UNK        -0.5000 
     62 CA          5.1185   -9.3489  -45.9960 C.3       2 UNK         0.1400 
     63 CB          6.3675   -9.0402  -46.8422 C.3       2 UNK        -0.1800 
     64 N           4.2726  -10.2973  -46.7190 N.am      2 UNK        -0.5000 
     65 C           3.1492   -9.9941  -47.3785 C.2       1 UNK         0.5000 
     66 O           2.7453   -8.8421  -47.5496 O.2       1 UNK        -0.5000 
     67 C          -1.3048  -22.5094  -48.4871 C.2       11 UNK         0.5000 
     68 O          -1.3057  -23.6650  -48.9133 O.2       11 UNK        -0.5000 
     69 N          -2.3753  -21.7022  -48.5125 N.am      12 UNK        -0.5000 
     70 CA         -3.6930  -22.0861  -49.0162 C.3       12 UNK         0.1400 
     71 CB         -4.6237  -20.8649  -49.0058 C.3       12 UNK        -0.1800 
     72 C          -4.3139  -23.2460  -48.2195 C.2       12 UNK         0.5000 
     73 O          -4.8431  -24.1758  -48.8265 O.2       12 UNK        -0.5000 
     74 N          -4.2134  -23.1888  -46.8831 N.am      13 UNK        -0.5000 
     75 CA         -4.6972  -24.2242  -45.9690 C.3       13 UNK         0.1400 
     76 CB         -4.6007  -23.7281  -44.5191 C.3       13 UNK        -0.1800 
     77 C          -3.9626  -25.5659  -46.1380 C.2       13 UNK         0.5000 
     78 O          -4.6182  -26.6058  -46.2036 O.2       13 UNK        -0.5000 
     79 N          -2.6269  -25.5229  -46.2507 N.am      14 UNK        -0.5000 
     80 CA         -1.7711  -26.6895  -46.4890 C.3       14 UNK         0.1400 
     81 CB         -0.2964  -26.2759  -46.3733 C.3       14 UNK        -0.1800 
     82 C          -2.0384  -27.3630  -47.8481 C.2       14 UNK         0.5000 
     83 O          -1.9860  -28.5894  -47.9440 O.2       14 UNK        -0.5000 
     84 N          -2.3597  -26.5485  -48.8599 N.am      15 UNK        -0.5000 
     85 CA         -2.7691  -26.9795  -50.1957 C.3       15 UNK         0.1400 
     86 CB         -2.4173  -25.8596  -51.1836 C.3       15 UNK        -0.1800 
     87 C          -4.2658  -27.3501  -50.2926 C.2       15 UNK         0.5000 
     88 O          -4.7251  -27.6922  -51.3830 O.2       15 UNK        -0.5000 
     89 N          -5.0113  -27.2506  -49.1796 N.am      16 UNK        -0.5000 
     90 CA         -6.4476  -27.5242  -49.0338 C.3       16 UNK         0.1400 
     91 CB         -6.7167  -29.0377  -49.1609 C.3       16 UNK        -0.1800 
     92 C          -7.3375  -26.6796  -49.9737 C.2       16 UNK         0.5000 
     93 O          -8.3958  -27.1415  -50.4032 O.2       16 UNK        -0.5000 
     94 N          -6.8665  -25.4669  -50.2992 N.am      17 UNK        -0.5000 
     95 CA         -7.4206  -24.4946  -51.2462 C.3       17 UNK         0.1400 
     96 CB         -8.7783  -23.9594  -50.7488 C.3       17 UNK        -0.1800 
     97 C          -7.4804  -24.9766  -52.7146 C.2       17 UNK         0.5000 
     98 O          -8.0788  -24.2911  -53.5452 O.2       17 UNK        -0.5000 
     99 N          -6.8448  -26.1150  -53.0340 N.am      18 UNK        -0.5000 
    100 CA        -6.7304  -26.6468  -54.3963 C.3       18 UNK         0.1400 
    101 CB        -6.4422  -28.1540  -54.3259 C.3       18 UNK        -0.1800 
    102 C         -5.6418  -25.9228  -55.2127 C.2       18 UNK         0.5000 
    103 O         -5.6670  -25.9633  -56.4434 O.2       18 UNK        -0.5000 
    104 N         -4.7203  -25.2634  -54.5071 N.am      19 UNK        -0.5000 
    105 CA        -3.6712  -24.3933  -55.0124 C.3       19 UNK         0.1400 
    106 CB        -2.4338  -25.2313  -55.3813 C.3       19 UNK        -0.1800 
    107 C         -3.3608  -23.3672  -53.9113 C.2       19 UNK         0.5000 
    108 O         -3.8893  -23.4826  -52.8018 O.2       19 UNK        -0.5000 
    109 N         -2.5202  -22.3764  -54.2383 N.am      20 UNK        -0.5000 
    110 CA        -1.9740  -21.3455  -53.3408 C.3       20 UNK         0.1400 
    111 CB        -1.0489  -21.9871  -52.2866 C.3       20 UNK        -0.1800 
    112 C         -3.0153  -20.4065  -52.6905 C.2       20 UNK         0.5000 
    113 O         -2.6605  -19.6367  -51.7982 O.2       20 UNK        -0.5000 
    114 N         -4.2683  -20.4444  -53.1620 N.am      21 UNK        -0.5000 
    115 CA        -5.3966  -19.6443  -52.6843 C.3       21 UNK         0.1400 
    116 CB        -6.7015  -20.3916  -53.0144 C.3       21 UNK        -0.1800 
    117 C         -5.3586  -18.2096  -53.2511 C.2       21 UNK         0.5000 
    118 O         -6.3073  -17.7672  -53.9012 O.2       21 UNK        -0.5000 
    119 N         -4.2384  -17.5203  -53.0147 N.am      22 UNK        -0.5000 
    120 CA        -3.9567  -16.1519  -53.4703 C.3       22 UNK         0.1400 
    121 C         -4.6522  -15.0238  -52.6503 C.2       22 UNK         0.5000 
    122 N         -5.2980  -15.3148  -51.5273 N.am      22 UNK        -0.7600 
    123 O         -4.6210  -13.8637  -53.0523 O.2       22 UNK        -0.5000 
    124 C124       -2.4318  -15.9146  -53.6216 C.3       23 UNK        -0.0398 
    125 S125       -1.4844  -16.1765  -52.0801 S.3       23 UNK        -0.2404 
    126 C126       -0.0750  -17.1637  -52.6788 C.3       23 UNK        -0.0205 
    127 H127       -0.1426  -11.4316  -44.0667 H         1 UNK         0.0600 
    128 H128       -0.9842  -11.5150  -45.6167 H         1 UNK         0.0600 
    129 H129       -0.3609  -12.9903  -44.8712 H         1 UNK         0.0600 
    130 H130        0.2455  -11.2106  -47.4609 H         1 UNK         0.3000 
    131 H131        1.8969  -10.8459  -48.8639 H         1 UNK         0.0600 
    132 H132        3.9288  -12.2676  -48.8721 H         1 UNK         0.0800 
    133 H133        3.5798  -12.8537  -47.2585 H         1 UNK         0.0800 
    134 H134        3.6871  -14.2549  -50.5856 H         1 UNK         0.0800 
    135 H135        4.1381  -15.0248  -49.0793 H         1 UNK         0.0800 
    136 H136        1.3076  -15.1110  -51.5629 H         1 UNK         0.1150 
    137 H137        1.0493  -19.3883  -51.5339 H         1 UNK         0.1150 
    138 H138        3.9047  -17.3943  -49.0326 H         1 UNK         0.1150 
    139 H139        2.9508  -20.6343  -50.5508 H         1 UNK         0.0800 
    140 H140        4.1614  -19.7978  -49.6221 H         1 UNK         0.0800 
    141 H141        0.8095  -21.4420  -49.7734 H         1 UNK         0.0800 
    142 H142        0.0763  -20.0746  -48.9716 H         1 UNK         0.0800 
    143 H143        0.6417  -22.7893  -47.6628 H         1 UNK         0.0600 
    144 H144       -0.0913  -20.3727  -46.3943 H         1 UNK         0.3000 
    145 H145       -1.9675  -21.7845  -43.6766 H         1 UNK         0.0600 
    146 H146       -0.2645  -20.5269  -42.3887 H         1 UNK         0.0600 
    147 H147        0.4133  -22.0230  -43.0162 H         1 UNK         0.0600 
    148 H148        0.7984  -20.4958  -43.7972 H         1 UNK         0.0600 
    149 H149       -1.2096  -19.1031  -44.3238 H         1 UNK         0.3000 
    150 H150       -4.1187  -18.3612  -46.3024 H         1 UNK         0.0600 
    151 H151       -4.7444  -18.0107  -43.9273 H         1 UNK         0.0600 
    152 H152       -4.2157  -16.5098  -44.6713 H         1 UNK         0.0600 
    153 H153       -3.1460  -17.3773  -43.5738 H         1 UNK         0.0600 
    154 H154       -1.8031  -16.8100  -45.6426 H         1 UNK         0.3000 
    155 H155       -0.0647  -17.5863  -48.7008 H         1 UNK         0.0600 
    156 H156       -0.3757  -15.2417  -49.1168 H         1 UNK         0.0600 
    157 H157       -1.3751  -15.0228  -47.6788 H         1 UNK         0.0600 
    158 H158       -1.9854  -15.9180  -49.0644 H         1 UNK         0.0600 
    159 H159        0.9456  -15.7877  -47.0340 H         1 UNK         0.3000 
    160 H160        3.2467  -17.7346  -45.6349 H         1 UNK         0.0600 
    161 H161        2.1189  -14.8818  -45.6226 H         1 UNK         0.0600 
    162 H162        3.1602  -15.6147  -46.8480 H         1 UNK         0.0600 
    163 H163        3.7748  -15.3255  -45.2362 H         1 UNK         0.0600 
    164 H164        1.7458  -16.2564  -43.5496 H         1 UNK         0.3000 
    165 H165        1.4685  -19.0037  -41.4544 H         1 UNK         0.0600 
    166 H166        3.5612  -16.8410  -40.8610 H         1 UNK         0.0600 
    167 H167        2.7322  -17.8360  -39.6624 H         1 UNK         0.0600 
    168 H168        3.8461  -18.5762  -40.7996 H         1 UNK         0.0600 
    169 H169        1.1815  -16.2412  -40.8566 H         1 UNK         0.3000 
    170 H170       -1.5323  -15.3570  -42.8104 H         1 UNK         0.0600 
    171 H171       -2.8450  -16.7040  -41.1483 H         1 UNK         0.0600 
    172 H172       -1.8370  -16.0831  -39.8477 H         1 UNK         0.0600 
    173 H173       -2.8749  -14.9911  -40.7663 H         1 UNK         0.0600 
    174 H174       -0.5985  -14.0254  -40.5459 H         1 UNK         0.3000 
    175 H175        0.8369  -11.8703  -41.5261 H         1 UNK         0.0600 
    176 H176        2.2369  -12.1349  -39.4173 H         1 UNK         0.0600 
    177 H177        0.7604  -13.0653  -39.3224 H         1 UNK         0.0600 
    178 H178        2.2837  -13.8746  -39.6800 H         1 UNK         0.0600 
    179 H179        2.9936  -13.2922  -42.6792 H         1 UNK         0.3000 
    180 H180        5.5598  -10.9567  -42.1803 H         1 UNK         0.0600 
    181 H181        4.7102  -13.4694  -43.7319 H         1 UNK         0.0600 
    182 H182        5.4355  -13.4765  -42.1231 H         1 UNK         0.0600 
    183 H183        6.3494  -12.8792  -43.4969 H         1 UNK         0.0600 
    184 H184        3.7839  -11.0530  -44.5621 H         1 UNK         0.3000 
    185 H185        4.5776   -8.4156  -45.8274 H         1 UNK         0.0600 
    186 H186        6.0918   -8.6461  -47.8205 H         1 UNK         0.0600 
    187 H187        6.9968   -8.2915  -46.3596 H         1 UNK         0.0600 
    188 H188        6.9750   -9.9321  -46.9991 H         1 UNK         0.0600 
    189 H189        4.5114  -11.2704  -46.5902 H         1 UNK         0.3000 
    190 H190       -2.2821  -20.7471  -48.1742 H         1 UNK         0.3000 
    191 H191       -3.5714  -22.4145  -50.0506 H         1 UNK         0.0600 
    192 H192       -4.1899  -20.0364  -49.5647 H         1 UNK         0.0600 
    193 H193       -5.5851  -21.1038  -49.4620 H         1 UNK         0.0600 
    194 H194       -4.8159  -20.5116  -47.9923 H         1 UNK         0.0600 
    195 H195       -3.8040  -22.3622  -46.4580 H         1 UNK         0.3000 
    196 H196       -5.7516  -24.3952  -46.1959 H         1 UNK         0.0600 
    197 H197       -4.9871  -24.4748  -43.8243 H         1 UNK         0.0600 
    198 H198       -5.1823  -22.8176  -44.3741 H         1 UNK         0.0600 
    199 H199       -3.5704  -23.5166  -44.2338 H         1 UNK         0.0600 
    200 H200       -2.1517  -24.6286  -46.1483 H         1 UNK         0.3000 
    201 H201       -1.9822  -27.4235  -45.7087 H         1 UNK         0.0600 
    202 H202       -0.0746  -25.8835  -45.3808 H         1 UNK         0.0600 
    203 H203       -0.0370  -25.5069  -47.1022 H         1 UNK         0.0600 
    204 H204        0.3645  -27.1271  -46.5418 H         1 UNK         0.0600 
    205 H205       -2.3308  -25.5468  -48.7025 H         1 UNK         0.3000 
    206 H206       -2.2006  -27.8684  -50.4756 H         1 UNK         0.0600 
    207 H207       -1.3450  -25.6640  -51.1957 H         1 UNK         0.0600 
    208 H208       -2.7133  -26.1164  -52.2007 H         1 UNK         0.0600 
    209 H209       -2.9196  -24.9307  -50.9136 H         1 UNK         0.0600 
    210 H210       -4.5543  -26.9280  -48.3354 H         1 UNK         0.3000 
    211 H211       -6.7126  -27.2243  -48.0192 H         1 UNK         0.0600 
    212 H212       -6.5272  -29.3979  -50.1726 H         1 UNK         0.0600 
    213 H213       -7.7530  -29.2745  -48.9173 H         1 UNK         0.0600 
    214 H214       -6.0866  -29.6078  -48.4782 H         1 UNK         0.0600 
    215 H215       -6.0044  -25.1673  -49.8451 H         1 UNK         0.3000 
    216 H216       -6.7194  -23.6586  -51.2427 H         1 UNK         0.0600 
    217 H217       -8.7064  -23.5970  -49.7233 H         1 UNK         0.0600 
    218 H218       -9.5526  -24.7261  -50.7816 H         1 UNK         0.0600 
    219 H219       -9.1195  -23.1246  -51.3622 H         1 UNK         0.0600 
    220 H220       -6.3531  -26.6249  -52.3085 H         1 UNK         0.3000 
    221 H221       -7.6830  -26.5071  -54.9115 H         1 UNK         0.0600 
    222 H222       -5.4736  -28.3587  -53.8688 H         1 UNK         0.0600 
    223 H223       -7.2041  -28.6758  -53.7464 H         1 UNK         0.0600 
    224 H224       -6.4320  -28.5950  -55.3234 H         1 UNK         0.0600 
    225 H225       -4.8148  -25.2313  -53.4992 H         1 UNK         0.3000 
    226 H226       -4.0340  -23.8562  -55.8910 H         1 UNK         0.0600 
    227 H227       -2.6746  -25.9781  -56.1380 H         1 UNK         0.0600 
    228 H228       -1.6390  -24.6058  -55.7885 H         1 UNK         0.0600 
    229 H229       -2.0286  -25.7544  -54.5146 H         1 UNK         0.0600 
    230 H230       -2.1666  -22.3478  -55.1848 H         1 UNK         0.3000 
    231 H231       -1.3548  -20.7015  -53.9668 H         1 UNK         0.0600 
    232 H232       -0.5549  -21.2247  -51.6855 H         1 UNK         0.0600 
    233 H233       -0.2682  -22.5848  -52.7566 H         1 UNK         0.0600 
    234 H234       -1.5998  -22.6342  -51.6039 H         1 UNK         0.0600 
    235 H235       -4.4659  -21.0907  -53.9105 H         1 UNK         0.3000 
    236 H236       -5.3340  -19.5582  -51.5987 H         1 UNK         0.0600 
    237 H237       -7.5694  -19.8522  -52.6333 H         1 UNK         0.0600 
    238 H238       -6.8351  -20.5149  -54.0898 H         1 UNK         0.0600 
    239 H239       -6.7127  -21.3831  -52.5608 H         1 UNK         0.0600 
    240 H240       -3.5087  -17.9693  -52.4686 H         1 UNK         0.3000 
    241 H241       -4.3787  -16.0619  -54.4731 H         1 UNK         0.0600 
    242 H242       -5.3262  -16.2612  -51.1855 H         1 UNK         0.3800 
    243 H243       -5.7511  -14.5784  -51.0096 H         1 UNK         0.3800 
    244 H244       -2.0471  -16.5832  -54.3927 H         1 UNK         0.0800 
    245 H245       -2.2309  -14.9055  -53.9853 H         1 UNK         0.0800 
    246 H246       -0.4287  -18.1605  -52.9465 H         1 UNK         0.0800 
    247 H247        0.3248  -16.7145  -53.5889 H         1 UNK         0.0800 
@<TRIPOS>BOND
     1    1    2 1    
     2    1  127 1    
     3    1  128 1    
     4    1  129 1    
     5    2    3 2    
     6    2    4 am   BACKBONE|DICT|INTERRES
     7    4    5 1    
     8    4  130 1    
     9    5    6 1    
    10    5   65 1    
    11    5  131 1    
    12    6    7 1    
    13    6  132 1    
    14    6  133 1    
    15    7    8 1    
    16    8    9 1    
    17    8  134 1    
    18    8  135 1    
    19    9   10 ar   
    20    9   14 ar   
    21   10   11 ar   
    22   10  136 1    
    23   11   12 ar   
    24   11  126 1    
    25   12   13 ar   
    26   12  137 1    
    27   13   14 ar   
    28   13   15 1    
    29   14  138 1    
    30   15   16 1    
    31   15  139 1    
    32   15  140 1    
    33   16   17 1    
    34   17   18 1    
    35   17  141 1    
    36   17  142 1    
    37   18   19 1    
    38   18   67 1    
    39   18  143 1    
    40   19   20 am   BACKBONE|DICT|INTERRES
    41   19  144 1    
    42   20   21 2    
    43   20   22 1    
    44   22   23 1    
    45   22   24 1    
    46   22  145 1    
    47   23  146 1    
    48   23  147 1    
    49   23  148 1    
    50   24   25 am   BACKBONE|DICT|INTERRES
    51   24  149 1    
    52   25   26 2    
    53   25   27 1    
    54   27   28 1    
    55   27   29 1    
    56   27  150 1    
    57   28  151 1    
    58   28  152 1    
    59   28  153 1    
    60   29   30 am   BACKBONE|DICT|INTERRES
    61   29  154 1    
    62   30   31 2    
    63   30   32 1    
    64   32   33 1    
    65   32   34 1    
    66   32  155 1    
    67   33  156 1    
    68   33  157 1    
    69   33  158 1    
    70   34   35 am   BACKBONE|DICT|INTERRES
    71   34  159 1    
    72   35   36 2    
    73   35   37 1    
    74   37   38 1    
    75   37   39 1    
    76   37  160 1    
    77   38  161 1    
    78   38  162 1    
    79   38  163 1    
    80   39   40 am   BACKBONE|DICT|INTERRES
    81   39  164 1    
    82   40   41 2    
    83   40   42 1    
    84   42   43 1    
    85   42   44 1    
    86   42  165 1    
    87   43  166 1    
    88   43  167 1    
    89   43  168 1    
    90   44   45 am   BACKBONE|DICT|INTERRES
    91   44  169 1    
    92   45   46 2    
    93   45   47 1    
    94   47   48 1    
    95   47   49 1    
    96   47  170 1    
    97   48  171 1    
    98   48  172 1    
    99   48  173 1    
   100   49   50 am   BACKBONE|DICT|INTERRES
   101   49  174 1    
   102   50   51 2    
   103   50   52 1    
   104   52   53 1    
   105   52   54 1    
   106   52  175 1    
   107   53  176 1    
   108   53  177 1    
   109   53  178 1    
   110   54   55 am   BACKBONE|DICT|INTERRES
   111   54  179 1    
   112   55   56 2    
   113   55   57 1    
   114   57   58 1    
   115   57   59 1    
   116   57  180 1    
   117   58  181 1    
   118   58  182 1    
   119   58  183 1    
   120   59   60 am   BACKBONE|DICT|INTERRES
   121   59  184 1    
   122   60   61 2    
   123   60   62 1    
   124   62   63 1    
   125   62   64 1    
   126   62  185 1    
   127   63  186 1    
   128   63  187 1    
   129   63  188 1    
   130   64   65 am   BACKBONE|DICT|INTERRES
   131   64  189 1    
   132   65   66 2    
   133   67   68 2    
   134   67   69 am   BACKBONE|DICT|INTERRES
   135   69   70 1    
   136   69  190 1    
   137   70   71 1    
   138   70   72 1    
   139   70  191 1    
   140   71  192 1    
   141   71  193 1    
   142   71  194 1    
   143   72   73 2    
   144   72   74 am   BACKBONE|DICT|INTERRES
   145   74   75 1    
   146   74  195 1    
   147   75   76 1    
   148   75   77 1    
   149   75  196 1    
   150   76  197 1    
   151   76  198 1    
   152   76  199 1    
   153   77   78 2    
   154   77   79 am   BACKBONE|DICT|INTERRES
   155   79   80 1    
   156   79  200 1    
   157   80   81 1    
   158   80   82 1    
   159   80  201 1    
   160   81  202 1    
   161   81  203 1    
   162   81  204 1    
   163   82   83 2    
   164   82   84 am   BACKBONE|DICT|INTERRES
   165   84   85 1    
   166   84  205 1    
   167   85   86 1    
   168   85   87 1    
   169   85  206 1    
   170   86  207 1    
   171   86  208 1    
   172   86  209 1    
   173   87   88 2    
   174   87   89 am   BACKBONE|DICT|INTERRES
   175   89   90 1    
   176   89  210 1    
   177   90   91 1    
   178   90   92 1    
   179   90  211 1    
   180   91  212 1    
   181   91  213 1    
   182   91  214 1    
   183   92   93 2    
   184   92   94 am   BACKBONE|DICT|INTERRES
   185   94   95 1    
   186   94  215 1    
   187   95   96 1    
   188   95   97 1    
   189   95  216 1    
   190   96  217 1    
   191   96  218 1    
   192   96  219 1    
   193   97   98 2    
   194   97   99 am   BACKBONE|DICT|INTERRES
   195   99  100 1    
   196   99  220 1    
   197  100  101 1    
   198  100  102 1    
   199  100  221 1    
   200  101  222 1    
   201  101  223 1    
   202  101  224 1    
   203  102  103 2    
   204  102  104 am   BACKBONE|DICT|INTERRES
   205  104  105 1    
   206  104  225 1    
   207  105  106 1    
   208  105  107 1    
   209  105  226 1    
   210  106  227 1    
   211  106  228 1    
   212  106  229 1    
   213  107  108 2    
   214  107  109 am   BACKBONE|DICT|INTERRES
   215  109  110 1    
   216  109  230 1    
   217  110  111 1    
   218  110  112 1    
   219  110  231 1    
   220  111  232 1    
   221  111  233 1    
   222  111  234 1    
   223  112  113 2    
   224  112  114 am   BACKBONE|DICT|INTERRES
   225  114  115 1    
   226  114  235 1    
   227  115  116 1    
   228  115  117 1    
   229  115  236 1    
   230  116  237 1    
   231  116  238 1    
   232  116  239 1    
   233  117  118 2    
   234  117  119 am   BACKBONE|DICT|INTERRES
   235  119  120 1    
   236  119  240 1    
   237  120  121 1    
   238  120  124 1    
   239  120  241 1    
   240  121  122 am   BACKBONE|DICT|INTERRES
   241  121  123 2    
   242  122  242 1    
   243  122  243 1    
   244  124  125 1    
   245  124  244 1    
   246  124  245 1    
   247  125  126 1    
   248  126  246 1    
   249  126  247 1    
@<TRIPOS>SUBSTRUCTURE
     1 UNK         1 GROUP             0       ****    0 ROOT    
