@<TRIPOS>MOLECULE
3R540
247   249    1
SMALL
USER_CHARGES


@<TRIPOS>ATOM
      1 CA          5.7813  -14.4904  -48.9883 C.3       0 UNK        -0.1800 
      2 C           4.4956  -13.7098  -48.7572 C.2       0 UNK         0.5000 
      3 O           4.3506  -12.6035  -49.2772 O.2       0 UNK        -0.5000 
      4 N           3.5758  -14.2725  -47.9614 N.am      1 UNK        -0.5000 
      5 CA          2.2379  -13.7672  -47.6029 C.3       1 UNK         0.1400 
      6 C6          1.3005  -13.5004  -48.8125 C.3       23 UNK        -0.0398 
      7 S7          1.0816  -14.9577  -49.8879 S.3       23 UNK        -0.2404 
      8 C8         -0.2310  -15.8243  -48.9759 C.3       23 UNK        -0.0205 
      9 C9         -0.5503  -17.1900  -49.5627 C.ar      23 UNK        -0.0193 
     10 C10        -1.8487  -17.4896  -49.9824 C.ar      23 UNK        -0.1150 
     11 C11        -2.1592  -18.7588  -50.4767 C.ar      23 UNK        -0.0193 
     12 C12        -1.1614  -19.7362  -50.5358 C.ar      23 UNK        -0.1150 
     13 C13         0.1425  -19.4559  -50.1133 C.ar      23 UNK        -0.0193 
     14 C14         0.4416  -18.1718  -49.6430 C.ar      23 UNK        -0.1150 
     15 C15         1.2022  -20.5544  -50.2014 C.3       23 UNK        -0.0205 
     16 S16         2.5212  -20.5106  -48.9297 S.3       23 UNK        -0.2404 
     17 C17         1.6208  -20.3533  -47.3471 C.3       23 UNK        -0.0398 
     18 CA          1.1557  -21.6949  -46.7332 C.3       11 UNK         0.1400 
     19 N           0.9144  -21.5746  -45.2933 N.am      11 UNK        -0.5000 
     20 C           0.5794  -22.5817  -44.4741 C.2       10 UNK         0.5000 
     21 O           0.5052  -23.7590  -44.8258 O.2       10 UNK        -0.5000 
     22 CA          0.2120  -22.2012  -43.0286 C.3       10 UNK         0.1400 
     23 CB          1.4745  -22.0082  -42.1759 C.3       10 UNK        -0.1800 
     24 N          -0.6256  -21.0018  -42.9571 N.am      10 UNK        -0.5000 
     25 C          -1.8583  -20.9075  -43.4776 C.2       9 UNK         0.5000 
     26 O          -2.4357  -21.8391  -44.0362 O.2       9 UNK        -0.5000 
     27 CA         -2.5490  -19.5344  -43.4036 C.3       9 UNK         0.1400 
     28 CB         -3.1469  -19.2968  -42.0092 C.3       9 UNK        -0.1800 
     29 N          -1.6559  -18.4307  -43.7559 N.am      9 UNK        -0.5000 
     30 C          -1.0853  -18.2676  -44.9582 C.2       8 UNK         0.5000 
     31 O          -1.2793  -19.0167  -45.9155 O.2       8 UNK        -0.5000 
     32 CA         -0.0858  -17.1042  -45.0977 C.3       8 UNK         0.1400 
     33 CB         -0.8194  -15.7638  -45.2589 C.3       8 UNK        -0.1800 
     34 N           0.8438  -17.0233  -43.9702 N.am      8 UNK        -0.5000 
     35 C           1.7066  -17.9907  -43.6262 C.2       7 UNK         0.5000 
     36 O           1.8561  -19.0334  -44.2617 O.2       7 UNK        -0.5000 
     37 CA          2.4884  -17.7871  -42.3185 C.3       7 UNK         0.1400 
     38 CB          3.6995  -16.8648  -42.5312 C.3       7 UNK        -0.1800 
     39 N           1.6321  -17.2611  -41.2548 N.am      7 UNK        -0.5000 
     40 C           0.6432  -17.9558  -40.6722 C.2       6 UNK         0.5000 
     41 O           0.3805  -19.1271  -40.9419 O.2       6 UNK        -0.5000 
     42 CA         -0.2242  -17.2030  -39.6469 C.3       6 UNK         0.1400 
     43 CB          0.4396  -17.2189  -38.2621 C.3       6 UNK        -0.1800 
     44 N          -0.4852  -15.8191  -40.0431 N.am      6 UNK        -0.5000 
     45 C          -1.2154  -15.4562  -41.1079 C.2       5 UNK         0.5000 
     46 O          -1.7995  -16.2543  -41.8392 O.2       5 UNK        -0.5000 
     47 CA         -1.2455  -13.9520  -41.4414 C.3       5 UNK         0.1400 
     48 CB         -2.3802  -13.2507  -40.6807 C.3       5 UNK        -0.1800 
     49 N           0.0275  -13.2887  -41.1433 N.am      5 UNK        -0.5000 
     50 C           1.1791  -13.5641  -41.7683 C.2       4 UNK         0.5000 
     51 O           1.2774  -14.3651  -42.7019 O.2       4 UNK        -0.5000 
     52 CA          2.4398  -12.9064  -41.1966 C.3       4 UNK         0.1400 
     53 CB          2.9782  -13.7601  -40.0281 C.3       4 UNK        -0.1800 
     54 N           3.4267  -12.7901  -42.2656 N.am      4 UNK        -0.5000 
     55 C           4.6225  -12.1950  -42.1814 C.2       3 UNK         0.5000 
     56 O           5.0619  -11.6653  -41.1599 O.2       3 UNK        -0.5000 
     57 CA          5.4633  -12.1617  -43.4712 C.3       3 UNK         0.1400 
     58 CB          6.1139  -13.5300  -43.7315 C.3       3 UNK        -0.1800 
     59 N           4.6974  -11.7609  -44.6526 N.am      3 UNK        -0.5000 
     60 C           4.0819  -10.5806  -44.8212 C.2       2 UNK         0.5000 
     61 O           4.0953   -9.6770  -43.9843 O.2       2 UNK        -0.5000 
     62 CA          3.3415  -10.3542  -46.1552 C.3       2 UNK         0.1400 
     63 CB          4.0987   -9.3395  -47.0264 C.3       2 UNK        -0.1800 
     64 N           3.1445  -11.5778  -46.9343 N.am      2 UNK        -0.5000 
     65 C           2.2661  -12.5474  -46.6567 C.2       1 UNK         0.5000 
     66 O           1.5109  -12.5162  -45.6858 O.2       1 UNK        -0.5000 
     67 C          -0.0866  -22.2413  -47.4613 C.2       11 UNK         0.5000 
     68 O           0.0220  -23.2338  -48.1804 O.2       11 UNK        -0.5000 
     69 N          -1.2477  -21.6111  -47.2304 N.am      12 UNK        -0.5000 
     70 CA         -2.5308  -22.0094  -47.8063 C.3       12 UNK         0.1400 
     71 CB         -3.6063  -20.9768  -47.4418 C.3       12 UNK        -0.1800 
     72 C          -2.9588  -23.4281  -47.3929 C.2       12 UNK         0.5000 
     73 O          -3.4363  -24.1789  -48.2413 O.2       12 UNK        -0.5000 
     74 N          -2.7437  -23.7906  -46.1210 N.am      13 UNK        -0.5000 
     75 CA         -2.9859  -25.1333  -45.5930 C.3       13 UNK         0.1400 
     76 CB         -2.8091  -25.1347  -44.0671 C.3       13 UNK        -0.1800 
     77 C          -2.0914  -26.1977  -46.2542 C.2       13 UNK         0.5000 
     78 O          -2.6034  -27.2287  -46.6919 O.2       13 UNK        -0.5000 
     79 N          -0.7847  -25.9135  -46.3572 N.am      14 UNK        -0.5000 
     80 CA          0.2068  -26.7760  -47.0068 C.3       14 UNK         0.1400 
     81 CB          1.6150  -26.2171  -46.7533 C.3       14 UNK        -0.1800 
     82 C          -0.0428  -26.9550  -48.5166 C.2       14 UNK         0.5000 
     83 O           0.1482  -28.0525  -49.0410 O.2       14 UNK        -0.5000 
     84 N          -0.4957  -25.8828  -49.1775 N.am      15 UNK        -0.5000 
     85 CA         -0.8602  -25.8515  -50.5938 C.3       15 UNK         0.1400 
     86 CB         -0.7586  -24.4010  -51.0897 C.3       15 UNK        -0.1800 
     87 C          -2.2592  -26.4311  -50.8930 C.2       15 UNK         0.5000 
     88 O          -2.6501  -26.4561  -52.0608 O.2       15 UNK        -0.5000 
     89 N          -2.9992  -26.8590  -49.8574 N.am      16 UNK        -0.5000 
     90 CA         -4.3628  -27.4012  -49.9050 C.3       16 UNK         0.1400 
     91 CB         -4.3772  -28.7800  -50.5967 C.3       16 UNK        -0.1800 
     92 C          -5.3663  -26.4006  -50.5173 C.2       16 UNK         0.5000 
     93 O          -6.1114  -26.7411  -51.4369 O.2       16 UNK        -0.5000 
     94 N          -5.3130  -25.1629  -50.0081 N.am      17 UNK        -0.5000 
     95 CA         -6.0381  -23.9515  -50.4059 C.3       17 UNK         0.1400 
     96 CB         -7.5607  -24.1789  -50.4923 C.3       17 UNK        -0.1800 
     97 C          -5.4839  -23.2689  -51.6710 C.2       17 UNK         0.5000 
     98 O          -5.9015  -22.1483  -51.9606 O.2       17 UNK        -0.5000 
     99 N          -4.5549  -23.9217  -52.3866 N.am      18 UNK        -0.5000 
    100 CA        -3.8121  -23.4881  -53.5806 C.3       18 UNK         0.1400 
    101 CB        -2.9555  -22.2466  -53.2743 C.3       18 UNK        -0.1800 
    102 C         -4.6543  -23.2558  -54.8532 C.2       18 UNK         0.5000 
    103 O         -4.1921  -23.5992  -55.9423 O.2       18 UNK        -0.5000 
    104 N         -5.8549  -22.6832  -54.6983 N.am      19 UNK        -0.5000 
    105 CA        -6.7793  -22.2264  -55.7390 C.3       19 UNK         0.1400 
    106 CB        -7.2976  -23.4169  -56.5768 C.3       19 UNK        -0.1800 
    107 C         -6.1841  -21.0784  -56.5870 C.2       19 UNK         0.5000 
    108 O         -5.2862  -20.3715  -56.1199 O.2       19 UNK        -0.5000 
    109 N         -6.7152  -20.8899  -57.8045 N.am      20 UNK        -0.5000 
    110 CA        -6.3745  -19.8353  -58.7647 C.3       20 UNK         0.1400 
    111 CB        -4.9464  -20.0377  -59.3205 C.3       20 UNK        -0.1800 
    112 C         -6.6267  -18.4335  -58.1722 C.2       20 UNK         0.5000 
    113 O         -7.7826  -18.0140  -58.0971 O.2       20 UNK        -0.5000 
    114 N         -5.5573  -17.7447  -57.7531 N.am      21 UNK        -0.5000 
    115 CA        -5.6128  -16.4483  -57.0770 C.3       21 UNK         0.1400 
    116 CB        -4.2140  -15.8130  -57.1027 C.3       21 UNK        -0.1800 
    117 C         -6.1363  -16.5400  -55.6294 C.2       21 UNK         0.5000 
    118 O         -6.7086  -15.5670  -55.1357 O.2       21 UNK        -0.5000 
    119 N         -5.9311  -17.6898  -54.9754 N.am      22 UNK        -0.5000 
    120 CA        -6.4264  -17.9806  -53.6241 C.3       22 UNK         0.1400 
    121 C         -7.9162  -18.4144  -53.6592 C.2       22 UNK         0.5000 
    122 N         -8.7364  -17.9176  -52.7434 N.am      22 UNK        -0.7600 
    123 O         -8.3278  -19.2286  -54.4825 O.2       22 UNK        -0.5000 
    124 C124       -5.5642  -19.0587  -52.9249 C.3       23 UNK        -0.0398 
    125 S125       -3.8448  -18.5113  -52.6479 S.3       23 UNK        -0.2404 
    126 C126       -3.5741  -19.0711  -50.9378 C.3       23 UNK        -0.0205 
    127 H127        5.7778  -15.4446  -48.4609 H         1 UNK         0.0600 
    128 H128        6.6382  -13.9129  -48.6415 H         1 UNK         0.0600 
    129 H129        5.9112  -14.6905  -50.0518 H         1 UNK         0.0600 
    130 H130        3.7931  -15.1747  -47.5624 H         1 UNK         0.3000 
    131 H131        1.7899  -14.5727  -47.0199 H         1 UNK         0.0600 
    132 H132        0.3167  -13.1729  -48.4708 H         1 UNK         0.0800 
    133 H133        1.6866  -12.6854  -49.4264 H         1 UNK         0.0800 
    134 H134        0.0886  -15.9649  -47.9456 H         1 UNK         0.0800 
    135 H135       -1.1222  -15.1955  -48.9458 H         1 UNK         0.0800 
    136 H136       -2.6223  -16.7368  -49.9249 H         1 UNK         0.1150 
    137 H137       -1.4013  -20.7191  -50.9147 H         1 UNK         0.1150 
    138 H138        1.4453  -17.9334  -49.3218 H         1 UNK         0.1150 
    139 H139        0.7264  -21.5348  -50.1685 H         1 UNK         0.0800 
    140 H140        1.6755  -20.4875  -51.1816 H         1 UNK         0.0800 
    141 H141        0.7964  -19.6471  -47.4334 H         1 UNK         0.0800 
    142 H142        2.3287  -19.8785  -46.6679 H         1 UNK         0.0800 
    143 H143        1.9589  -22.4249  -46.8539 H         1 UNK         0.0600 
    144 H144        0.9975  -20.6410  -44.9006 H         1 UNK         0.3000 
    145 H145       -0.3587  -23.0295  -42.6038 H         1 UNK         0.0600 
    146 H146        1.2199  -21.8245  -41.1320 H         1 UNK         0.0600 
    147 H147        2.1054  -22.8975  -42.2052 H         1 UNK         0.0600 
    148 H148        2.0740  -21.1679  -42.5263 H         1 UNK         0.0600 
    149 H149       -0.2359  -20.2037  -42.4643 H         1 UNK         0.3000 
    150 H150       -3.3682  -19.5383  -44.1255 H         1 UNK         0.0600 
    151 H151       -3.7094  -18.3636  -41.9759 H         1 UNK         0.0600 
    152 H152       -3.8325  -20.0999  -41.7362 H         1 UNK         0.0600 
    153 H153       -2.3745  -19.2488  -41.2416 H         1 UNK         0.0600 
    154 H154       -1.4868  -17.7355  -43.0343 H         1 UNK         0.3000 
    155 H155        0.5051  -17.2844  -45.9977 H         1 UNK         0.0600 
    156 H156       -1.4110  -15.5187  -44.3777 H         1 UNK         0.0600 
    157 H157       -1.5022  -15.7905  -46.1087 H         1 UNK         0.0600 
    158 H158       -0.1185  -14.9456  -45.4244 H         1 UNK         0.0600 
    159 H159        0.8189  -16.1734  -43.4153 H         1 UNK         0.3000 
    160 H160        2.8626  -18.7623  -41.9997 H         1 UNK         0.0600 
    161 H161        3.4049  -15.8678  -42.8567 H         1 UNK         0.0600 
    162 H162        4.3657  -17.2708  -43.2934 H         1 UNK         0.0600 
    163 H163        4.2817  -16.7608  -41.6157 H         1 UNK         0.0600 
    164 H164        1.7501  -16.2895  -41.0140 H         1 UNK         0.3000 
    165 H165       -1.1820  -17.7223  -39.5738 H         1 UNK         0.0600 
    166 H166       -0.2007  -16.7534  -37.5127 H         1 UNK         0.0600 
    167 H167        0.6316  -18.2414  -37.9338 H         1 UNK         0.0600 
    168 H168        1.3937  -16.6902  -38.2644 H         1 UNK         0.0600 
    169 H169       -0.0512  -15.0964  -39.4890 H         1 UNK         0.3000 
    170 H170       -1.4376  -13.8518  -42.5117 H         1 UNK         0.0600 
    171 H171       -3.3423  -13.7151  -40.9015 H         1 UNK         0.0600 
    172 H172       -2.2330  -13.2977  -39.6010 H         1 UNK         0.0600 
    173 H173       -2.4551  -12.2008  -40.9646 H         1 UNK         0.0600 
    174 H174        0.0236  -12.6234  -40.3832 H         1 UNK         0.3000 
    175 H175        2.1877  -11.9053  -40.8416 H         1 UNK         0.0600 
    176 H176        3.3330  -14.7323  -40.3704 H         1 UNK         0.0600 
    177 H177        3.8042  -13.2684  -39.5154 H         1 UNK         0.0600 
    178 H178        2.2069  -13.9368  -39.2776 H         1 UNK         0.0600 
    179 H179        3.1233  -13.1826  -43.1485 H         1 UNK         0.3000 
    180 H180        6.2594  -11.4279  -43.3288 H         1 UNK         0.0600 
    181 H181        5.3689  -14.3020  -43.9286 H         1 UNK         0.0600 
    182 H182        6.7006  -13.8532  -42.8705 H         1 UNK         0.0600 
    183 H183        6.7893  -13.4896  -44.5863 H         1 UNK         0.0600 
    184 H184        4.6365  -12.4317  -45.4032 H         1 UNK         0.3000 
    185 H185        2.3613   -9.9366  -45.9162 H         1 UNK         0.0600 
    186 H186        4.2392   -8.3952  -46.4985 H         1 UNK         0.0600 
    187 H187        5.0856   -9.7096  -47.3074 H         1 UNK         0.0600 
    188 H188        3.5499   -9.1192  -47.9422 H         1 UNK         0.0600 
    189 H189        3.7174  -11.6944  -47.7668 H         1 UNK         0.3000 
    190 H190       -1.2532  -20.7828  -46.6401 H         1 UNK         0.3000 
    191 H191       -2.4168  -22.0064  -48.8920 H         1 UNK         0.0600 
    192 H192       -3.3347  -19.9840  -47.8015 H         1 UNK         0.0600 
    193 H193       -4.5656  -21.2358  -47.8914 H         1 UNK         0.0600 
    194 H194       -3.7523  -20.9121  -46.3631 H         1 UNK         0.0600 
    195 H195       -2.4003  -23.0956  -45.4629 H         1 UNK         0.3000 
    196 H196       -4.0241  -25.3920  -45.8111 H         1 UNK         0.0600 
    197 H197       -2.9980  -26.1256  -43.6525 H         1 UNK         0.0600 
    198 H198       -3.5052  -24.4445  -43.5903 H         1 UNK         0.0600 
    199 H199       -1.7997  -24.8434  -43.7766 H         1 UNK         0.0600 
    200 H200       -0.4357  -25.0472  -45.9557 H         1 UNK         0.3000 
    201 H201        0.1442  -27.7624  -46.5428 H         1 UNK         0.0600 
    202 H202        1.8335  -26.1700  -45.6864 H         1 UNK         0.0600 
    203 H203        1.7280  -25.2120  -47.1615 H         1 UNK         0.0600 
    204 H204        2.3760  -26.8479  -47.2143 H         1 UNK         0.0600 
    205 H205       -0.5549  -24.9977  -48.6800 H         1 UNK         0.3000 
    206 H206       -0.1381  -26.4499  -51.1527 H         1 UNK         0.0600 
    207 H207        0.2367  -23.9926  -50.9141 H         1 UNK         0.0600 
    208 H208       -0.9468  -24.3391  -52.1618 H         1 UNK         0.0600 
    209 H209       -1.4793  -23.7568  -50.5845 H         1 UNK         0.0600 
    210 H210       -2.6040  -26.7667  -48.9300 H         1 UNK         0.3000 
    211 H211       -4.6702  -27.5494  -48.8687 H         1 UNK         0.0600 
    212 H212       -4.1107  -28.7098  -51.6517 H         1 UNK         0.0600 
    213 H213       -5.3670  -29.2342  -50.5394 H         1 UNK         0.0600 
    214 H214       -3.6774  -29.4660  -50.1194 H         1 UNK         0.0600 
    215 H215       -4.6036  -24.9857  -49.2957 H         1 UNK         0.3000 
    216 H216       -5.8666  -23.2430  -49.5943 H         1 UNK         0.0600 
    217 H217       -8.0875  -23.2299  -50.5987 H         1 UNK         0.0600 
    218 H218       -7.9411  -24.6615  -49.5920 H         1 UNK         0.0600 
    219 H219       -7.8349  -24.7946  -51.3490 H         1 UNK         0.0600 
    220 H220       -4.3176  -24.8551  -52.0749 H         1 UNK         0.3000 
    221 H221       -3.1284  -24.3079  -53.8064 H         1 UNK         0.0600 
    222 H222       -3.5744  -21.3667  -53.1132 H         1 UNK         0.0600 
    223 H223       -2.3441  -22.3878  -52.3857 H         1 UNK         0.0600 
    224 H224       -2.2840  -22.0216  -54.1035 H         1 UNK         0.0600 
    225 H225       -6.0889  -22.4004  -53.7494 H         1 UNK         0.3000 
    226 H226       -7.6315  -21.8005  -55.2085 H         1 UNK         0.0600 
    227 H227       -7.6240  -24.2350  -55.9344 H         1 UNK         0.0600 
    228 H228       -8.1562  -23.1316  -57.1850 H         1 UNK         0.0600 
    229 H229       -6.5317  -23.8069  -57.2480 H         1 UNK         0.0600 
    230 H230       -7.4701  -21.4986  -58.0864 H         1 UNK         0.3000 
    231 H231       -7.0662  -19.9419  -59.6016 H         1 UNK         0.0600 
    232 H232       -4.1846  -20.0164  -58.5409 H         1 UNK         0.0600 
    233 H233       -4.6971  -19.2652  -60.0491 H         1 UNK         0.0600 
    234 H234       -4.8633  -20.9974  -59.8305 H         1 UNK         0.0600 
    235 H235       -4.6501  -18.1825  -57.8223 H         1 UNK         0.3000 
    236 H236       -6.2918  -15.7989  -57.6338 H         1 UNK         0.0600 
    237 H237       -3.8594  -15.6793  -58.1249 H         1 UNK         0.0600 
    238 H238       -4.2235  -14.8293  -56.6315 H         1 UNK         0.0600 
    239 H239       -3.4848  -16.4249  -56.5701 H         1 UNK         0.0600 
    240 H240       -5.5131  -18.4728  -55.4674 H         1 UNK         0.3000 
    241 H241       -6.3540  -17.0672  -53.0297 H         1 UNK         0.0600 
    242 H242       -8.4224  -17.2510  -52.0548 H         1 UNK         0.3800 
    243 H243       -9.7032  -18.2037  -52.7477 H         1 UNK         0.3800 
    244 H244       -6.0069  -19.3286  -51.9644 H         1 UNK         0.0800 
    245 H245       -5.5450  -19.9752  -53.5143 H         1 UNK         0.0800 
    246 H246       -4.2932  -18.5859  -50.2759 H         1 UNK         0.0800 
    247 H247       -3.7666  -20.1434  -50.8713 H         1 UNK         0.0800 
@<TRIPOS>BOND
     1    1    2 1    
     2    1  127 1    
     3    1  128 1    
     4    1  129 1    
     5    2    3 2    
     6    2    4 am   BACKBONE|DICT|INTERRES
     7    4    5 1    
     8    4  130 1    
     9    5    6 1    
    10    5   65 1    
    11    5  131 1    
    12    6    7 1    
    13    6  132 1    
    14    6  133 1    
    15    7    8 1    
    16    8    9 1    
    17    8  134 1    
    18    8  135 1    
    19    9   10 ar   
    20    9   14 ar   
    21   10   11 ar   
    22   10  136 1    
    23   11   12 ar   
    24   11  126 1    
    25   12   13 ar   
    26   12  137 1    
    27   13   14 ar   
    28   13   15 1    
    29   14  138 1    
    30   15   16 1    
    31   15  139 1    
    32   15  140 1    
    33   16   17 1    
    34   17   18 1    
    35   17  141 1    
    36   17  142 1    
    37   18   19 1    
    38   18   67 1    
    39   18  143 1    
    40   19   20 am   BACKBONE|DICT|INTERRES
    41   19  144 1    
    42   20   21 2    
    43   20   22 1    
    44   22   23 1    
    45   22   24 1    
    46   22  145 1    
    47   23  146 1    
    48   23  147 1    
    49   23  148 1    
    50   24   25 am   BACKBONE|DICT|INTERRES
    51   24  149 1    
    52   25   26 2    
    53   25   27 1    
    54   27   28 1    
    55   27   29 1    
    56   27  150 1    
    57   28  151 1    
    58   28  152 1    
    59   28  153 1    
    60   29   30 am   BACKBONE|DICT|INTERRES
    61   29  154 1    
    62   30   31 2    
    63   30   32 1    
    64   32   33 1    
    65   32   34 1    
    66   32  155 1    
    67   33  156 1    
    68   33  157 1    
    69   33  158 1    
    70   34   35 am   BACKBONE|DICT|INTERRES
    71   34  159 1    
    72   35   36 2    
    73   35   37 1    
    74   37   38 1    
    75   37   39 1    
    76   37  160 1    
    77   38  161 1    
    78   38  162 1    
    79   38  163 1    
    80   39   40 am   BACKBONE|DICT|INTERRES
    81   39  164 1    
    82   40   41 2    
    83   40   42 1    
    84   42   43 1    
    85   42   44 1    
    86   42  165 1    
    87   43  166 1    
    88   43  167 1    
    89   43  168 1    
    90   44   45 am   BACKBONE|DICT|INTERRES
    91   44  169 1    
    92   45   46 2    
    93   45   47 1    
    94   47   48 1    
    95   47   49 1    
    96   47  170 1    
    97   48  171 1    
    98   48  172 1    
    99   48  173 1    
   100   49   50 am   BACKBONE|DICT|INTERRES
   101   49  174 1    
   102   50   51 2    
   103   50   52 1    
   104   52   53 1    
   105   52   54 1    
   106   52  175 1    
   107   53  176 1    
   108   53  177 1    
   109   53  178 1    
   110   54   55 am   BACKBONE|DICT|INTERRES
   111   54  179 1    
   112   55   56 2    
   113   55   57 1    
   114   57   58 1    
   115   57   59 1    
   116   57  180 1    
   117   58  181 1    
   118   58  182 1    
   119   58  183 1    
   120   59   60 am   BACKBONE|DICT|INTERRES
   121   59  184 1    
   122   60   61 2    
   123   60   62 1    
   124   62   63 1    
   125   62   64 1    
   126   62  185 1    
   127   63  186 1    
   128   63  187 1    
   129   63  188 1    
   130   64   65 am   BACKBONE|DICT|INTERRES
   131   64  189 1    
   132   65   66 2    
   133   67   68 2    
   134   67   69 am   BACKBONE|DICT|INTERRES
   135   69   70 1    
   136   69  190 1    
   137   70   71 1    
   138   70   72 1    
   139   70  191 1    
   140   71  192 1    
   141   71  193 1    
   142   71  194 1    
   143   72   73 2    
   144   72   74 am   BACKBONE|DICT|INTERRES
   145   74   75 1    
   146   74  195 1    
   147   75   76 1    
   148   75   77 1    
   149   75  196 1    
   150   76  197 1    
   151   76  198 1    
   152   76  199 1    
   153   77   78 2    
   154   77   79 am   BACKBONE|DICT|INTERRES
   155   79   80 1    
   156   79  200 1    
   157   80   81 1    
   158   80   82 1    
   159   80  201 1    
   160   81  202 1    
   161   81  203 1    
   162   81  204 1    
   163   82   83 2    
   164   82   84 am   BACKBONE|DICT|INTERRES
   165   84   85 1    
   166   84  205 1    
   167   85   86 1    
   168   85   87 1    
   169   85  206 1    
   170   86  207 1    
   171   86  208 1    
   172   86  209 1    
   173   87   88 2    
   174   87   89 am   BACKBONE|DICT|INTERRES
   175   89   90 1    
   176   89  210 1    
   177   90   91 1    
   178   90   92 1    
   179   90  211 1    
   180   91  212 1    
   181   91  213 1    
   182   91  214 1    
   183   92   93 2    
   184   92   94 am   BACKBONE|DICT|INTERRES
   185   94   95 1    
   186   94  215 1    
   187   95   96 1    
   188   95   97 1    
   189   95  216 1    
   190   96  217 1    
   191   96  218 1    
   192   96  219 1    
   193   97   98 2    
   194   97   99 am   BACKBONE|DICT|INTERRES
   195   99  100 1    
   196   99  220 1    
   197  100  101 1    
   198  100  102 1    
   199  100  221 1    
   200  101  222 1    
   201  101  223 1    
   202  101  224 1    
   203  102  103 2    
   204  102  104 am   BACKBONE|DICT|INTERRES
   205  104  105 1    
   206  104  225 1    
   207  105  106 1    
   208  105  107 1    
   209  105  226 1    
   210  106  227 1    
   211  106  228 1    
   212  106  229 1    
   213  107  108 2    
   214  107  109 am   BACKBONE|DICT|INTERRES
   215  109  110 1    
   216  109  230 1    
   217  110  111 1    
   218  110  112 1    
   219  110  231 1    
   220  111  232 1    
   221  111  233 1    
   222  111  234 1    
   223  112  113 2    
   224  112  114 am   BACKBONE|DICT|INTERRES
   225  114  115 1    
   226  114  235 1    
   227  115  116 1    
   228  115  117 1    
   229  115  236 1    
   230  116  237 1    
   231  116  238 1    
   232  116  239 1    
   233  117  118 2    
   234  117  119 am   BACKBONE|DICT|INTERRES
   235  119  120 1    
   236  119  240 1    
   237  120  121 1    
   238  120  124 1    
   239  120  241 1    
   240  121  122 am   BACKBONE|DICT|INTERRES
   241  121  123 2    
   242  122  242 1    
   243  122  243 1    
   244  124  125 1    
   245  124  244 1    
   246  124  245 1    
   247  125  126 1    
   248  126  246 1    
   249  126  247 1    
@<TRIPOS>SUBSTRUCTURE
     1 UNK         1 GROUP             0       ****    0 ROOT    
