@<TRIPOS>MOLECULE
3R540
247   249    1
SMALL
USER_CHARGES


@<TRIPOS>ATOM
      1 CA         -3.3900   -9.5712  -49.4054 C.3       0 UNK        -0.1800 
      2 C          -2.8743  -10.9441  -49.8136 C.2       0 UNK         0.5000 
      3 O          -2.2747  -11.0806  -50.8804 O.2       0 UNK        -0.5000 
      4 N          -3.1135  -11.9585  -48.9741 N.am      1 UNK        -0.5000 
      5 CA         -2.6597  -13.3407  -49.1656 C.3       1 UNK         0.1400 
      6 C6         -3.3736  -14.3188  -48.2053 C.3       23 UNK        -0.0398 
      7 S7         -5.1799  -14.2992  -48.4596 S.3       23 UNK        -0.2404 
      8 C8         -5.8024  -14.4854  -46.7592 C.3       23 UNK        -0.0205 
      9 C9         -5.5278  -15.8689  -46.1858 C.ar      23 UNK        -0.0193 
     10 C10        -5.9325  -17.0135  -46.8792 C.ar      23 UNK        -0.1150 
     11 C11        -5.6914  -18.2855  -46.3567 C.ar      23 UNK        -0.0193 
     12 C12        -5.0888  -18.4055  -45.1020 C.ar      23 UNK        -0.1150 
     13 C13        -4.6802  -17.2714  -44.3926 C.ar      23 UNK        -0.0193 
     14 C14        -4.8958  -16.0056  -44.9466 C.ar      23 UNK        -0.1150 
     15 C15        -4.0443  -17.4035  -43.0136 C.3       23 UNK        -0.0205 
     16 S16        -2.3055  -17.9479  -43.0841 S.3       23 UNK        -0.2404 
     17 C17        -2.4881  -19.7514  -43.2696 C.3       23 UNK        -0.0398 
     18 CA         -2.0830  -20.2410  -44.6796 C.3       11 UNK         0.1400 
     19 N          -0.6505  -20.0501  -44.9466 N.am      11 UNK        -0.5000 
     20 C          -0.0630  -20.2347  -46.1379 C.2       10 UNK         0.5000 
     21 O          -0.6765  -20.5610  -47.1510 O.2       10 UNK        -0.5000 
     22 CA          1.4672  -20.0876  -46.1948 C.3       10 UNK         0.1400 
     23 CB          1.8695  -18.6165  -46.3158 C.3       10 UNK        -0.1800 
     24 N           2.1088  -20.6684  -45.0179 N.am      10 UNK        -0.5000 
     25 C           2.2866  -21.9856  -44.8397 C.2       9 UNK         0.5000 
     26 O           2.0300  -22.8286  -45.6986 O.2       9 UNK        -0.5000 
     27 CA          2.8116  -22.4476  -43.4647 C.3       9 UNK         0.1400 
     28 CB          4.3355  -22.6358  -43.5070 C.3       9 UNK        -0.1800 
     29 N           2.4769  -21.5280  -42.3758 N.am      9 UNK        -0.5000 
     30 C           1.2347  -21.2128  -41.9816 C.2       8 UNK         0.5000 
     31 O           0.2250  -21.7407  -42.4454 O.2       8 UNK        -0.5000 
     32 CA          1.0917  -20.0880  -40.9358 C.3       8 UNK         0.1400 
     33 CB          0.7647  -20.6761  -39.5556 C.3       8 UNK        -0.1800 
     34 N           2.2837  -19.2397  -40.8278 N.am      8 UNK        -0.5000 
     35 C           2.7177  -18.4013  -41.7789 C.2       7 UNK         0.5000 
     36 O           2.1419  -18.2266  -42.8542 O.2       7 UNK        -0.5000 
     37 CA          4.0728  -17.7362  -41.5140 C.3       7 UNK         0.1400 
     38 CB          5.2047  -18.5702  -42.1433 C.3       7 UNK        -0.1800 
     39 N           4.1032  -16.3777  -42.0483 N.am      7 UNK        -0.5000 
     40 C           4.9162  -15.4165  -41.5883 C.2       6 UNK         0.5000 
     41 O           5.7015  -15.5790  -40.6528 O.2       6 UNK        -0.5000 
     42 CA          4.8506  -14.0408  -42.2691 C.3       6 UNK         0.1400 
     43 CB          5.6947  -14.0248  -43.5540 C.3       6 UNK        -0.1800 
     44 N           3.4770  -13.6472  -42.5748 N.am      6 UNK        -0.5000 
     45 C           2.6750  -12.9835  -41.7297 C.2       5 UNK         0.5000 
     46 O           3.0111  -12.6537  -40.5915 O.2       5 UNK        -0.5000 
     47 CA          1.2722  -12.5909  -42.2365 C.3       5 UNK         0.1400 
     48 CB          1.2339  -11.0986  -42.6015 C.3       5 UNK        -0.1800 
     49 N           0.8488  -13.3667  -43.4011 N.am      5 UNK        -0.5000 
     50 C           0.3562  -14.6105  -43.3444 C.2       4 UNK         0.5000 
     51 O           0.1371  -15.2105  -42.2926 O.2       4 UNK        -0.5000 
     52 CA          0.0967  -15.3025  -44.6964 C.3       4 UNK         0.1400 
     53 CB         -1.3335  -15.0260  -45.1781 C.3       4 UNK        -0.1800 
     54 N           1.0360  -14.9036  -45.7515 N.am      4 UNK        -0.5000 
     55 C           2.3603  -15.1109  -45.7215 C.2       3 UNK         0.5000 
     56 O           2.9353  -15.6082  -44.7530 O.2       3 UNK        -0.5000 
     57 CA          3.1993  -14.6390  -46.9301 C.3       3 UNK         0.1400 
     58 CB          4.2634  -15.6793  -47.3371 C.3       3 UNK        -0.1800 
     59 N           2.4264  -14.1973  -48.0999 N.am      3 UNK        -0.5000 
     60 C           1.6233  -14.9370  -48.8777 C.2       2 UNK         0.5000 
     61 O           1.3716  -16.1250  -48.6868 O.2       2 UNK        -0.5000 
     62 CA          0.9766  -14.2152  -50.0697 C.3       2 UNK         0.1400 
     63 CB          1.3303  -14.9088  -51.3945 C.3       2 UNK        -0.1800 
     64 N          -0.4766  -14.1476  -49.9356 N.am      2 UNK        -0.5000 
     65 C          -1.1267  -13.4228  -49.0182 C.2       1 UNK         0.5000 
     66 O          -0.5668  -12.8164  -48.1003 O.2       1 UNK        -0.5000 
     67 C          -2.5242  -21.7061  -44.8791 C.2       11 UNK         0.5000 
     68 O          -3.6452  -21.9528  -45.3275 O.2       11 UNK        -0.5000 
     69 N          -1.6135  -22.6476  -44.5930 N.am      12 UNK        -0.5000 
     70 CA         -1.7666  -24.0903  -44.7919 C.3       12 UNK         0.1400 
     71 CB         -0.5765  -24.8110  -44.1391 C.3       12 UNK        -0.1800 
     72 C          -1.9419  -24.5290  -46.2638 C.2       12 UNK         0.5000 
     73 O          -2.2370  -25.7012  -46.5004 O.2       12 UNK        -0.5000 
     74 N          -1.7951  -23.5996  -47.2228 N.am      13 UNK        -0.5000 
     75 CA         -2.1531  -23.7763  -48.6317 C.3       13 UNK         0.1400 
     76 CB         -1.8013  -22.4988  -49.4082 C.3       13 UNK        -0.1800 
     77 C          -3.6423  -24.1061  -48.8418 C.2       13 UNK         0.5000 
     78 O          -3.9646  -24.8352  -49.7785 O.2       13 UNK        -0.5000 
     79 N          -4.5157  -23.5554  -47.9806 N.am      14 UNK        -0.5000 
     80 CA         -5.9633  -23.8020  -47.9063 C.3       14 UNK         0.1400 
     81 CB         -6.2199  -25.2023  -47.3138 C.3       14 UNK        -0.1800 
     82 C          -6.7190  -23.5759  -49.2371 C.2       14 UNK         0.5000 
     83 O          -7.7192  -24.2447  -49.5026 O.2       14 UNK        -0.5000 
     84 N          -6.2052  -22.6440  -50.0526 N.am      15 UNK        -0.5000 
     85 CA         -6.6561  -22.2851  -51.4000 C.3       15 UNK         0.1400 
     86 CB         -8.0627  -21.6522  -51.3607 C.3       15 UNK        -0.1800 
     87 C          -6.5264  -23.4157  -52.4441 C.2       15 UNK         0.5000 
     88 O          -7.2200  -23.3794  -53.4624 O.2       15 UNK        -0.5000 
     89 N          -5.6182  -24.3767  -52.2141 N.am      16 UNK        -0.5000 
     90 CA         -5.2263  -25.3779  -53.2053 C.3       16 UNK         0.1400 
     91 CB         -4.4208  -26.4950  -52.5256 C.3       16 UNK        -0.1800 
     92 C          -4.3935  -24.7174  -54.3162 C.2       16 UNK         0.5000 
     93 O          -3.4306  -24.0087  -54.0103 O.2       16 UNK        -0.5000 
     94 N          -4.7618  -24.9715  -55.5783 N.am      17 UNK        -0.5000 
     95 CA         -4.1699  -24.3579  -56.7736 C.3       17 UNK         0.1400 
     96 CB         -5.0003  -24.7609  -58.0017 C.3       17 UNK        -0.1800 
     97 C          -2.6811  -24.6894  -56.9985 C.2       17 UNK         0.5000 
     98 O          -1.9916  -23.9373  -57.6873 O.2       17 UNK        -0.5000 
     99 N          -2.2078  -25.7928  -56.4040 N.am      18 UNK        -0.5000 
    100 CA        -0.8024  -26.2001  -56.3980 C.3       18 UNK         0.1400 
    101 CB        -0.7107  -27.6548  -55.9117 C.3       18 UNK        -0.1800 
    102 C          0.0926  -25.2873  -55.5342 C.2       18 UNK         0.5000 
    103 O          1.2964  -25.2187  -55.7860 O.2       18 UNK        -0.5000 
    104 N         -0.5014  -24.6154  -54.5385 N.am      19 UNK        -0.5000 
    105 CA         0.1734  -23.6844  -53.6375 C.3       19 UNK         0.1400 
    106 CB        -0.2010  -24.0296  -52.1879 C.3       19 UNK        -0.1800 
    107 C         -0.2016  -22.2356  -53.9868 C.2       19 UNK         0.5000 
    108 O          0.6903  -21.4198  -54.2195 O.2       19 UNK        -0.5000 
    109 N         -1.5139  -21.9565  -54.0399 N.am      20 UNK        -0.5000 
    110 CA        -2.1507  -20.7019  -54.4616 C.3       20 UNK         0.1400 
    111 CB        -1.9761  -20.5088  -55.9820 C.3       20 UNK        -0.1800 
    112 C         -1.7421  -19.4465  -53.6542 C.2       20 UNK         0.5000 
    113 O         -1.8122  -18.3349  -54.1814 O.2       20 UNK        -0.5000 
    114 N         -1.3275  -19.6317  -52.3921 N.am      21 UNK        -0.5000 
    115 CA        -0.9191  -18.5454  -51.4947 C.3       21 UNK         0.1400 
    116 CB        -0.1237  -19.1297  -50.3190 C.3       21 UNK        -0.1800 
    117 C         -2.1134  -17.7158  -50.9855 C.2       21 UNK         0.5000 
    118 O         -2.0026  -16.4951  -50.8534 O.2       21 UNK        -0.5000 
    119 N         -3.2334  -18.4008  -50.7256 N.am      22 UNK        -0.5000 
    120 CA        -4.5234  -17.8094  -50.3506 C.3       22 UNK         0.1400 
    121 C         -5.1501  -17.0266  -51.5385 C.2       22 UNK         0.5000 
    122 N         -5.6280  -15.8108  -51.3195 N.am      22 UNK        -0.7600 
    123 O         -5.2500  -17.5388  -52.6512 O.2       22 UNK        -0.5000 
    124 C124       -5.5174  -18.8891  -49.8522 C.3       23 UNK        -0.0398 
    125 S125       -4.8891  -19.9012  -48.4634 S.3       23 UNK        -0.2404 
    126 C126       -6.0850  -19.5302  -47.1385 C.3       23 UNK        -0.0205 
    127 H127       -3.9106   -9.6016  -48.4479 H         1 UNK         0.0600 
    128 H128       -4.0825   -9.1917  -50.1567 H         1 UNK         0.0600 
    129 H129       -2.5603   -8.8695  -49.3191 H         1 UNK         0.0600 
    130 H130       -3.6043  -11.7793  -48.1107 H         1 UNK         0.3000 
    131 H131       -2.9154  -13.6317  -50.1874 H         1 UNK         0.0600 
    132 H132       -3.0175  -15.3399  -48.3537 H         1 UNK         0.0800 
    133 H133       -3.1554  -14.0594  -47.1693 H         1 UNK         0.0800 
    134 H134       -5.3727  -13.7041  -46.1305 H         1 UNK         0.0800 
    135 H135       -6.8804  -14.3192  -46.7617 H         1 UNK         0.0800 
    136 H136       -6.4269  -16.9090  -47.8334 H         1 UNK         0.1150 
    137 H137       -4.9379  -19.3886  -44.6829 H         1 UNK         0.1150 
    138 H138       -4.5901  -15.1237  -44.4015 H         1 UNK         0.1150 
    139 H139       -4.6303  -18.0858  -42.3966 H         1 UNK         0.0800 
    140 H140       -4.0745  -16.4422  -42.4985 H         1 UNK         0.0800 
    141 H141       -3.5154  -20.0334  -43.0354 H         1 UNK         0.0800 
    142 H142       -1.8801  -20.2334  -42.5044 H         1 UNK         0.0800 
    143 H143       -2.6234  -19.6501  -45.4215 H         1 UNK         0.0600 
    144 H144       -0.0789  -19.7886  -44.1573 H         1 UNK         0.3000 
    145 H145        1.8221  -20.6070  -47.0877 H         1 UNK         0.0600 
    146 H146        1.4081  -18.1669  -47.1932 H         1 UNK         0.0600 
    147 H147        2.9490  -18.5071  -46.4162 H         1 UNK         0.0600 
    148 H148        1.5545  -18.0410  -45.4470 H         1 UNK         0.0600 
    149 H149        2.3372  -20.0308  -44.2659 H         1 UNK         0.3000 
    150 H150        2.3497  -23.4119  -43.2427 H         1 UNK         0.0600 
    151 H151        4.8519  -21.6952  -43.7033 H         1 UNK         0.0600 
    152 H152        4.6207  -23.3371  -44.2924 H         1 UNK         0.0600 
    153 H153        4.7106  -23.0356  -42.5647 H         1 UNK         0.0600 
    154 H154        3.2492  -21.0575  -41.9295 H         1 UNK         0.3000 
    155 H155        0.2557  -19.4580  -41.2472 H         1 UNK         0.0600 
    156 H156        1.5738  -21.3060  -39.1838 H         1 UNK         0.0600 
    157 H157       -0.1367  -21.2892  -39.5960 H         1 UNK         0.0600 
    158 H158        0.5868  -19.8885  -38.8231 H         1 UNK         0.0600 
    159 H159        2.8227  -19.3377  -39.9791 H         1 UNK         0.3000 
    160 H160        4.2202  -17.6955  -40.4324 H         1 UNK         0.0600 
    161 H161        5.1061  -18.6219  -43.2286 H         1 UNK         0.0600 
    162 H162        5.2014  -19.5921  -41.7626 H         1 UNK         0.0600 
    163 H163        6.1836  -18.1471  -41.9175 H         1 UNK         0.0600 
    164 H164        3.4844  -16.1966  -42.8346 H         1 UNK         0.3000 
    165 H165        5.2878  -13.3097  -41.5854 H         1 UNK         0.0600 
    166 H166        5.6522  -13.0517  -44.0432 H         1 UNK         0.0600 
    167 H167        6.7421  -14.2302  -43.3299 H         1 UNK         0.0600 
    168 H168        5.3651  -14.7763  -44.2706 H         1 UNK         0.0600 
    169 H169        3.1033  -13.9722  -43.4568 H         1 UNK         0.3000 
    170 H170        0.5664  -12.7595  -41.4203 H         1 UNK         0.0600 
    171 H171        0.2335  -10.7932  -42.9092 H         1 UNK         0.0600 
    172 H172        1.9223  -10.8646  -43.4146 H         1 UNK         0.0600 
    173 H173        1.5124  -10.4796  -41.7476 H         1 UNK         0.0600 
    174 H174        0.9868  -12.9442  -44.3076 H         1 UNK         0.3000 
    175 H175        0.2014  -16.3767  -44.5339 H         1 UNK         0.0600 
    176 H176       -2.0605  -15.2561  -44.3994 H         1 UNK         0.0600 
    177 H177       -1.4680  -13.9788  -45.4508 H         1 UNK         0.0600 
    178 H178       -1.5803  -15.6410  -46.0437 H         1 UNK         0.0600 
    179 H179        0.6405  -14.4715  -46.5750 H         1 UNK         0.3000 
    180 H180        3.7335  -13.7550  -46.5792 H         1 UNK         0.0600 
    181 H181        3.8119  -16.6069  -47.6881 H         1 UNK         0.0600 
    182 H182        4.9125  -15.9320  -46.4980 H         1 UNK         0.0600 
    183 H183        4.9019  -15.2969  -48.1334 H         1 UNK         0.0600 
    184 H184        2.5234  -13.2169  -48.3261 H         1 UNK         0.3000 
    185 H185        1.3572  -13.1926  -50.1165 H         1 UNK         0.0600 
    186 H186        2.4109  -14.9508  -51.5362 H         1 UNK         0.0600 
    187 H187        0.9561  -15.9320  -51.4242 H         1 UNK         0.0600 
    188 H188        0.9104  -14.3732  -52.2461 H         1 UNK         0.0600 
    189 H189       -1.0133  -14.7332  -50.5675 H         1 UNK         0.3000 
    190 H190       -0.7466  -22.3454  -44.1623 H         1 UNK         0.3000 
    191 H191       -2.6734  -24.3930  -44.2646 H         1 UNK         0.0600 
    192 H192       -0.4661  -24.5278  -43.0920 H         1 UNK         0.0600 
    193 H193       -0.7100  -25.8930  -44.1695 H         1 UNK         0.0600 
    194 H194        0.3587  -24.5843  -44.6495 H         1 UNK         0.0600 
    195 H195       -1.5206  -22.6642  -46.9496 H         1 UNK         0.3000 
    196 H196       -1.5653  -24.6044  -49.0322 H         1 UNK         0.0600 
    197 H197       -0.7286  -22.3068  -49.3838 H         1 UNK         0.0600 
    198 H198       -2.3081  -21.6277  -48.9915 H         1 UNK         0.0600 
    199 H199       -2.1014  -22.5720  -50.4532 H         1 UNK         0.0600 
    200 H200       -4.1441  -22.9526  -47.2545 H         1 UNK         0.3000 
    201 H201       -6.3605  -23.0665  -47.2054 H         1 UNK         0.0600 
    202 H202       -7.2813  -25.3610  -47.1197 H         1 UNK         0.0600 
    203 H203       -5.6958  -25.3305  -46.3665 H         1 UNK         0.0600 
    204 H204       -5.8867  -25.9909  -47.9895 H         1 UNK         0.0600 
    205 H205       -5.3863  -22.1538  -49.7203 H         1 UNK         0.3000 
    206 H206       -5.9646  -21.5187  -51.7484 H         1 UNK         0.0600 
    207 H207       -8.1119  -20.8451  -50.6297 H         1 UNK         0.0600 
    208 H208       -8.3290  -21.2266  -52.3288 H         1 UNK         0.0600 
    209 H209       -8.8289  -22.3841  -51.1047 H         1 UNK         0.0600 
    210 H210       -5.0789  -24.3631  -51.3538 H         1 UNK         0.3000 
    211 H211       -6.1295  -25.8166  -53.6346 H         1 UNK         0.0600 
    212 H212       -3.4796  -26.1238  -52.1174 H         1 UNK         0.0600 
    213 H213       -4.1796  -27.2886  -53.2336 H         1 UNK         0.0600 
    214 H214       -4.9838  -26.9462  -51.7083 H         1 UNK         0.0600 
    215 H215       -5.5583  -25.5715  -55.7386 H         1 UNK         0.3000 
    216 H216       -4.2407  -23.2746  -56.6551 H         1 UNK         0.0600 
    217 H217       -4.9923  -25.8407  -58.1554 H         1 UNK         0.0600 
    218 H218       -4.6094  -24.2974  -58.9086 H         1 UNK         0.0600 
    219 H219       -6.0380  -24.4428  -57.8989 H         1 UNK         0.0600 
    220 H220       -2.8499  -26.3613  -55.8722 H         1 UNK         0.3000 
    221 H221       -0.4278  -26.1568  -57.4229 H         1 UNK         0.0600 
    222 H222       -1.0863  -27.7632  -54.8933 H         1 UNK         0.0600 
    223 H223       -1.2835  -28.3231  -56.5548 H         1 UNK         0.0600 
    224 H224        0.3224  -28.0050  -55.9195 H         1 UNK         0.0600 
    225 H225       -1.5069  -24.6871  -54.4381 H         1 UNK         0.3000 
    226 H226        1.2578  -23.7755  -53.7293 H         1 UNK         0.0600 
    227 H227        0.1869  -25.0094  -51.9093 H         1 UNK         0.0600 
    228 H228        0.2202  -23.3044  -51.4910 H         1 UNK         0.0600 
    229 H229       -1.2814  -24.0523  -52.0433 H         1 UNK         0.0600 
    230 H230       -2.1685  -22.7150  -53.8576 H         1 UNK         0.3000 
    231 H231       -3.2169  -20.8357  -54.2731 H         1 UNK         0.0600 
    232 H232       -0.9347  -20.3244  -56.2472 H         1 UNK         0.0600 
    233 H233       -2.5625  -19.6636  -56.3440 H         1 UNK         0.0600 
    234 H234       -2.3100  -21.3889  -56.5311 H         1 UNK         0.0600 
    235 H235       -1.2668  -20.5737  -52.0373 H         1 UNK         0.3000 
    236 H236       -0.2594  -17.8752  -52.0487 H         1 UNK         0.0600 
    237 H237       -0.7304  -19.8123  -49.7256 H         1 UNK         0.0600 
    238 H238        0.7567  -19.6720  -50.6639 H         1 UNK         0.0600 
    239 H239        0.2210  -18.3404  -49.6507 H         1 UNK         0.0600 
    240 H240       -3.2301  -19.3971  -50.8742 H         1 UNK         0.3000 
    241 H241       -4.3402  -17.1145  -49.5296 H         1 UNK         0.0600 
    242 H242       -6.0514  -15.3095  -52.0844 H         1 UNK         0.3800 
    243 H243       -5.5595  -15.3664  -50.4141 H         1 UNK         0.3800 
    244 H244       -5.7644  -19.5660  -50.6677 H         1 UNK         0.0800 
    245 H245       -6.4630  -18.4265  -49.5682 H         1 UNK         0.0800 
    246 H246       -7.0902  -19.4209  -47.5475 H         1 UNK         0.0800 
    247 H247       -6.1264  -20.3911  -46.4694 H         1 UNK         0.0800 
@<TRIPOS>BOND
     1    1    2 1    
     2    1  127 1    
     3    1  128 1    
     4    1  129 1    
     5    2    3 2    
     6    2    4 am   BACKBONE|DICT|INTERRES
     7    4    5 1    
     8    4  130 1    
     9    5    6 1    
    10    5   65 1    
    11    5  131 1    
    12    6    7 1    
    13    6  132 1    
    14    6  133 1    
    15    7    8 1    
    16    8    9 1    
    17    8  134 1    
    18    8  135 1    
    19    9   10 ar   
    20    9   14 ar   
    21   10   11 ar   
    22   10  136 1    
    23   11   12 ar   
    24   11  126 1    
    25   12   13 ar   
    26   12  137 1    
    27   13   14 ar   
    28   13   15 1    
    29   14  138 1    
    30   15   16 1    
    31   15  139 1    
    32   15  140 1    
    33   16   17 1    
    34   17   18 1    
    35   17  141 1    
    36   17  142 1    
    37   18   19 1    
    38   18   67 1    
    39   18  143 1    
    40   19   20 am   BACKBONE|DICT|INTERRES
    41   19  144 1    
    42   20   21 2    
    43   20   22 1    
    44   22   23 1    
    45   22   24 1    
    46   22  145 1    
    47   23  146 1    
    48   23  147 1    
    49   23  148 1    
    50   24   25 am   BACKBONE|DICT|INTERRES
    51   24  149 1    
    52   25   26 2    
    53   25   27 1    
    54   27   28 1    
    55   27   29 1    
    56   27  150 1    
    57   28  151 1    
    58   28  152 1    
    59   28  153 1    
    60   29   30 am   BACKBONE|DICT|INTERRES
    61   29  154 1    
    62   30   31 2    
    63   30   32 1    
    64   32   33 1    
    65   32   34 1    
    66   32  155 1    
    67   33  156 1    
    68   33  157 1    
    69   33  158 1    
    70   34   35 am   BACKBONE|DICT|INTERRES
    71   34  159 1    
    72   35   36 2    
    73   35   37 1    
    74   37   38 1    
    75   37   39 1    
    76   37  160 1    
    77   38  161 1    
    78   38  162 1    
    79   38  163 1    
    80   39   40 am   BACKBONE|DICT|INTERRES
    81   39  164 1    
    82   40   41 2    
    83   40   42 1    
    84   42   43 1    
    85   42   44 1    
    86   42  165 1    
    87   43  166 1    
    88   43  167 1    
    89   43  168 1    
    90   44   45 am   BACKBONE|DICT|INTERRES
    91   44  169 1    
    92   45   46 2    
    93   45   47 1    
    94   47   48 1    
    95   47   49 1    
    96   47  170 1    
    97   48  171 1    
    98   48  172 1    
    99   48  173 1    
   100   49   50 am   BACKBONE|DICT|INTERRES
   101   49  174 1    
   102   50   51 2    
   103   50   52 1    
   104   52   53 1    
   105   52   54 1    
   106   52  175 1    
   107   53  176 1    
   108   53  177 1    
   109   53  178 1    
   110   54   55 am   BACKBONE|DICT|INTERRES
   111   54  179 1    
   112   55   56 2    
   113   55   57 1    
   114   57   58 1    
   115   57   59 1    
   116   57  180 1    
   117   58  181 1    
   118   58  182 1    
   119   58  183 1    
   120   59   60 am   BACKBONE|DICT|INTERRES
   121   59  184 1    
   122   60   61 2    
   123   60   62 1    
   124   62   63 1    
   125   62   64 1    
   126   62  185 1    
   127   63  186 1    
   128   63  187 1    
   129   63  188 1    
   130   64   65 am   BACKBONE|DICT|INTERRES
   131   64  189 1    
   132   65   66 2    
   133   67   68 2    
   134   67   69 am   BACKBONE|DICT|INTERRES
   135   69   70 1    
   136   69  190 1    
   137   70   71 1    
   138   70   72 1    
   139   70  191 1    
   140   71  192 1    
   141   71  193 1    
   142   71  194 1    
   143   72   73 2    
   144   72   74 am   BACKBONE|DICT|INTERRES
   145   74   75 1    
   146   74  195 1    
   147   75   76 1    
   148   75   77 1    
   149   75  196 1    
   150   76  197 1    
   151   76  198 1    
   152   76  199 1    
   153   77   78 2    
   154   77   79 am   BACKBONE|DICT|INTERRES
   155   79   80 1    
   156   79  200 1    
   157   80   81 1    
   158   80   82 1    
   159   80  201 1    
   160   81  202 1    
   161   81  203 1    
   162   81  204 1    
   163   82   83 2    
   164   82   84 am   BACKBONE|DICT|INTERRES
   165   84   85 1    
   166   84  205 1    
   167   85   86 1    
   168   85   87 1    
   169   85  206 1    
   170   86  207 1    
   171   86  208 1    
   172   86  209 1    
   173   87   88 2    
   174   87   89 am   BACKBONE|DICT|INTERRES
   175   89   90 1    
   176   89  210 1    
   177   90   91 1    
   178   90   92 1    
   179   90  211 1    
   180   91  212 1    
   181   91  213 1    
   182   91  214 1    
   183   92   93 2    
   184   92   94 am   BACKBONE|DICT|INTERRES
   185   94   95 1    
   186   94  215 1    
   187   95   96 1    
   188   95   97 1    
   189   95  216 1    
   190   96  217 1    
   191   96  218 1    
   192   96  219 1    
   193   97   98 2    
   194   97   99 am   BACKBONE|DICT|INTERRES
   195   99  100 1    
   196   99  220 1    
   197  100  101 1    
   198  100  102 1    
   199  100  221 1    
   200  101  222 1    
   201  101  223 1    
   202  101  224 1    
   203  102  103 2    
   204  102  104 am   BACKBONE|DICT|INTERRES
   205  104  105 1    
   206  104  225 1    
   207  105  106 1    
   208  105  107 1    
   209  105  226 1    
   210  106  227 1    
   211  106  228 1    
   212  106  229 1    
   213  107  108 2    
   214  107  109 am   BACKBONE|DICT|INTERRES
   215  109  110 1    
   216  109  230 1    
   217  110  111 1    
   218  110  112 1    
   219  110  231 1    
   220  111  232 1    
   221  111  233 1    
   222  111  234 1    
   223  112  113 2    
   224  112  114 am   BACKBONE|DICT|INTERRES
   225  114  115 1    
   226  114  235 1    
   227  115  116 1    
   228  115  117 1    
   229  115  236 1    
   230  116  237 1    
   231  116  238 1    
   232  116  239 1    
   233  117  118 2    
   234  117  119 am   BACKBONE|DICT|INTERRES
   235  119  120 1    
   236  119  240 1    
   237  120  121 1    
   238  120  124 1    
   239  120  241 1    
   240  121  122 am   BACKBONE|DICT|INTERRES
   241  121  123 2    
   242  122  242 1    
   243  122  243 1    
   244  124  125 1    
   245  124  244 1    
   246  124  245 1    
   247  125  126 1    
   248  126  246 1    
   249  126  247 1    
@<TRIPOS>SUBSTRUCTURE
     1 UNK         1 GROUP             0       ****    0 ROOT    
