@<TRIPOS>MOLECULE
3R540
247   249    1
SMALL
USER_CHARGES


@<TRIPOS>ATOM
      1 CA          5.0340   -9.8870  -48.8212 C.3       0 UNK        -0.1800 
      2 C           4.2157  -11.1687  -48.8902 C.2       0 UNK         0.5000 
      3 O           4.7547  -12.2230  -49.2271 O.2       0 UNK        -0.5000 
      4 N           2.9200  -11.0831  -48.5733 N.am      1 UNK        -0.5000 
      5 CA          1.9822  -12.2056  -48.5641 C.3       1 UNK         0.1400 
      6 C6          1.4688  -12.5704  -49.9839 C.3       23 UNK        -0.0398 
      7 S7          0.8738  -14.2940  -50.0793 S.3       23 UNK        -0.2404 
      8 C8          2.1607  -15.0531  -51.1158 C.3       23 UNK        -0.0205 
      9 C9          1.9180  -16.5442  -51.2836 C.ar      23 UNK        -0.0193 
     10 C10         0.9778  -17.0034  -52.2120 C.ar      23 UNK        -0.1150 
     11 C11         0.7413  -18.3727  -52.3614 C.ar      23 UNK        -0.0193 
     12 C12         1.4606  -19.2841  -51.5850 C.ar      23 UNK        -0.1150 
     13 C13         2.4008  -18.8379  -50.6527 C.ar      23 UNK        -0.0193 
     14 C14         2.6277  -17.4662  -50.5079 C.ar      23 UNK        -0.1150 
     15 C15         3.1638  -19.8409  -49.7994 C.3       23 UNK        -0.0205 
     16 S16         2.6204  -19.8252  -48.0615 S.3       23 UNK        -0.2404 
     17 C17         0.8749  -20.3435  -48.1865 C.3       23 UNK        -0.0398 
     18 CA          0.6495  -21.8260  -47.8142 C.3       11 UNK         0.1400 
     19 N           1.0434  -22.1043  -46.4338 N.am      11 UNK        -0.5000 
     20 C           1.1616  -23.3217  -45.8909 C.2       10 UNK         0.5000 
     21 O           1.0288  -24.3676  -46.5297 O.2       10 UNK        -0.5000 
     22 CA          1.4762  -23.3619  -44.3809 C.3       10 UNK         0.1400 
     23 CB          1.9088  -24.7556  -43.8809 C.3       10 UNK        -0.1800 
     24 N           2.4379  -22.3335  -43.9752 N.am      10 UNK        -0.5000 
     25 C           3.7124  -22.1940  -44.3701 C.2       9 UNK         0.5000 
     26 O           4.2886  -22.9816  -45.1216 O.2       9 UNK        -0.5000 
     27 CA          4.4830  -20.9639  -43.8438 C.3       9 UNK         0.1400 
     28 CB          4.7513  -19.9673  -44.9813 C.3       9 UNK        -0.1800 
     29 N           3.7944  -20.2582  -42.7613 N.am      9 UNK        -0.5000 
     30 C           3.7133  -20.6817  -41.4934 C.2       8 UNK         0.5000 
     31 O           4.2748  -21.6936  -41.0724 O.2       8 UNK        -0.5000 
     32 CA          2.8221  -19.8545  -40.5470 C.3       8 UNK         0.1400 
     33 CB          3.6048  -18.6705  -39.9598 C.3       8 UNK        -0.1800 
     34 N           1.5993  -19.3651  -41.1913 N.am      8 UNK        -0.5000 
     35 C           0.6160  -20.1514  -41.6547 C.2       7 UNK         0.5000 
     36 O           0.6270  -21.3793  -41.5717 O.2       7 UNK        -0.5000 
     37 CA         -0.5580  -19.4591  -42.3692 C.3       7 UNK         0.1400 
     38 CB         -1.5402  -18.8614  -41.3510 C.3       7 UNK        -0.1800 
     39 N          -0.1151  -18.4242  -43.3037 N.am      7 UNK        -0.5000 
     40 C           0.5997  -18.6635  -44.4127 C.2       6 UNK         0.5000 
     41 O           0.9127  -19.7924  -44.7887 O.2       6 UNK        -0.5000 
     42 CA          1.0833  -17.4404  -45.2131 C.3       6 UNK         0.1400 
     43 CB         -0.0274  -16.8905  -46.1209 C.3       6 UNK        -0.1800 
     44 N           1.5764  -16.3671  -44.3530 N.am      6 UNK        -0.5000 
     45 C           2.6212  -16.4671  -43.5204 C.2       5 UNK         0.5000 
     46 O           3.3221  -17.4721  -43.4134 O.2       5 UNK        -0.5000 
     47 CA          2.8901  -15.2562  -42.6129 C.3       5 UNK         0.1400 
     48 CB          3.6227  -14.1433  -43.3782 C.3       5 UNK        -0.1800 
     49 N           1.6540  -14.7306  -42.0328 N.am      5 UNK        -0.5000 
     50 C           0.9149  -15.3757  -41.1190 C.2       4 UNK         0.5000 
     51 O           1.2138  -16.4723  -40.6467 O.2       4 UNK        -0.5000 
     52 CA         -0.3977  -14.6965  -40.6890 C.3       4 UNK         0.1400 
     53 CB         -0.1324  -13.6372  -39.6090 C.3       4 UNK        -0.1800 
     54 N          -1.1053  -14.0798  -41.8119 N.am      4 UNK        -0.5000 
     55 C          -1.6660  -14.7657  -42.8177 C.2       3 UNK         0.5000 
     56 O          -1.6640  -15.9932  -42.8945 O.2       3 UNK        -0.5000 
     57 CA         -2.2908  -13.9369  -43.9545 C.3       3 UNK         0.1400 
     58 CB         -3.7252  -13.5212  -43.5960 C.3       3 UNK        -0.1800 
     59 N          -1.5109  -12.7476  -44.3132 N.am      3 UNK        -0.5000 
     60 C          -0.2487  -12.7769  -44.7596 C.2       2 UNK         0.5000 
     61 O           0.4267  -13.8055  -44.8350 O.2       2 UNK        -0.5000 
     62 CA          0.3823  -11.4316  -45.1586 C.3       2 UNK         0.1400 
     63 CB          1.1740  -10.8419  -43.9813 C.3       2 UNK        -0.1800 
     64 N           1.2796  -11.6012  -46.3021 N.am      2 UNK        -0.5000 
     65 C           0.8696  -11.9007  -47.5427 C.2       1 UNK         0.5000 
     66 O          -0.3153  -11.8990  -47.8821 O.2       1 UNK        -0.5000 
     67 C          -0.8361  -22.1789  -48.0083 C.2       11 UNK         0.5000 
     68 O          -1.6522  -21.8129  -47.1589 O.2       11 UNK        -0.5000 
     69 N          -1.1727  -22.8305  -49.1316 N.am      12 UNK        -0.5000 
     70 CA         -2.5234  -23.3018  -49.4705 C.3       12 UNK         0.1400 
     71 CB         -2.5025  -23.9558  -50.8602 C.3       12 UNK        -0.1800 
     72 C          -3.6071  -22.2097  -49.4144 C.2       12 UNK         0.5000 
     73 O          -4.7090  -22.4734  -48.9377 O.2       12 UNK        -0.5000 
     74 N          -3.2403  -20.9879  -49.8240 N.am      13 UNK        -0.5000 
     75 CA         -4.0760  -19.7858  -49.7882 C.3       13 UNK         0.1400 
     76 CB         -3.2897  -18.6326  -50.4325 C.3       13 UNK        -0.1800 
     77 C          -4.5619  -19.3782  -48.3800 C.2       13 UNK         0.5000 
     78 O          -5.5636  -18.6702  -48.2786 O.2       13 UNK        -0.5000 
     79 N          -3.8593  -19.8227  -47.3296 N.am      14 UNK        -0.5000 
     80 CA         -4.2170  -19.5926  -45.9315 C.3       14 UNK         0.1400 
     81 CB         -3.0270  -18.9436  -45.2105 C.3       14 UNK        -0.1800 
     82 C          -4.6175  -20.9044  -45.2388 C.2       14 UNK         0.5000 
     83 O          -5.6138  -20.9260  -44.5166 O.2       14 UNK        -0.5000 
     84 N          -3.8398  -21.9722  -45.4640 N.am      15 UNK        -0.5000 
     85 CA         -3.9862  -23.2664  -44.7983 C.3       15 UNK         0.1400 
     86 CB         -2.7025  -24.0853  -45.0065 C.3       15 UNK        -0.1800 
     87 C          -5.2175  -24.0656  -45.2593 C.2       15 UNK         0.5000 
     88 O          -5.8360  -24.7407  -44.4354 O.2       15 UNK        -0.5000 
     89 N          -5.5482  -23.9804  -46.5541 N.am      16 UNK        -0.5000 
     90 CA         -6.6774  -24.6783  -47.1752 C.3       16 UNK         0.1400 
     91 CB         -6.1381  -25.5686  -48.3086 C.3       16 UNK        -0.1800 
     92 C          -7.7368  -23.7006  -47.7159 C.2       16 UNK         0.5000 
     93 O          -8.7629  -24.1535  -48.2253 O.2       16 UNK        -0.5000 
     94 N          -7.4616  -22.3896  -47.6373 N.am      17 UNK        -0.5000 
     95 CA         -8.1958  -21.2445  -48.1932 C.3       17 UNK         0.1400 
     96 CB         -9.6305  -21.1587  -47.6392 C.3       17 UNK        -0.1800 
     97 C          -8.1792  -21.1861  -49.7347 C.2       17 UNK         0.5000 
     98 O          -7.9262  -20.1220  -50.2999 O.2       17 UNK        -0.5000 
     99 N          -8.4297  -22.3246  -50.3903 N.am      18 UNK        -0.5000 
    100 CA        -8.2984  -22.5234  -51.8280 C.3       18 UNK         0.1400 
    101 CB        -9.0153  -23.8249  -52.2221 C.3       18 UNK        -0.1800 
    102 C         -6.8113  -22.5590  -52.2205 C.2       18 UNK         0.5000 
    103 O         -6.1209  -23.5329  -51.9160 O.2       18 UNK        -0.5000 
    104 N         -6.3463  -21.4891  -52.8763 N.am      19 UNK        -0.5000 
    105 CA        -4.9610  -21.3257  -53.3214 C.3       19 UNK         0.1400 
    106 CB        -4.7365  -19.8524  -53.6959 C.3       19 UNK        -0.1800 
    107 C         -4.5796  -22.2425  -54.5003 C.2       19 UNK         0.5000 
    108 O         -3.3956  -22.5294  -54.6733 O.2       19 UNK        -0.5000 
    109 N         -5.5806  -22.6713  -55.2864 N.am      20 UNK        -0.5000 
    110 CA        -5.4642  -23.4685  -56.5121 C.3       20 UNK         0.1400 
    111 CB        -4.9565  -24.8937  -56.1952 C.3       20 UNK        -0.1800 
    112 C         -4.6424  -22.7155  -57.5800 C.2       20 UNK         0.5000 
    113 O         -4.9512  -21.5536  -57.8602 O.2       20 UNK        -0.5000 
    114 N         -3.5949  -23.3458  -58.1297 N.am      21 UNK        -0.5000 
    115 CA        -2.6499  -22.7804  -59.1025 C.3       21 UNK         0.1400 
    116 CB        -1.9245  -23.9381  -59.8120 C.3       21 UNK        -0.1800 
    117 C         -1.6697  -21.7591  -58.4739 C.2       21 UNK         0.5000 
    118 O         -0.4599  -21.8259  -58.6990 O.2       21 UNK        -0.5000 
    119 N         -2.2203  -20.8413  -57.6788 N.am      22 UNK        -0.5000 
    120 CA        -1.5372  -19.7984  -56.9074 C.3       22 UNK         0.1400 
    121 C         -2.4503  -18.5591  -56.6524 C.2       22 UNK         0.5000 
    122 N         -3.7148  -18.5500  -57.0661 N.am      22 UNK        -0.7600 
    123 O         -2.0036  -17.5634  -56.0920 O.2       22 UNK        -0.5000 
    124 C124       -0.9318  -20.3914  -55.6055 C.3       23 UNK        -0.0398 
    125 S125        0.4524  -19.4398  -54.8947 S.3       23 UNK        -0.2404 
    126 C126       -0.3055  -18.8787  -53.3382 C.3       23 UNK        -0.0205 
    127 H127        4.4288   -9.0352  -48.5098 H         1 UNK         0.0600 
    128 H128        5.4607   -9.6614  -49.7985 H         1 UNK         0.0600 
    129 H129        5.8514  -10.0016  -48.1092 H         1 UNK         0.0600 
    130 H130        2.5288  -10.1934  -48.2927 H         1 UNK         0.3000 
    131 H131        2.5150  -13.0722  -48.1650 H         1 UNK         0.0600 
    132 H132        0.6756  -11.8949  -50.3082 H         1 UNK         0.0800 
    133 H133        2.2685  -12.4442  -50.7146 H         1 UNK         0.0800 
    134 H134        3.1396  -14.8745  -50.6673 H         1 UNK         0.0800 
    135 H135        2.1736  -14.5705  -52.0944 H         1 UNK         0.0800 
    136 H136        0.4221  -16.2931  -52.8083 H         1 UNK         0.1150 
    137 H137        1.2793  -20.3433  -51.7029 H         1 UNK         0.1150 
    138 H138        3.3497  -17.1184  -49.7821 H         1 UNK         0.1150 
    139 H139        3.0601  -20.8512  -50.1980 H         1 UNK         0.0800 
    140 H140        4.2284  -19.6060  -49.8372 H         1 UNK         0.0800 
    141 H141        0.5013  -20.1395  -49.1890 H         1 UNK         0.0800 
    142 H142        0.2957  -19.7014  -47.5231 H         1 UNK         0.0800 
    143 H143        1.2531  -22.4510  -48.4755 H         1 UNK         0.0600 
    144 H144        1.1247  -21.2912  -45.8262 H         1 UNK         0.3000 
    145 H145        0.5431  -23.1105  -43.8752 H         1 UNK         0.0600 
    146 H146        2.1070  -24.7444  -42.8091 H         1 UNK         0.0600 
    147 H147        1.1251  -25.4931  -44.0576 H         1 UNK         0.0600 
    148 H148        2.8085  -25.1081  -44.3858 H         1 UNK         0.0600 
    149 H149        2.0617  -21.6149  -43.3704 H         1 UNK         0.3000 
    150 H150        5.4451  -21.3200  -43.4700 H         1 UNK         0.0600 
    151 H151        5.2499  -20.4486  -45.8235 H         1 UNK         0.0600 
    152 H152        5.3910  -19.1506  -44.6468 H         1 UNK         0.0600 
    153 H153        3.8233  -19.5318  -45.3521 H         1 UNK         0.0600 
    154 H154        3.3618  -19.3717  -43.0070 H         1 UNK         0.3000 
    155 H155        2.5248  -20.5053  -39.7222 H         1 UNK         0.0600 
    156 H156        4.5138  -19.0104  -39.4620 H         1 UNK         0.0600 
    157 H157        3.0105  -18.1339  -39.2201 H         1 UNK         0.0600 
    158 H158        3.8987  -17.9592  -40.7321 H         1 UNK         0.0600 
    159 H159        1.4972  -18.3572  -41.2616 H         1 UNK         0.3000 
    160 H160       -1.0906  -20.2203  -42.9435 H         1 UNK         0.0600 
    161 H161       -1.0818  -18.0604  -40.7707 H         1 UNK         0.0600 
    162 H162       -1.8857  -19.6209  -40.6487 H         1 UNK         0.0600 
    163 H163       -2.4213  -18.4525  -41.8450 H         1 UNK         0.0600 
    164 H164       -0.3957  -17.4712  -43.0925 H         1 UNK         0.3000 
    165 H165        1.9108  -17.7667  -45.8459 H         1 UNK         0.0600 
    166 H166        0.3534  -16.1046  -46.7739 H         1 UNK         0.0600 
    167 H167       -0.4454  -17.6683  -46.7590 H         1 UNK         0.0600 
    168 H168       -0.8468  -16.4693  -45.5390 H         1 UNK         0.0600 
    169 H169        1.0795  -15.4804  -44.4047 H         1 UNK         0.3000 
    170 H170        3.5351  -15.5863  -41.7958 H         1 UNK         0.0600 
    171 H171        3.8454  -13.2975  -42.7277 H         1 UNK         0.0600 
    172 H172        4.5716  -14.5067  -43.7747 H         1 UNK         0.0600 
    173 H173        3.0379  -13.7748  -44.2211 H         1 UNK         0.0600 
    174 H174        1.3051  -13.8644  -42.4140 H         1 UNK         0.3000 
    175 H175       -1.0447  -15.4652  -40.2607 H         1 UNK         0.0600 
    176 H176        0.3818  -14.0748  -38.7521 H         1 UNK         0.0600 
    177 H177        0.4889  -12.8232  -39.9844 H         1 UNK         0.0600 
    178 H178       -1.0643  -13.2069  -39.2419 H         1 UNK         0.0600 
    179 H179       -1.1492  -13.0718  -41.8309 H         1 UNK         0.3000 
    180 H180       -2.3360  -14.5777  -44.8374 H         1 UNK         0.0600 
    181 H181       -4.3315  -14.3918  -43.3415 H         1 UNK         0.0600 
    182 H182       -3.7479  -12.8439  -42.7414 H         1 UNK         0.0600 
    183 H183       -4.2124  -13.0222  -44.4338 H         1 UNK         0.0600 
    184 H184       -1.9950  -11.8625  -44.2676 H         1 UNK         0.3000 
    185 H185       -0.4096  -10.7327  -45.4361 H         1 UNK         0.0600 
    186 H186        0.5294  -10.6842  -43.1157 H         1 UNK         0.0600 
    187 H187        1.9867  -11.4989  -43.6699 H         1 UNK         0.0600 
    188 H188        1.6064   -9.8759  -44.2425 H         1 UNK         0.0600 
    189 H189        2.2679  -11.6316  -46.0989 H         1 UNK         0.3000 
    190 H190       -0.4421  -23.0906  -49.7785 H         1 UNK         0.3000 
    191 H191       -2.7944  -24.0650  -48.7381 H         1 UNK         0.0600 
    192 H192       -1.8172  -24.8030  -50.8888 H         1 UNK         0.0600 
    193 H193       -2.1994  -23.2506  -51.6354 H         1 UNK         0.0600 
    194 H194       -3.4911  -24.3311  -51.1296 H         1 UNK         0.0600 
    195 H195       -2.3002  -20.8697  -50.1692 H         1 UNK         0.3000 
    196 H196       -4.9639  -19.9838  -50.3922 H         1 UNK         0.0600 
    197 H197       -3.8977  -17.7287  -50.4885 H         1 UNK         0.0600 
    198 H198       -2.9813  -18.8778  -51.4485 H         1 UNK         0.0600 
    199 H199       -2.3925  -18.3897  -49.8614 H         1 UNK         0.0600 
    200 H200       -3.0614  -20.4256  -47.4959 H         1 UNK         0.3000 
    201 H201       -5.0660  -18.9105  -45.8534 H         1 UNK         0.0600 
    202 H202       -3.2424  -18.7910  -44.1526 H         1 UNK         0.0600 
    203 H203       -2.1302  -19.5600  -45.2814 H         1 UNK         0.0600 
    204 H204       -2.7990  -17.9674  -45.6369 H         1 UNK         0.0600 
    205 H205       -3.0266  -21.8753  -46.0699 H         1 UNK         0.3000 
    206 H206       -4.0959  -23.0820  -43.7274 H         1 UNK         0.0600 
    207 H207       -1.8323  -23.5556  -44.6194 H         1 UNK         0.0600 
    208 H208       -2.7589  -25.0423  -44.4864 H         1 UNK         0.0600 
    209 H209       -2.5235  -24.2944  -46.0619 H         1 UNK         0.0600 
    210 H210       -4.9961  -23.4000  -47.1768 H         1 UNK         0.3000 
    211 H211       -7.1832  -25.3206  -46.4519 H         1 UNK         0.0600 
    212 H212       -6.9381  -26.1569  -48.7595 H         1 UNK         0.0600 
    213 H213       -5.3905  -26.2698  -47.9375 H         1 UNK         0.0600 
    214 H214       -5.6799  -24.9792  -49.1038 H         1 UNK         0.0600 
    215 H215       -6.5648  -22.1538  -47.2390 H         1 UNK         0.3000 
    216 H216       -7.6622  -20.3606  -47.8417 H         1 UNK         0.0600 
    217 H217      -10.1158  -20.2386  -47.9667 H         1 UNK         0.0600 
    218 H218       -9.6320  -21.1571  -46.5492 H         1 UNK         0.0600 
    219 H219      -10.2520  -21.9888  -47.9752 H         1 UNK         0.0600 
    220 H220       -8.6117  -23.1508  -49.8280 H         1 UNK         0.3000 
    221 H221       -8.7897  -21.6962  -52.3446 H         1 UNK         0.0600 
    222 H222       -8.6024  -24.6887  -51.6990 H         1 UNK         0.0600 
    223 H223      -10.0794  -23.7730  -51.9911 H         1 UNK         0.0600 
    224 H224       -8.9227  -24.0129  -53.2925 H         1 UNK         0.0600 
    225 H225       -6.9714  -20.7155  -53.0532 H         1 UNK         0.3000 
    226 H226       -4.3031  -21.5720  -52.4858 H         1 UNK         0.0600 
    227 H227       -3.6876  -19.6595  -53.9197 H         1 UNK         0.0600 
    228 H228       -5.3165  -19.5675  -54.5747 H         1 UNK         0.0600 
    229 H229       -5.0196  -19.1869  -52.8806 H         1 UNK         0.0600 
    230 H230       -6.5109  -22.3463  -55.0676 H         1 UNK         0.3000 
    231 H231       -6.4727  -23.5610  -56.9174 H         1 UNK         0.0600 
    232 H232       -5.5874  -25.3707  -55.4449 H         1 UNK         0.0600 
    233 H233       -3.9354  -24.8956  -55.8123 H         1 UNK         0.0600 
    234 H234       -4.9826  -25.5282  -57.0819 H         1 UNK         0.0600 
    235 H235       -3.3846  -24.2782  -57.8045 H         1 UNK         0.3000 
    236 H236       -3.2230  -22.2393  -59.8582 H         1 UNK         0.0600 
    237 H237       -2.6337  -24.6153  -60.2884 H         1 UNK         0.0600 
    238 H238       -1.2609  -23.5662  -60.5938 H         1 UNK         0.0600 
    239 H239       -1.3198  -24.5201  -59.1154 H         1 UNK         0.0600 
    240 H240       -3.2258  -20.8961  -57.5554 H         1 UNK         0.3000 
    241 H241       -0.7193  -19.4296  -57.5289 H         1 UNK         0.0600 
    242 H242       -4.2668  -17.7238  -56.8975 H         1 UNK         0.3800 
    243 H243       -4.1308  -19.3231  -57.5617 H         1 UNK         0.3800 
    244 H244       -1.7113  -20.5429  -54.8604 H         1 UNK         0.0800 
    245 H245       -0.5329  -21.3874  -55.8024 H         1 UNK         0.0800 
    246 H246       -0.8517  -19.7012  -52.8740 H         1 UNK         0.0800 
    247 H247       -1.0410  -18.1013  -53.5510 H         1 UNK         0.0800 
@<TRIPOS>BOND
     1    1    2 1    
     2    1  127 1    
     3    1  128 1    
     4    1  129 1    
     5    2    3 2    
     6    2    4 am   BACKBONE|DICT|INTERRES
     7    4    5 1    
     8    4  130 1    
     9    5    6 1    
    10    5   65 1    
    11    5  131 1    
    12    6    7 1    
    13    6  132 1    
    14    6  133 1    
    15    7    8 1    
    16    8    9 1    
    17    8  134 1    
    18    8  135 1    
    19    9   10 ar   
    20    9   14 ar   
    21   10   11 ar   
    22   10  136 1    
    23   11   12 ar   
    24   11  126 1    
    25   12   13 ar   
    26   12  137 1    
    27   13   14 ar   
    28   13   15 1    
    29   14  138 1    
    30   15   16 1    
    31   15  139 1    
    32   15  140 1    
    33   16   17 1    
    34   17   18 1    
    35   17  141 1    
    36   17  142 1    
    37   18   19 1    
    38   18   67 1    
    39   18  143 1    
    40   19   20 am   BACKBONE|DICT|INTERRES
    41   19  144 1    
    42   20   21 2    
    43   20   22 1    
    44   22   23 1    
    45   22   24 1    
    46   22  145 1    
    47   23  146 1    
    48   23  147 1    
    49   23  148 1    
    50   24   25 am   BACKBONE|DICT|INTERRES
    51   24  149 1    
    52   25   26 2    
    53   25   27 1    
    54   27   28 1    
    55   27   29 1    
    56   27  150 1    
    57   28  151 1    
    58   28  152 1    
    59   28  153 1    
    60   29   30 am   BACKBONE|DICT|INTERRES
    61   29  154 1    
    62   30   31 2    
    63   30   32 1    
    64   32   33 1    
    65   32   34 1    
    66   32  155 1    
    67   33  156 1    
    68   33  157 1    
    69   33  158 1    
    70   34   35 am   BACKBONE|DICT|INTERRES
    71   34  159 1    
    72   35   36 2    
    73   35   37 1    
    74   37   38 1    
    75   37   39 1    
    76   37  160 1    
    77   38  161 1    
    78   38  162 1    
    79   38  163 1    
    80   39   40 am   BACKBONE|DICT|INTERRES
    81   39  164 1    
    82   40   41 2    
    83   40   42 1    
    84   42   43 1    
    85   42   44 1    
    86   42  165 1    
    87   43  166 1    
    88   43  167 1    
    89   43  168 1    
    90   44   45 am   BACKBONE|DICT|INTERRES
    91   44  169 1    
    92   45   46 2    
    93   45   47 1    
    94   47   48 1    
    95   47   49 1    
    96   47  170 1    
    97   48  171 1    
    98   48  172 1    
    99   48  173 1    
   100   49   50 am   BACKBONE|DICT|INTERRES
   101   49  174 1    
   102   50   51 2    
   103   50   52 1    
   104   52   53 1    
   105   52   54 1    
   106   52  175 1    
   107   53  176 1    
   108   53  177 1    
   109   53  178 1    
   110   54   55 am   BACKBONE|DICT|INTERRES
   111   54  179 1    
   112   55   56 2    
   113   55   57 1    
   114   57   58 1    
   115   57   59 1    
   116   57  180 1    
   117   58  181 1    
   118   58  182 1    
   119   58  183 1    
   120   59   60 am   BACKBONE|DICT|INTERRES
   121   59  184 1    
   122   60   61 2    
   123   60   62 1    
   124   62   63 1    
   125   62   64 1    
   126   62  185 1    
   127   63  186 1    
   128   63  187 1    
   129   63  188 1    
   130   64   65 am   BACKBONE|DICT|INTERRES
   131   64  189 1    
   132   65   66 2    
   133   67   68 2    
   134   67   69 am   BACKBONE|DICT|INTERRES
   135   69   70 1    
   136   69  190 1    
   137   70   71 1    
   138   70   72 1    
   139   70  191 1    
   140   71  192 1    
   141   71  193 1    
   142   71  194 1    
   143   72   73 2    
   144   72   74 am   BACKBONE|DICT|INTERRES
   145   74   75 1    
   146   74  195 1    
   147   75   76 1    
   148   75   77 1    
   149   75  196 1    
   150   76  197 1    
   151   76  198 1    
   152   76  199 1    
   153   77   78 2    
   154   77   79 am   BACKBONE|DICT|INTERRES
   155   79   80 1    
   156   79  200 1    
   157   80   81 1    
   158   80   82 1    
   159   80  201 1    
   160   81  202 1    
   161   81  203 1    
   162   81  204 1    
   163   82   83 2    
   164   82   84 am   BACKBONE|DICT|INTERRES
   165   84   85 1    
   166   84  205 1    
   167   85   86 1    
   168   85   87 1    
   169   85  206 1    
   170   86  207 1    
   171   86  208 1    
   172   86  209 1    
   173   87   88 2    
   174   87   89 am   BACKBONE|DICT|INTERRES
   175   89   90 1    
   176   89  210 1    
   177   90   91 1    
   178   90   92 1    
   179   90  211 1    
   180   91  212 1    
   181   91  213 1    
   182   91  214 1    
   183   92   93 2    
   184   92   94 am   BACKBONE|DICT|INTERRES
   185   94   95 1    
   186   94  215 1    
   187   95   96 1    
   188   95   97 1    
   189   95  216 1    
   190   96  217 1    
   191   96  218 1    
   192   96  219 1    
   193   97   98 2    
   194   97   99 am   BACKBONE|DICT|INTERRES
   195   99  100 1    
   196   99  220 1    
   197  100  101 1    
   198  100  102 1    
   199  100  221 1    
   200  101  222 1    
   201  101  223 1    
   202  101  224 1    
   203  102  103 2    
   204  102  104 am   BACKBONE|DICT|INTERRES
   205  104  105 1    
   206  104  225 1    
   207  105  106 1    
   208  105  107 1    
   209  105  226 1    
   210  106  227 1    
   211  106  228 1    
   212  106  229 1    
   213  107  108 2    
   214  107  109 am   BACKBONE|DICT|INTERRES
   215  109  110 1    
   216  109  230 1    
   217  110  111 1    
   218  110  112 1    
   219  110  231 1    
   220  111  232 1    
   221  111  233 1    
   222  111  234 1    
   223  112  113 2    
   224  112  114 am   BACKBONE|DICT|INTERRES
   225  114  115 1    
   226  114  235 1    
   227  115  116 1    
   228  115  117 1    
   229  115  236 1    
   230  116  237 1    
   231  116  238 1    
   232  116  239 1    
   233  117  118 2    
   234  117  119 am   BACKBONE|DICT|INTERRES
   235  119  120 1    
   236  119  240 1    
   237  120  121 1    
   238  120  124 1    
   239  120  241 1    
   240  121  122 am   BACKBONE|DICT|INTERRES
   241  121  123 2    
   242  122  242 1    
   243  122  243 1    
   244  124  125 1    
   245  124  244 1    
   246  124  245 1    
   247  125  126 1    
   248  126  246 1    
   249  126  247 1    
@<TRIPOS>SUBSTRUCTURE
     1 UNK         1 GROUP             0       ****    0 ROOT    
