@<TRIPOS>MOLECULE
3R540
247   249    1
SMALL
USER_CHARGES


@<TRIPOS>ATOM
      1 CA         -7.1711  -16.5742  -47.8916 C.3       0 UNK        -0.1800 
      2 C          -6.1492  -15.7385  -47.1330 C.2       0 UNK         0.5000 
      3 O          -6.5269  -14.8985  -46.3152 O.2       0 UNK        -0.5000 
      4 N          -4.8602  -15.9579  -47.4141 N.am      1 UNK        -0.5000 
      5 CA         -3.7195  -15.3106  -46.7571 C.3       1 UNK         0.1400 
      6 C6         -2.3896  -15.6328  -47.4847 C.3       23 UNK        -0.0398 
      7 S7         -2.3579  -14.9405  -49.1731 S.3       23 UNK        -0.2404 
      8 C8         -0.5713  -14.7901  -49.4827 C.3       23 UNK        -0.0205 
      9 C9          0.0415  -16.1050  -49.9392 C.ar      23 UNK        -0.0193 
     10 C10         0.0486  -16.4310  -51.2976 C.ar      23 UNK        -0.1150 
     11 C11         0.6356  -17.6174  -51.7438 C.ar      23 UNK        -0.0193 
     12 C12         1.2164  -18.4836  -50.8121 C.ar      23 UNK        -0.1150 
     13 C13         1.2183  -18.1724  -49.4473 C.ar      23 UNK        -0.0193 
     14 C14         0.6257  -16.9799  -49.0180 C.ar      23 UNK        -0.1150 
     15 C15         1.9169  -19.0768  -48.4373 C.3       23 UNK        -0.0205 
     16 S16         1.6069  -20.8566  -48.6860 S.3       23 UNK        -0.2404 
     17 C17        -0.0733  -21.0691  -48.0078 C.3       23 UNK        -0.0398 
     18 CA         -0.2513  -22.4805  -47.4007 C.3       11 UNK         0.1400 
     19 N           0.6329  -22.7145  -46.2496 N.am      11 UNK        -0.5000 
     20 C           0.8465  -23.9046  -45.6672 C.2       10 UNK         0.5000 
     21 O           0.3008  -24.9486  -46.0274 O.2       10 UNK        -0.5000 
     22 CA          1.7778  -23.9149  -44.4448 C.3       10 UNK         0.1400 
     23 CB          3.2524  -23.8589  -44.8739 C.3       10 UNK        -0.1800 
     24 N           1.4752  -22.7899  -43.5598 N.am      10 UNK        -0.5000 
     25 C           0.5417  -22.8163  -42.5977 C.2       9 UNK         0.5000 
     26 O          -0.0929  -23.8264  -42.2943 O.2       9 UNK        -0.5000 
     27 CA          0.2512  -21.4975  -41.8517 C.3       9 UNK         0.1400 
     28 CB          1.0626  -21.4274  -40.5497 C.3       9 UNK        -0.1800 
     29 N           0.5263  -20.3028  -42.6511 N.am      9 UNK        -0.5000 
     30 C          -0.1764  -19.9327  -43.7326 C.2       8 UNK         0.5000 
     31 O          -1.1649  -20.5384  -44.1418 O.2       8 UNK        -0.5000 
     32 CA          0.3468  -18.7228  -44.5329 C.3       8 UNK         0.1400 
     33 CB         -0.3522  -17.4349  -44.0838 C.3       8 UNK        -0.1800 
     34 N           1.7993  -18.5472  -44.4566 N.am      8 UNK        -0.5000 
     35 C           2.7034  -19.4778  -44.8046 C.2       7 UNK         0.5000 
     36 O           2.3930  -20.5661  -45.2887 O.2       7 UNK        -0.5000 
     37 CA          4.1909  -19.1789  -44.5344 C.3       7 UNK         0.1400 
     38 CB          4.8900  -18.7671  -45.8384 C.3       7 UNK        -0.1800 
     39 N           4.4189  -18.1432  -43.5252 N.am      7 UNK        -0.5000 
     40 C           4.0066  -18.1757  -42.2485 C.2       6 UNK         0.5000 
     41 O           3.4341  -19.1400  -41.7396 O.2       6 UNK        -0.5000 
     42 CA          4.2139  -16.8873  -41.4242 C.3       6 UNK         0.1400 
     43 CB          5.4643  -17.0105  -40.5408 C.3       6 UNK        -0.1800 
     44 N           4.3213  -15.6725  -42.2439 N.am      6 UNK        -0.5000 
     45 C           3.3577  -15.2021  -43.0478 C.2       5 UNK         0.5000 
     46 O           2.2540  -15.7365  -43.1804 O.2       5 UNK        -0.5000 
     47 CA          3.7174  -13.9846  -43.9064 C.3       5 UNK         0.1400 
     48 CB          4.5357  -14.4371  -45.1341 C.3       5 UNK        -0.1800 
     49 N           2.4805  -13.3336  -44.3258 N.am      5 UNK        -0.5000 
     50 C           2.3829  -12.1497  -44.9399 C.2       4 UNK         0.5000 
     51 O           3.3471  -11.4330  -45.2117 O.2       4 UNK        -0.5000 
     52 CA          0.9637  -11.6830  -45.3130 C.3       4 UNK         0.1400 
     53 CB          0.4966  -12.3730  -46.6041 C.3       4 UNK        -0.1800 
     54 N          -0.0345  -11.9132  -44.2671 N.am      4 UNK        -0.5000 
     55 C          -0.0305  -11.3573  -43.0472 C.2       3 UNK         0.5000 
     56 O           0.8665  -10.6208  -42.6352 O.2       3 UNK        -0.5000 
     57 CA         -1.2491  -11.6348  -42.1429 C.3       3 UNK         0.1400 
     58 CB         -2.0854  -10.3569  -41.9654 C.3       3 UNK        -0.1800 
     59 N          -2.1292  -12.6980  -42.6406 N.am      3 UNK        -0.5000 
     60 C          -1.9096  -14.0069  -42.4559 C.2       2 UNK         0.5000 
     61 O          -0.9049  -14.4617  -41.9112 O.2       2 UNK        -0.5000 
     62 CA         -2.9859  -14.9602  -42.9895 C.3       2 UNK         0.1400 
     63 CB         -4.3169  -14.7994  -42.2310 C.3       2 UNK        -0.1800 
     64 N          -3.1805  -14.7583  -44.4261 N.am      2 UNK        -0.5000 
     65 C          -3.6316  -15.6995  -45.2640 C.2       1 UNK         0.5000 
     66 O          -3.9433  -16.8363  -44.9041 O.2       1 UNK        -0.5000 
     67 C          -1.7359  -22.7822  -47.1005 C.2       11 UNK         0.5000 
     68 O          -2.4978  -23.0308  -48.0359 O.2       11 UNK        -0.5000 
     69 N          -2.1138  -22.8301  -45.8140 N.am      12 UNK        -0.5000 
     70 CA         -3.4065  -23.2875  -45.2956 C.3       12 UNK         0.1400 
     71 CB         -3.3877  -23.2112  -43.7625 C.3       12 UNK        -0.1800 
     72 C          -3.8183  -24.7029  -45.7542 C.2       12 UNK         0.5000 
     73 O          -5.0143  -24.9914  -45.7939 O.2       12 UNK        -0.5000 
     74 N          -2.8476  -25.5391  -46.1555 N.am      13 UNK        -0.5000 
     75 CA         -3.0725  -26.8312  -46.8129 C.3       13 UNK         0.1400 
     76 CB         -1.7247  -27.5492  -46.9744 C.3       13 UNK        -0.1800 
     77 C          -3.7873  -26.7145  -48.1786 C.2       13 UNK         0.5000 
     78 O          -4.4683  -27.6556  -48.5863 O.2       13 UNK        -0.5000 
     79 N          -3.6483  -25.5563  -48.8377 N.am      14 UNK        -0.5000 
     80 CA         -4.3466  -25.1657  -50.0632 C.3       14 UNK         0.1400 
     81 CB         -3.2991  -24.7029  -51.0916 C.3       14 UNK        -0.1800 
     82 C          -5.3872  -24.0637  -49.7650 C.2       14 UNK         0.5000 
     83 O          -5.6796  -23.2407  -50.6336 O.2       14 UNK        -0.5000 
     84 N          -5.8920  -24.0322  -48.5199 N.am      15 UNK        -0.5000 
     85 CA         -6.8374  -23.0638  -47.9450 C.3       15 UNK         0.1400 
     86 CB         -8.1933  -23.1220  -48.6788 C.3       15 UNK        -0.1800 
     87 C          -6.2914  -21.6216  -47.8504 C.2       15 UNK         0.5000 
     88 O          -7.0628  -20.6996  -47.5838 O.2       15 UNK        -0.5000 
     89 N          -4.9801  -21.4505  -48.0809 N.am      16 UNK        -0.5000 
     90 CA         -4.2347  -20.1926  -48.1755 C.3       16 UNK         0.1400 
     91 CB         -4.1679  -19.4873  -46.8092 C.3       16 UNK        -0.1800 
     92 C          -4.7109  -19.2668  -49.3138 C.2       16 UNK         0.5000 
     93 O          -4.4061  -18.0738  -49.2943 O.2       16 UNK        -0.5000 
     94 N          -5.4298  -19.8282  -50.2955 N.am      17 UNK        -0.5000 
     95 CA         -5.8560  -19.1449  -51.5093 C.3       17 UNK         0.1400 
     96 CB         -7.0103  -19.9305  -52.1501 C.3       17 UNK        -0.1800 
     97 C          -4.6584  -19.0498  -52.4609 C.2       17 UNK         0.5000 
     98 O          -4.0992  -20.0866  -52.8235 O.2       17 UNK        -0.5000 
     99 N          -4.2750  -17.8236  -52.8369 N.am      18 UNK        -0.5000 
    100 CA        -3.0518  -17.5318  -53.5892 C.3       18 UNK         0.1400 
    101 CB        -2.9034  -16.0127  -53.7560 C.3       18 UNK        -0.1800 
    102 C         -2.9564  -18.2453  -54.9516 C.2       18 UNK         0.5000 
    103 O         -1.8741  -18.6899  -55.3335 O.2       18 UNK        -0.5000 
    104 N         -4.1010  -18.3854  -55.6326 N.am      19 UNK        -0.5000 
    105 CA        -4.2281  -19.0889  -56.9100 C.3       19 UNK         0.1400 
    106 CB        -5.6142  -18.7928  -57.5030 C.3       19 UNK        -0.1800 
    107 C         -4.0011  -20.6110  -56.8069 C.2       19 UNK         0.5000 
    108 O         -3.6322  -21.2293  -57.8060 O.2       19 UNK        -0.5000 
    109 N         -4.2276  -21.1857  -55.6180 N.am      20 UNK        -0.5000 
    110 CA        -4.0118  -22.6007  -55.3303 C.3       20 UNK         0.1400 
    111 CB        -5.1086  -23.1021  -54.3763 C.3       20 UNK        -0.1800 
    112 C         -2.6151  -22.8197  -54.7306 C.2       20 UNK         0.5000 
    113 O         -1.8636  -23.6581  -55.2292 O.2       20 UNK        -0.5000 
    114 N         -2.2852  -22.0467  -53.6865 N.am      21 UNK        -0.5000 
    115 CA        -1.0581  -22.1653  -52.8972 C.3       21 UNK         0.1400 
    116 CB        -1.1618  -21.2449  -51.6719 C.3       21 UNK        -0.1800 
    117 C          0.2370  -21.8879  -53.6837 C.2       21 UNK         0.5000 
    118 O          1.2647  -22.4939  -53.3783 O.2       21 UNK        -0.5000 
    119 N          0.1589  -21.0035  -54.6842 N.am      22 UNK        -0.5000 
    120 CA         1.2577  -20.6552  -55.6002 C.3       22 UNK         0.1400 
    121 C          0.9936  -21.1602  -57.0502 C.2       22 UNK         0.5000 
    122 N          0.0431  -22.0600  -57.2803 N.am      22 UNK        -0.7600 
    123 O          1.6729  -20.7488  -57.9869 O.2       22 UNK        -0.5000 
    124 C124        1.5916  -19.1376  -55.5545 C.3       23 UNK        -0.0398 
    125 S125        2.1575  -18.5727  -53.9098 S.3       23 UNK        -0.2404 
    126 C126        0.5815  -17.9754  -53.2231 C.3       23 UNK        -0.0205 
    127 H127       -8.1013  -16.0203  -48.0177 H         1 UNK         0.0600 
    128 H128       -7.3881  -17.4911  -47.3432 H         1 UNK         0.0600 
    129 H129       -6.8060  -16.8449  -48.8824 H         1 UNK         0.0600 
    130 H130       -4.6219  -16.6684  -48.1034 H         1 UNK         0.3000 
    131 H131       -3.8866  -14.2325  -46.8090 H         1 UNK         0.0600 
    132 H132       -2.2267  -16.7101  -47.5462 H         1 UNK         0.0800 
    133 H133       -1.5439  -15.2244  -46.9290 H         1 UNK         0.0800 
    134 H134       -0.0603  -14.4197  -48.5949 H         1 UNK         0.0800 
    135 H135       -0.4170  -14.0317  -50.2517 H         1 UNK         0.0800 
    136 H136       -0.4087  -15.7565  -52.0075 H         1 UNK         0.1150 
    137 H137        1.6736  -19.4014  -51.1537 H         1 UNK         0.1150 
    138 H138        0.6349  -16.7209  -47.9686 H         1 UNK         0.1150 
    139 H139        2.9906  -18.9035  -48.5157 H         1 UNK         0.0800 
    140 H140        1.6383  -18.8028  -47.4213 H         1 UNK         0.0800 
    141 H141       -0.7822  -20.8971  -48.8179 H         1 UNK         0.0800 
    142 H142       -0.2772  -20.3047  -47.2602 H         1 UNK         0.0800 
    143 H143        0.0385  -23.2025  -48.1675 H         1 UNK         0.0600 
    144 H144        1.1645  -21.9130  -45.9210 H         1 UNK         0.3000 
    145 H145        1.6229  -24.8538  -43.9088 H         1 UNK         0.0600 
    146 H146        3.9147  -23.8764  -44.0083 H         1 UNK         0.0600 
    147 H147        3.5071  -24.7180  -45.4957 H         1 UNK         0.0600 
    148 H148        3.4792  -22.9619  -45.4504 H         1 UNK         0.0600 
    149 H149        1.9153  -21.9079  -43.7916 H         1 UNK         0.3000 
    150 H150       -0.8100  -21.4932  -41.5934 H         1 UNK         0.0600 
    151 H151        0.8456  -22.2818  -39.9073 H         1 UNK         0.0600 
    152 H152        0.8250  -20.5265  -39.9838 H         1 UNK         0.0600 
    153 H153        2.1358  -21.4274  -40.7449 H         1 UNK         0.0600 
    154 H154        1.3468  -19.7670  -42.3947 H         1 UNK         0.3000 
    155 H155        0.0901  -18.8868  -45.5783 H         1 UNK         0.0600 
    156 H156       -0.1158  -17.1866  -43.0483 H         1 UNK         0.0600 
    157 H157       -1.4336  -17.5446  -44.1576 H         1 UNK         0.0600 
    158 H158       -0.0664  -16.5873  -44.7069 H         1 UNK         0.0600 
    159 H159        2.1214  -17.6760  -44.0498 H         1 UNK         0.3000 
    160 H160        4.6468  -20.1026  -44.1726 H         1 UNK         0.0600 
    161 H161        4.4835  -17.8363  -46.2364 H         1 UNK         0.0600 
    162 H162        4.7678  -19.5332  -46.6057 H         1 UNK         0.0600 
    163 H163        5.9608  -18.6299  -45.6871 H         1 UNK         0.0600 
    164 H164        4.8824  -17.3059  -43.8437 H         1 UNK         0.3000 
    165 H165        3.3434  -16.7751  -40.7745 H         1 UNK         0.0600 
    166 H166        5.5750  -16.1431  -39.8898 H         1 UNK         0.0600 
    167 H167        5.4041  -17.8906  -39.8990 H         1 UNK         0.0600 
    168 H168        6.3722  -17.1015  -41.1385 H         1 UNK         0.0600 
    169 H169        5.2039  -15.1829  -42.2010 H         1 UNK         0.3000 
    170 H170        4.3002  -13.2859  -43.3030 H         1 UNK         0.0600 
    171 H171        5.4417  -14.9643  -44.8332 H         1 UNK         0.0600 
    172 H172        3.9606  -15.1097  -45.7720 H         1 UNK         0.0600 
    173 H173        4.8519  -13.5907  -45.7432 H         1 UNK         0.0600 
    174 H174        1.6436  -13.8575  -44.0998 H         1 UNK         0.3000 
    175 H175        1.0078  -10.6076  -45.4976 H         1 UNK         0.0600 
    176 H176        0.3942  -13.4496  -46.4642 H         1 UNK         0.0600 
    177 H177       -0.4653  -11.9833  -46.9380 H         1 UNK         0.0600 
    178 H178        1.2096  -12.2129  -47.4140 H         1 UNK         0.0600 
    179 H179       -0.8153  -12.5005  -44.5098 H         1 UNK         0.3000 
    180 H180       -0.8641  -11.9236  -41.1624 H         1 UNK         0.0600 
    181 H181       -2.9147  -10.5206  -41.2769 H         1 UNK         0.0600 
    182 H182       -2.4983  -10.0107  -42.9137 H         1 UNK         0.0600 
    183 H183       -1.4820   -9.5461  -41.5550 H         1 UNK         0.0600 
    184 H184       -2.9941  -12.3975  -43.0661 H         1 UNK         0.3000 
    185 H185       -2.6215  -15.9744  -42.8154 H         1 UNK         0.0600 
    186 H186       -5.0320  -15.5678  -42.5254 H         1 UNK         0.0600 
    187 H187       -4.1678  -14.8926  -41.1546 H         1 UNK         0.0600 
    188 H188       -4.7776  -13.8291  -42.4184 H         1 UNK         0.0600 
    189 H189       -2.9311  -13.8509  -44.7904 H         1 UNK         0.3000 
    190 H190       -1.4456  -22.5230  -45.1189 H         1 UNK         0.3000 
    191 H191       -4.1676  -22.5961  -45.6584 H         1 UNK         0.0600 
    192 H192       -4.3475  -23.5154  -43.3430 H         1 UNK         0.0600 
    193 H193       -3.1932  -22.1956  -43.4181 H         1 UNK         0.0600 
    194 H194       -2.6232  -23.8631  -43.3391 H         1 UNK         0.0600 
    195 H195       -1.8832  -25.2355  -46.0825 H         1 UNK         0.3000 
    196 H196       -3.7070  -27.4333  -46.1594 H         1 UNK         0.0600 
    197 H197       -1.0423  -26.9825  -47.6094 H         1 UNK         0.0600 
    198 H198       -1.2381  -27.6973  -46.0101 H         1 UNK         0.0600 
    199 H199       -1.8561  -28.5328  -47.4272 H         1 UNK         0.0600 
    200 H200       -3.0874  -24.8209  -48.4170 H         1 UNK         0.3000 
    201 H201       -4.8896  -26.0137  -50.4843 H         1 UNK         0.0600 
    202 H202       -2.7581  -23.8244  -50.7403 H         1 UNK         0.0600 
    203 H203       -3.7639  -24.4450  -52.0429 H         1 UNK         0.0600 
    204 H204       -2.5692  -25.4872  -51.2915 H         1 UNK         0.0600 
    205 H205       -5.5624  -24.7300  -47.8635 H         1 UNK         0.3000 
    206 H206       -7.0075  -23.3855  -46.9168 H         1 UNK         0.0600 
    207 H207       -8.5670  -24.1442  -48.7375 H         1 UNK         0.0600 
    208 H208       -8.9473  -22.5328  -48.1557 H         1 UNK         0.0600 
    209 H209       -8.1233  -22.7304  -49.6941 H         1 UNK         0.0600 
    210 H210       -4.4265  -22.2757  -48.2799 H         1 UNK         0.3000 
    211 H211       -3.2159  -20.4686  -48.4455 H         1 UNK         0.0600 
    212 H212       -3.4668  -18.6543  -46.8390 H         1 UNK         0.0600 
    213 H213       -3.8217  -20.1629  -46.0273 H         1 UNK         0.0600 
    214 H214       -5.1372  -19.0894  -46.5078 H         1 UNK         0.0600 
    215 H215       -5.5863  -20.8274  -50.2672 H         1 UNK         0.3000 
    216 H216       -6.2116  -18.1436  -51.2571 H         1 UNK         0.0600 
    217 H217       -6.7173  -20.9521  -52.3964 H         1 UNK         0.0600 
    218 H218       -7.3453  -19.4523  -53.0713 H         1 UNK         0.0600 
    219 H219       -7.8678  -19.9842  -51.4791 H         1 UNK         0.0600 
    220 H220       -4.7842  -17.0254  -52.4860 H         1 UNK         0.3000 
    221 H221       -2.2250  -17.8850  -52.9740 H         1 UNK         0.0600 
    222 H222       -2.8614  -15.5123  -52.7881 H         1 UNK         0.0600 
    223 H223       -3.7341  -15.5866  -54.3196 H         1 UNK         0.0600 
    224 H224       -1.9838  -15.7656  -54.2882 H         1 UNK         0.0600 
    225 H225       -4.9460  -18.0007  -55.2367 H         1 UNK         0.3000 
    226 H226       -3.4724  -18.6914  -57.5908 H         1 UNK         0.0600 
    227 H227       -6.4142  -19.1513  -56.8539 H         1 UNK         0.0600 
    228 H228       -5.7582  -17.7231  -57.6562 H         1 UNK         0.0600 
    229 H229       -5.7363  -19.2776  -58.4726 H         1 UNK         0.0600 
    230 H230       -4.4636  -20.5985  -54.8276 H         1 UNK         0.3000 
    231 H231       -4.0816  -23.1852  -56.2502 H         1 UNK         0.0600 
    232 H232       -5.0818  -22.5898  -53.4138 H         1 UNK         0.0600 
    233 H233       -4.9965  -24.1692  -54.1823 H         1 UNK         0.0600 
    234 H234       -6.1000  -22.9533  -54.8042 H         1 UNK         0.0600 
    235 H235       -2.9637  -21.3629  -53.3547 H         1 UNK         0.3000 
    236 H236       -0.9979  -23.1951  -52.5397 H         1 UNK         0.0600 
    237 H237       -1.9769  -21.5494  -51.0154 H         1 UNK         0.0600 
    238 H238       -0.2411  -21.2735  -51.0897 H         1 UNK         0.0600 
    239 H239       -1.3395  -20.2083  -51.9566 H         1 UNK         0.0600 
    240 H240       -0.7247  -20.5447  -54.8707 H         1 UNK         0.3000 
    241 H241        2.1632  -21.1828  -55.2966 H         1 UNK         0.0600 
    242 H242       -0.1165  -22.3789  -58.2228 H         1 UNK         0.3800 
    243 H243       -0.4960  -22.4544  -56.5212 H         1 UNK         0.3800 
    244 H244        0.7353  -18.5440  -55.8771 H         1 UNK         0.0800 
    245 H245        2.3946  -18.9062  -56.2561 H         1 UNK         0.0800 
    246 H246       -0.1640  -18.7560  -53.3417 H         1 UNK         0.0800 
    247 H247        0.2433  -17.1250  -53.8170 H         1 UNK         0.0800 
@<TRIPOS>BOND
     1    1    2 1    
     2    1  127 1    
     3    1  128 1    
     4    1  129 1    
     5    2    3 2    
     6    2    4 am   BACKBONE|DICT|INTERRES
     7    4    5 1    
     8    4  130 1    
     9    5    6 1    
    10    5   65 1    
    11    5  131 1    
    12    6    7 1    
    13    6  132 1    
    14    6  133 1    
    15    7    8 1    
    16    8    9 1    
    17    8  134 1    
    18    8  135 1    
    19    9   10 ar   
    20    9   14 ar   
    21   10   11 ar   
    22   10  136 1    
    23   11   12 ar   
    24   11  126 1    
    25   12   13 ar   
    26   12  137 1    
    27   13   14 ar   
    28   13   15 1    
    29   14  138 1    
    30   15   16 1    
    31   15  139 1    
    32   15  140 1    
    33   16   17 1    
    34   17   18 1    
    35   17  141 1    
    36   17  142 1    
    37   18   19 1    
    38   18   67 1    
    39   18  143 1    
    40   19   20 am   BACKBONE|DICT|INTERRES
    41   19  144 1    
    42   20   21 2    
    43   20   22 1    
    44   22   23 1    
    45   22   24 1    
    46   22  145 1    
    47   23  146 1    
    48   23  147 1    
    49   23  148 1    
    50   24   25 am   BACKBONE|DICT|INTERRES
    51   24  149 1    
    52   25   26 2    
    53   25   27 1    
    54   27   28 1    
    55   27   29 1    
    56   27  150 1    
    57   28  151 1    
    58   28  152 1    
    59   28  153 1    
    60   29   30 am   BACKBONE|DICT|INTERRES
    61   29  154 1    
    62   30   31 2    
    63   30   32 1    
    64   32   33 1    
    65   32   34 1    
    66   32  155 1    
    67   33  156 1    
    68   33  157 1    
    69   33  158 1    
    70   34   35 am   BACKBONE|DICT|INTERRES
    71   34  159 1    
    72   35   36 2    
    73   35   37 1    
    74   37   38 1    
    75   37   39 1    
    76   37  160 1    
    77   38  161 1    
    78   38  162 1    
    79   38  163 1    
    80   39   40 am   BACKBONE|DICT|INTERRES
    81   39  164 1    
    82   40   41 2    
    83   40   42 1    
    84   42   43 1    
    85   42   44 1    
    86   42  165 1    
    87   43  166 1    
    88   43  167 1    
    89   43  168 1    
    90   44   45 am   BACKBONE|DICT|INTERRES
    91   44  169 1    
    92   45   46 2    
    93   45   47 1    
    94   47   48 1    
    95   47   49 1    
    96   47  170 1    
    97   48  171 1    
    98   48  172 1    
    99   48  173 1    
   100   49   50 am   BACKBONE|DICT|INTERRES
   101   49  174 1    
   102   50   51 2    
   103   50   52 1    
   104   52   53 1    
   105   52   54 1    
   106   52  175 1    
   107   53  176 1    
   108   53  177 1    
   109   53  178 1    
   110   54   55 am   BACKBONE|DICT|INTERRES
   111   54  179 1    
   112   55   56 2    
   113   55   57 1    
   114   57   58 1    
   115   57   59 1    
   116   57  180 1    
   117   58  181 1    
   118   58  182 1    
   119   58  183 1    
   120   59   60 am   BACKBONE|DICT|INTERRES
   121   59  184 1    
   122   60   61 2    
   123   60   62 1    
   124   62   63 1    
   125   62   64 1    
   126   62  185 1    
   127   63  186 1    
   128   63  187 1    
   129   63  188 1    
   130   64   65 am   BACKBONE|DICT|INTERRES
   131   64  189 1    
   132   65   66 2    
   133   67   68 2    
   134   67   69 am   BACKBONE|DICT|INTERRES
   135   69   70 1    
   136   69  190 1    
   137   70   71 1    
   138   70   72 1    
   139   70  191 1    
   140   71  192 1    
   141   71  193 1    
   142   71  194 1    
   143   72   73 2    
   144   72   74 am   BACKBONE|DICT|INTERRES
   145   74   75 1    
   146   74  195 1    
   147   75   76 1    
   148   75   77 1    
   149   75  196 1    
   150   76  197 1    
   151   76  198 1    
   152   76  199 1    
   153   77   78 2    
   154   77   79 am   BACKBONE|DICT|INTERRES
   155   79   80 1    
   156   79  200 1    
   157   80   81 1    
   158   80   82 1    
   159   80  201 1    
   160   81  202 1    
   161   81  203 1    
   162   81  204 1    
   163   82   83 2    
   164   82   84 am   BACKBONE|DICT|INTERRES
   165   84   85 1    
   166   84  205 1    
   167   85   86 1    
   168   85   87 1    
   169   85  206 1    
   170   86  207 1    
   171   86  208 1    
   172   86  209 1    
   173   87   88 2    
   174   87   89 am   BACKBONE|DICT|INTERRES
   175   89   90 1    
   176   89  210 1    
   177   90   91 1    
   178   90   92 1    
   179   90  211 1    
   180   91  212 1    
   181   91  213 1    
   182   91  214 1    
   183   92   93 2    
   184   92   94 am   BACKBONE|DICT|INTERRES
   185   94   95 1    
   186   94  215 1    
   187   95   96 1    
   188   95   97 1    
   189   95  216 1    
   190   96  217 1    
   191   96  218 1    
   192   96  219 1    
   193   97   98 2    
   194   97   99 am   BACKBONE|DICT|INTERRES
   195   99  100 1    
   196   99  220 1    
   197  100  101 1    
   198  100  102 1    
   199  100  221 1    
   200  101  222 1    
   201  101  223 1    
   202  101  224 1    
   203  102  103 2    
   204  102  104 am   BACKBONE|DICT|INTERRES
   205  104  105 1    
   206  104  225 1    
   207  105  106 1    
   208  105  107 1    
   209  105  226 1    
   210  106  227 1    
   211  106  228 1    
   212  106  229 1    
   213  107  108 2    
   214  107  109 am   BACKBONE|DICT|INTERRES
   215  109  110 1    
   216  109  230 1    
   217  110  111 1    
   218  110  112 1    
   219  110  231 1    
   220  111  232 1    
   221  111  233 1    
   222  111  234 1    
   223  112  113 2    
   224  112  114 am   BACKBONE|DICT|INTERRES
   225  114  115 1    
   226  114  235 1    
   227  115  116 1    
   228  115  117 1    
   229  115  236 1    
   230  116  237 1    
   231  116  238 1    
   232  116  239 1    
   233  117  118 2    
   234  117  119 am   BACKBONE|DICT|INTERRES
   235  119  120 1    
   236  119  240 1    
   237  120  121 1    
   238  120  124 1    
   239  120  241 1    
   240  121  122 am   BACKBONE|DICT|INTERRES
   241  121  123 2    
   242  122  242 1    
   243  122  243 1    
   244  124  125 1    
   245  124  244 1    
   246  124  245 1    
   247  125  126 1    
   248  126  246 1    
   249  126  247 1    
@<TRIPOS>SUBSTRUCTURE
     1 UNK         1 GROUP             0       ****    0 ROOT    
