@<TRIPOS>MOLECULE
3R540
247   249    1
SMALL
USER_CHARGES


@<TRIPOS>ATOM
      1 CA          0.4035  -11.5088  -48.3537 C.3       0 UNK        -0.1800 
      2 C          -0.8297  -11.2121  -49.2061 C.2       0 UNK         0.5000 
      3 O          -1.2361  -10.0551  -49.2923 O.2       0 UNK        -0.5000 
      4 N          -1.4493  -12.1998  -49.8706 N.am      1 UNK        -0.5000 
      5 CA         -1.1354  -13.6338  -49.8371 C.3       1 UNK         0.1400 
      6 C6         -1.8393  -14.3729  -51.0063 C.3       23 UNK        -0.0398 
      7 S7         -1.5754  -16.1766  -51.0614 S.3       23 UNK        -0.2404 
      8 C8          0.0849  -16.2833  -51.7833 C.3       23 UNK        -0.0205 
      9 C9          0.6334  -17.6958  -51.6690 C.ar      23 UNK        -0.0193 
     10 C10         0.4086  -18.6227  -52.6900 C.ar      23 UNK        -0.1150 
     11 C11         0.9535  -19.9073  -52.6117 C.ar      23 UNK        -0.0193 
     12 C12         1.7109  -20.2653  -51.4948 C.ar      23 UNK        -0.1150 
     13 C13         1.9079  -19.3625  -50.4453 C.ar      23 UNK        -0.0193 
     14 C14         1.3721  -18.0747  -50.5433 C.ar      23 UNK        -0.1150 
     15 C15         2.7017  -19.7729  -49.2092 C.3       23 UNK        -0.0205 
     16 S16         2.1574  -21.3682  -48.5125 S.3       23 UNK        -0.2404 
     17 C17         0.4153  -20.9959  -48.1296 C.3       23 UNK        -0.0398 
     18 CA         -0.2195  -22.0666  -47.2176 C.3       11 UNK         0.1400 
     19 N           0.3782  -22.0966  -45.8791 N.am      11 UNK        -0.5000 
     20 C           0.1749  -23.0772  -44.9893 C.2       10 UNK         0.5000 
     21 O          -0.5207  -24.0668  -45.2158 O.2       10 UNK        -0.5000 
     22 CA          0.8068  -22.9014  -43.5978 C.3       10 UNK         0.1400 
     23 CB          2.3029  -23.2468  -43.6268 C.3       10 UNK        -0.1800 
     24 N           0.6121  -21.5539  -43.0604 N.am      10 UNK        -0.5000 
     25 C          -0.5839  -21.0248  -42.7632 C.2       9 UNK         0.5000 
     26 O          -1.6446  -21.6396  -42.8706 O.2       9 UNK        -0.5000 
     27 CA         -0.6113  -19.5506  -42.3194 C.3       9 UNK         0.1400 
     28 CB         -0.2342  -19.4144  -40.8371 C.3       9 UNK        -0.1800 
     29 N           0.2617  -18.7012  -43.1273 N.am      9 UNK        -0.5000 
     30 C           0.1224  -18.4903  -44.4434 C.2       8 UNK         0.5000 
     31 O          -0.7887  -18.9613  -45.1221 O.2       8 UNK        -0.5000 
     32 CA          1.2244  -17.6652  -45.1287 C.3       8 UNK         0.1400 
     33 CB          1.0024  -16.1614  -44.9167 C.3       8 UNK        -0.1800 
     34 N           2.5599  -18.0378  -44.6619 N.am      8 UNK        -0.5000 
     35 C           3.1211  -19.2376  -44.8664 C.2       7 UNK         0.5000 
     36 O           2.5743  -20.1510  -45.4816 O.2       7 UNK        -0.5000 
     37 CA          4.5037  -19.4676  -44.2329 C.3       7 UNK         0.1400 
     38 CB          5.6034  -18.7791  -45.0553 C.3       7 UNK        -0.1800 
     39 N           4.5616  -19.0017  -42.8467 N.am      7 UNK        -0.5000 
     40 C           3.8685  -19.5514  -41.8394 C.2       6 UNK         0.5000 
     41 O           3.1331  -20.5291  -41.9681 O.2       6 UNK        -0.5000 
     42 CA          3.9827  -18.8695  -40.4640 C.3       6 UNK         0.1400 
     43 CB          5.2140  -19.3874  -39.7056 C.3       6 UNK        -0.1800 
     44 N           4.0290  -17.4052  -40.5253 N.am      6 UNK        -0.5000 
     45 C           3.0716  -16.6313  -41.0529 C.2       5 UNK         0.5000 
     46 O           2.0832  -17.0697  -41.6443 O.2       5 UNK        -0.5000 
     47 CA          3.2738  -15.1099  -40.9336 C.3       5 UNK         0.1400 
     48 CB          3.9707  -14.5698  -42.1922 C.3       5 UNK        -0.1800 
     49 N           2.0087  -14.3970  -40.7558 N.am      5 UNK        -0.5000 
     50 C           1.1625  -14.5481  -39.7260 C.2       4 UNK         0.5000 
     51 O           1.3996  -15.2595  -38.7484 O.2       4 UNK        -0.5000 
     52 CA         -0.1629  -13.7571  -39.7761 C.3       4 UNK         0.1400 
     53 CB         -0.1855  -12.6720  -38.6870 C.3       4 UNK        -0.1800 
     54 N          -0.4206  -13.1219  -41.0723 N.am      4 UNK        -0.5000 
     55 C          -0.8584  -13.7608  -42.1637 C.2       3 UNK         0.5000 
     56 O          -1.1288  -14.9641  -42.1972 O.2       3 UNK        -0.5000 
     57 CA         -0.9885  -12.9092  -43.4343 C.3       3 UNK         0.1400 
     58 CB          0.3984  -12.4872  -43.9636 C.3       3 UNK        -0.1800 
     59 N          -1.7026  -13.6820  -44.4446 N.am      3 UNK        -0.5000 
     60 C          -2.2609  -13.1867  -45.5508 C.2       2 UNK         0.5000 
     61 O          -2.2626  -11.9879  -45.8413 O.2       2 UNK        -0.5000 
     62 CA         -2.9446  -14.1943  -46.4903 C.3       2 UNK         0.1400 
     63 CB         -4.4715  -14.1442  -46.3300 C.3       2 UNK        -0.1800 
     64 N          -2.5953  -13.8856  -47.8749 N.am      2 UNK        -0.5000 
     65 C          -1.4409  -14.2453  -48.4508 C.2       1 UNK         0.5000 
     66 O          -0.6074  -14.9744  -47.9124 O.2       1 UNK        -0.5000 
     67 C          -1.7537  -21.9099  -47.1756 C.2       11 UNK         0.5000 
     68 O          -2.4326  -22.4553  -48.0464 O.2       11 UNK        -0.5000 
     69 N          -2.2826  -21.1884  -46.1777 N.am      12 UNK        -0.5000 
     70 CA         -3.7173  -21.0630  -45.9209 C.3       12 UNK         0.1400 
     71 CB         -3.9812  -19.8904  -44.9657 C.3       12 UNK        -0.1800 
     72 C          -4.3236  -22.3697  -45.3838 C.2       12 UNK         0.5000 
     73 O          -5.3871  -22.7727  -45.8527 O.2       12 UNK        -0.5000 
     74 N          -3.6207  -23.0365  -44.4566 N.am      13 UNK        -0.5000 
     75 CA         -3.9930  -24.3442  -43.9072 C.3       13 UNK         0.1400 
     76 CB         -3.0687  -24.6910  -42.7304 C.3       13 UNK        -0.1800 
     77 C          -3.9775  -25.4644  -44.9657 C.2       13 UNK         0.5000 
     78 O          -4.8583  -26.3247  -44.9564 O.2       13 UNK        -0.5000 
     79 N          -3.0052  -25.4044  -45.8858 N.am      14 UNK        -0.5000 
     80 CA         -2.8981  -26.2734  -47.0606 C.3       14 UNK         0.1400 
     81 CB         -1.4665  -26.1758  -47.6118 C.3       14 UNK        -0.1800 
     82 C          -3.9174  -25.9394  -48.1714 C.2       14 UNK         0.5000 
     83 O          -4.0491  -26.7177  -49.1160 O.2       14 UNK        -0.5000 
     84 N          -4.5877  -24.7827  -48.0566 N.am      15 UNK        -0.5000 
     85 CA         -5.5533  -24.1832  -48.9846 C.3       15 UNK         0.1400 
     86 CB         -6.7700  -25.1027  -49.2097 C.3       15 UNK        -0.1800 
     87 C          -4.9415  -23.6880  -50.3114 C.2       15 UNK         0.5000 
     88 O          -5.6841  -23.2541  -51.1915 O.2       15 UNK        -0.5000 
     89 N          -3.6078  -23.6983  -50.4245 N.am      16 UNK        -0.5000 
     90 CA         -2.8557  -23.2153  -51.5812 C.3       16 UNK         0.1400 
     91 CB         -1.3909  -23.6553  -51.4472 C.3       16 UNK        -0.1800 
     92 C          -2.9568  -21.6892  -51.7389 C.2       16 UNK         0.5000 
     93 O          -3.1129  -21.2023  -52.8598 O.2       16 UNK        -0.5000 
     94 N          -2.9155  -20.9719  -50.6065 N.am      17 UNK        -0.5000 
     95 CA         -3.1287  -19.5249  -50.5457 C.3       17 UNK         0.1400 
     96 CB         -2.6155  -18.9769  -49.2050 C.3       17 UNK        -0.1800 
     97 C          -4.6069  -19.1471  -50.7446 C.2       17 UNK         0.5000 
     98 O          -4.8930  -18.1168  -51.3524 O.2       17 UNK        -0.5000 
     99 N          -5.5178  -19.9964  -50.2457 N.am      18 UNK        -0.5000 
    100 CA        -6.9676  -19.8187  -50.3528 C.3       18 UNK         0.1400 
    101 CB        -7.6785  -20.7918  -49.3993 C.3       18 UNK        -0.1800 
    102 C         -7.4698  -19.9944  -51.7970 C.2       18 UNK         0.5000 
    103 O         -8.2830  -19.1953  -52.2621 O.2       18 UNK        -0.5000 
    104 N         -6.9477  -21.0164  -52.4886 N.am      19 UNK        -0.5000 
    105 CA        -7.1960  -21.2744  -53.9075 C.3       19 UNK         0.1400 
    106 CB        -6.7974  -22.7253  -54.2210 C.3       19 UNK        -0.1800 
    107 C         -6.4377  -20.3086  -54.8391 C.2       19 UNK         0.5000 
    108 O         -6.8112  -20.1887  -56.0065 O.2       19 UNK        -0.5000 
    109 N         -5.3794  -19.6692  -54.3156 N.am      20 UNK        -0.5000 
    110 CA        -4.4003  -18.8327  -55.0174 C.3       20 UNK         0.1400 
    111 CB        -5.0480  -17.5331  -55.5366 C.3       20 UNK        -0.1800 
    112 C         -3.6616  -19.6315  -56.1110 C.2       20 UNK         0.5000 
    113 O         -3.4971  -19.1582  -57.2376 O.2       20 UNK        -0.5000 
    114 N         -3.2389  -20.8505  -55.7453 N.am      21 UNK        -0.5000 
    115 CA        -2.6648  -21.8711  -56.6290 C.3       21 UNK         0.1400 
    116 CB        -2.4552  -23.1556  -55.8114 C.3       21 UNK        -0.1800 
    117 C         -1.3524  -21.4543  -57.3222 C.2       21 UNK         0.5000 
    118 O         -1.0109  -22.0057  -58.3691 O.2       21 UNK        -0.5000 
    119 N         -0.6543  -20.4868  -56.7225 N.am      22 UNK        -0.5000 
    120 CA         0.5891  -19.8838  -57.2169 C.3       22 UNK         0.1400 
    121 C          0.3544  -18.6925  -58.1930 C.2       22 UNK         0.5000 
    122 N         -0.8770  -18.2663  -58.4556 N.am      22 UNK        -0.7600 
    123 O          1.3117  -18.1478  -58.7359 O.2       22 UNK        -0.5000 
    124 C124        1.5138  -19.4772  -56.0395 C.3       23 UNK        -0.0398 
    125 S125        1.9969  -20.8996  -54.9971 S.3       23 UNK        -0.2404 
    126 C126        0.7050  -20.9265  -53.7103 C.3       23 UNK        -0.0205 
    127 H127        0.1221  -12.0091  -47.4277 H         1 UNK         0.0600 
    128 H128        1.1209  -12.1312  -48.8872 H         1 UNK         0.0600 
    129 H129        0.9114  -10.5819  -48.0868 H         1 UNK         0.0600 
    130 H130       -2.2468  -11.9509  -50.4380 H         1 UNK         0.3000 
    131 H131       -0.0618  -13.7377  -49.9998 H         1 UNK         0.0600 
    132 H132       -2.9168  -14.2078  -50.9563 H         1 UNK         0.0800 
    133 H133       -1.5182  -13.9499  -51.9594 H         1 UNK         0.0800 
    134 H134        0.7561  -15.5891  -51.2764 H         1 UNK         0.0800 
    135 H135        0.0486  -15.9725  -52.8285 H         1 UNK         0.0800 
    136 H136       -0.1893  -18.3391  -53.5438 H         1 UNK         0.1150 
    137 H137        2.1314  -21.2592  -51.4319 H         1 UNK         0.1150 
    138 H138        1.5278  -17.3633  -49.7441 H         1 UNK         0.1150 
    139 H139        2.6315  -19.0116  -48.4304 H         1 UNK         0.0800 
    140 H140        3.7562  -19.8464  -49.4769 H         1 UNK         0.0800 
    141 H141       -0.1151  -20.9400  -49.0819 H         1 UNK         0.0800 
    142 H142        0.3469  -20.0083  -47.6694 H         1 UNK         0.0800 
    143 H143       -0.0281  -23.0393  -47.6756 H         1 UNK         0.0600 
    144 H144        1.0097  -21.3352  -45.6445 H         1 UNK         0.3000 
    145 H145        0.3138  -23.6025  -42.9212 H         1 UNK         0.0600 
    146 H146        2.7319  -23.2198  -42.6251 H         1 UNK         0.0600 
    147 H147        2.4646  -24.2503  -44.0224 H         1 UNK         0.0600 
    148 H148        2.8667  -22.5529  -44.2504 H         1 UNK         0.0600 
    149 H149        1.4502  -21.0033  -42.9008 H         1 UNK         0.3000 
    150 H150       -1.6324  -19.1848  -42.4438 H         1 UNK         0.0600 
    151 H151        0.7846  -19.7526  -40.6484 H         1 UNK         0.0600 
    152 H152       -0.8999  -20.0072  -40.2087 H         1 UNK         0.0600 
    153 H153       -0.3082  -18.3781  -40.5059 H         1 UNK         0.0600 
    154 H154        1.0179  -18.2279  -42.6372 H         1 UNK         0.3000 
    155 H155        1.1735  -17.8671  -46.2009 H         1 UNK         0.0600 
    156 H156        1.0457  -15.8898  -43.8617 H         1 UNK         0.0600 
    157 H157        0.0251  -15.8597  -45.2939 H         1 UNK         0.0600 
    158 H158        1.7492  -15.5723  -45.4490 H         1 UNK         0.0600 
    159 H159        3.0450  -17.3657  -44.0875 H         1 UNK         0.3000 
    160 H160        4.6975  -20.5425  -44.2387 H         1 UNK         0.0600 
    161 H161        5.4870  -17.6947  -45.0613 H         1 UNK         0.0600 
    162 H162        5.5830  -19.1175  -46.0922 H         1 UNK         0.0600 
    163 H163        6.5929  -19.0083  -44.6593 H         1 UNK         0.0600 
    164 H164        5.1395  -18.1974  -42.6532 H         1 UNK         0.3000 
    165 H165        3.0942  -19.1427  -39.8914 H         1 UNK         0.0600 
    166 H166        5.2474  -18.9923  -38.6902 H         1 UNK         0.0600 
    167 H167        6.1425  -19.1093  -40.2058 H         1 UNK         0.0600 
    168 H168        5.1957  -20.4755  -39.6284 H         1 UNK         0.0600 
    169 H169        4.8181  -16.9652  -40.0742 H         1 UNK         0.3000 
    170 H170        3.9013  -14.9034  -40.0642 H         1 UNK         0.0600 
    171 H171        4.9322  -15.0601  -42.3499 H         1 UNK         0.0600 
    172 H172        3.3684  -14.7321  -43.0872 H         1 UNK         0.0600 
    173 H173        4.1639  -13.5002  -42.1081 H         1 UNK         0.0600 
    174 H174        1.7174  -13.8045  -41.5169 H         1 UNK         0.3000 
    175 H175       -0.9686  -14.4643  -39.5679 H         1 UNK         0.0600 
    176 H176        0.6019  -11.9327  -38.8391 H         1 UNK         0.0600 
    177 H177       -1.1413  -12.1477  -38.6719 H         1 UNK         0.0600 
    178 H178       -0.0408  -13.1063  -37.6969 H         1 UNK         0.0600 
    179 H179       -0.2257  -12.1322  -41.1285 H         1 UNK         0.3000 
    180 H180       -1.5741  -12.0211  -43.1880 H         1 UNK         0.0600 
    181 H181        1.0101  -13.3505  -44.2248 H         1 UNK         0.0600 
    182 H182        0.9483  -11.9080  -43.2213 H         1 UNK         0.0600 
    183 H183        0.3135  -11.8610  -44.8514 H         1 UNK         0.0600 
    184 H184       -1.7798  -14.6668  -44.2204 H         1 UNK         0.3000 
    185 H185       -2.6062  -15.2045  -46.2480 H         1 UNK         0.0600 
    186 H186       -4.9603  -14.8633  -46.9877 H         1 UNK         0.0600 
    187 H187       -4.7636  -14.3876  -45.3077 H         1 UNK         0.0600 
    188 H188       -4.8697  -13.1549  -46.5587 H         1 UNK         0.0600 
    189 H189       -3.1888  -13.2212  -48.3493 H         1 UNK         0.3000 
    190 H190       -1.6622  -20.6809  -45.5542 H         1 UNK         0.3000 
    191 H191       -4.2177  -20.8401  -46.8651 H         1 UNK         0.0600 
    192 H192       -5.0493  -19.7703  -44.7809 H         1 UNK         0.0600 
    193 H193       -3.6162  -18.9528  -45.3856 H         1 UNK         0.0600 
    194 H194       -3.4953  -20.0356  -44.0013 H         1 UNK         0.0600 
    195 H195       -2.7784  -22.6096  -44.0798 H         1 UNK         0.3000 
    196 H196       -5.0127  -24.2654  -43.5250 H         1 UNK         0.0600 
    197 H197       -2.0267  -24.7610  -43.0427 H         1 UNK         0.0600 
    198 H198       -3.1317  -23.9375  -41.9451 H         1 UNK         0.0600 
    199 H199       -3.3439  -25.6483  -42.2862 H         1 UNK         0.0600 
    200 H200       -2.2659  -24.7178  -45.7617 H         1 UNK         0.3000 
    201 H201       -3.0774  -27.3040  -46.7478 H         1 UNK         0.0600 
    202 H202       -1.2364  -25.1658  -47.9519 H         1 UNK         0.0600 
    203 H203       -1.3239  -26.8480  -48.4589 H         1 UNK         0.0600 
    204 H204       -0.7320  -26.4492  -46.8540 H         1 UNK         0.0600 
    205 H205       -4.3983  -24.2228  -47.2353 H         1 UNK         0.3000 
    206 H206       -5.9166  -23.2872  -48.4809 H         1 UNK         0.0600 
    207 H207       -7.1990  -25.4272  -48.2616 H         1 UNK         0.0600 
    208 H208       -7.5560  -24.5827  -49.7588 H         1 UNK         0.0600 
    209 H209       -6.5086  -25.9916  -49.7840 H         1 UNK         0.0600 
    210 H210       -3.0711  -23.9735  -49.6134 H         1 UNK         0.3000 
    211 H211       -3.2754  -23.6763  -52.4779 H         1 UNK         0.0600 
    212 H212       -0.8257  -23.3911  -52.3401 H         1 UNK         0.0600 
    213 H213       -1.3135  -24.7359  -51.3258 H         1 UNK         0.0600 
    214 H214       -0.9014  -23.1863  -50.5922 H         1 UNK         0.0600 
    215 H215       -2.7911  -21.4653  -49.7282 H         1 UNK         0.3000 
    216 H216       -2.5549  -19.0556  -51.3479 H         1 UNK         0.0600 
    217 H217       -3.0575  -19.4968  -48.3583 H         1 UNK         0.0600 
    218 H218       -2.8616  -17.9209  -49.0897 H         1 UNK         0.0600 
    219 H219       -1.5322  -19.0585  -49.1342 H         1 UNK         0.0600 
    220 H220       -5.1930  -20.8320  -49.7858 H         1 UNK         0.3000 
    221 H221       -7.2061  -18.8009  -50.0364 H         1 UNK         0.0600 
    222 H222       -7.3285  -20.6709  -48.3739 H         1 UNK         0.0600 
    223 H223       -7.5232  -21.8310  -49.6887 H         1 UNK         0.0600 
    224 H224       -8.7546  -20.6138  -49.3980 H         1 UNK         0.0600 
    225 H225       -6.3437  -21.6809  -52.0112 H         1 UNK         0.3000 
    226 H226       -8.2640  -21.1596  -54.1039 H         1 UNK         0.0600 
    227 H227       -5.7348  -22.8964  -54.0419 H         1 UNK         0.0600 
    228 H228       -7.3573  -23.4300  -53.6058 H         1 UNK         0.0600 
    229 H229       -6.9991  -22.9719  -55.2641 H         1 UNK         0.0600 
    230 H230       -5.1591  -19.8655  -53.3494 H         1 UNK         0.3000 
    231 H231       -3.6485  -18.5542  -54.2772 H         1 UNK         0.0600 
    232 H232       -5.7787  -17.7265  -56.3222 H         1 UNK         0.0600 
    233 H233       -4.2946  -16.8617  -55.9500 H         1 UNK         0.0600 
    234 H234       -5.5529  -16.9985  -54.7320 H         1 UNK         0.0600 
    235 H235       -3.3606  -21.1160  -54.7714 H         1 UNK         0.3000 
    236 H236       -3.3957  -22.0758  -57.4136 H         1 UNK         0.0600 
    237 H237       -3.3941  -23.5103  -55.3858 H         1 UNK         0.0600 
    238 H238       -2.0579  -23.9576  -56.4349 H         1 UNK         0.0600 
    239 H239       -1.7539  -22.9983  -54.9908 H         1 UNK         0.0600 
    240 H240       -1.0423  -20.0830  -55.8849 H         1 UNK         0.3000 
    241 H241        1.1225  -20.6360  -57.8011 H         1 UNK         0.0600 
    242 H242       -1.0048  -17.4985  -59.0956 H         1 UNK         0.3800 
    243 H243       -1.6904  -18.7005  -58.0325 H         1 UNK         0.3800 
    244 H244        1.0495  -18.7031  -55.4302 H         1 UNK         0.0800 
    245 H245        2.4373  -19.0387  -56.4214 H         1 UNK         0.0800 
    246 H246       -0.2861  -20.7825  -54.1375 H         1 UNK         0.0800 
    247 H247        0.6937  -21.9258  -53.2757 H         1 UNK         0.0800 
@<TRIPOS>BOND
     1    1    2 1    
     2    1  127 1    
     3    1  128 1    
     4    1  129 1    
     5    2    3 2    
     6    2    4 am   BACKBONE|DICT|INTERRES
     7    4    5 1    
     8    4  130 1    
     9    5    6 1    
    10    5   65 1    
    11    5  131 1    
    12    6    7 1    
    13    6  132 1    
    14    6  133 1    
    15    7    8 1    
    16    8    9 1    
    17    8  134 1    
    18    8  135 1    
    19    9   10 ar   
    20    9   14 ar   
    21   10   11 ar   
    22   10  136 1    
    23   11   12 ar   
    24   11  126 1    
    25   12   13 ar   
    26   12  137 1    
    27   13   14 ar   
    28   13   15 1    
    29   14  138 1    
    30   15   16 1    
    31   15  139 1    
    32   15  140 1    
    33   16   17 1    
    34   17   18 1    
    35   17  141 1    
    36   17  142 1    
    37   18   19 1    
    38   18   67 1    
    39   18  143 1    
    40   19   20 am   BACKBONE|DICT|INTERRES
    41   19  144 1    
    42   20   21 2    
    43   20   22 1    
    44   22   23 1    
    45   22   24 1    
    46   22  145 1    
    47   23  146 1    
    48   23  147 1    
    49   23  148 1    
    50   24   25 am   BACKBONE|DICT|INTERRES
    51   24  149 1    
    52   25   26 2    
    53   25   27 1    
    54   27   28 1    
    55   27   29 1    
    56   27  150 1    
    57   28  151 1    
    58   28  152 1    
    59   28  153 1    
    60   29   30 am   BACKBONE|DICT|INTERRES
    61   29  154 1    
    62   30   31 2    
    63   30   32 1    
    64   32   33 1    
    65   32   34 1    
    66   32  155 1    
    67   33  156 1    
    68   33  157 1    
    69   33  158 1    
    70   34   35 am   BACKBONE|DICT|INTERRES
    71   34  159 1    
    72   35   36 2    
    73   35   37 1    
    74   37   38 1    
    75   37   39 1    
    76   37  160 1    
    77   38  161 1    
    78   38  162 1    
    79   38  163 1    
    80   39   40 am   BACKBONE|DICT|INTERRES
    81   39  164 1    
    82   40   41 2    
    83   40   42 1    
    84   42   43 1    
    85   42   44 1    
    86   42  165 1    
    87   43  166 1    
    88   43  167 1    
    89   43  168 1    
    90   44   45 am   BACKBONE|DICT|INTERRES
    91   44  169 1    
    92   45   46 2    
    93   45   47 1    
    94   47   48 1    
    95   47   49 1    
    96   47  170 1    
    97   48  171 1    
    98   48  172 1    
    99   48  173 1    
   100   49   50 am   BACKBONE|DICT|INTERRES
   101   49  174 1    
   102   50   51 2    
   103   50   52 1    
   104   52   53 1    
   105   52   54 1    
   106   52  175 1    
   107   53  176 1    
   108   53  177 1    
   109   53  178 1    
   110   54   55 am   BACKBONE|DICT|INTERRES
   111   54  179 1    
   112   55   56 2    
   113   55   57 1    
   114   57   58 1    
   115   57   59 1    
   116   57  180 1    
   117   58  181 1    
   118   58  182 1    
   119   58  183 1    
   120   59   60 am   BACKBONE|DICT|INTERRES
   121   59  184 1    
   122   60   61 2    
   123   60   62 1    
   124   62   63 1    
   125   62   64 1    
   126   62  185 1    
   127   63  186 1    
   128   63  187 1    
   129   63  188 1    
   130   64   65 am   BACKBONE|DICT|INTERRES
   131   64  189 1    
   132   65   66 2    
   133   67   68 2    
   134   67   69 am   BACKBONE|DICT|INTERRES
   135   69   70 1    
   136   69  190 1    
   137   70   71 1    
   138   70   72 1    
   139   70  191 1    
   140   71  192 1    
   141   71  193 1    
   142   71  194 1    
   143   72   73 2    
   144   72   74 am   BACKBONE|DICT|INTERRES
   145   74   75 1    
   146   74  195 1    
   147   75   76 1    
   148   75   77 1    
   149   75  196 1    
   150   76  197 1    
   151   76  198 1    
   152   76  199 1    
   153   77   78 2    
   154   77   79 am   BACKBONE|DICT|INTERRES
   155   79   80 1    
   156   79  200 1    
   157   80   81 1    
   158   80   82 1    
   159   80  201 1    
   160   81  202 1    
   161   81  203 1    
   162   81  204 1    
   163   82   83 2    
   164   82   84 am   BACKBONE|DICT|INTERRES
   165   84   85 1    
   166   84  205 1    
   167   85   86 1    
   168   85   87 1    
   169   85  206 1    
   170   86  207 1    
   171   86  208 1    
   172   86  209 1    
   173   87   88 2    
   174   87   89 am   BACKBONE|DICT|INTERRES
   175   89   90 1    
   176   89  210 1    
   177   90   91 1    
   178   90   92 1    
   179   90  211 1    
   180   91  212 1    
   181   91  213 1    
   182   91  214 1    
   183   92   93 2    
   184   92   94 am   BACKBONE|DICT|INTERRES
   185   94   95 1    
   186   94  215 1    
   187   95   96 1    
   188   95   97 1    
   189   95  216 1    
   190   96  217 1    
   191   96  218 1    
   192   96  219 1    
   193   97   98 2    
   194   97   99 am   BACKBONE|DICT|INTERRES
   195   99  100 1    
   196   99  220 1    
   197  100  101 1    
   198  100  102 1    
   199  100  221 1    
   200  101  222 1    
   201  101  223 1    
   202  101  224 1    
   203  102  103 2    
   204  102  104 am   BACKBONE|DICT|INTERRES
   205  104  105 1    
   206  104  225 1    
   207  105  106 1    
   208  105  107 1    
   209  105  226 1    
   210  106  227 1    
   211  106  228 1    
   212  106  229 1    
   213  107  108 2    
   214  107  109 am   BACKBONE|DICT|INTERRES
   215  109  110 1    
   216  109  230 1    
   217  110  111 1    
   218  110  112 1    
   219  110  231 1    
   220  111  232 1    
   221  111  233 1    
   222  111  234 1    
   223  112  113 2    
   224  112  114 am   BACKBONE|DICT|INTERRES
   225  114  115 1    
   226  114  235 1    
   227  115  116 1    
   228  115  117 1    
   229  115  236 1    
   230  116  237 1    
   231  116  238 1    
   232  116  239 1    
   233  117  118 2    
   234  117  119 am   BACKBONE|DICT|INTERRES
   235  119  120 1    
   236  119  240 1    
   237  120  121 1    
   238  120  124 1    
   239  120  241 1    
   240  121  122 am   BACKBONE|DICT|INTERRES
   241  121  123 2    
   242  122  242 1    
   243  122  243 1    
   244  124  125 1    
   245  124  244 1    
   246  124  245 1    
   247  125  126 1    
   248  126  246 1    
   249  126  247 1    
@<TRIPOS>SUBSTRUCTURE
     1 UNK         1 GROUP             0       ****    0 ROOT    
