@<TRIPOS>MOLECULE
3R540
247   249    1
SMALL
USER_CHARGES


@<TRIPOS>ATOM
      1 CA         -2.2865  -11.0387  -50.0506 C.3       0 UNK        -0.1800 
      2 C          -1.0665  -11.1008  -49.1438 C.2       0 UNK         0.5000 
      3 O          -0.8615  -10.2039  -48.3258 O.2       0 UNK        -0.5000 
      4 N          -0.2653  -12.1688  -49.2614 N.am      1 UNK        -0.5000 
      5 CA          0.9776  -12.3886  -48.5054 C.3       1 UNK         0.1400 
      6 C6          1.8513  -13.4872  -49.1554 C.3       23 UNK        -0.0398 
      7 S7          1.1518  -15.1691  -49.0422 S.3       23 UNK        -0.2404 
      8 C8          2.5540  -16.1466  -49.6612 C.3       23 UNK        -0.0205 
      9 C9          2.2107  -17.6261  -49.7262 C.ar      23 UNK        -0.0193 
     10 C10         1.2970  -18.0877  -50.6788 C.ar      23 UNK        -0.1150 
     11 C11         0.9634  -19.4428  -50.7436 C.ar      23 UNK        -0.0193 
     12 C12         1.5745  -20.3428  -49.8680 C.ar      23 UNK        -0.1150 
     13 C13         2.4937  -19.8964  -48.9149 C.ar      23 UNK        -0.0193 
     14 C14         2.8058  -18.5350  -48.8447 C.ar      23 UNK        -0.1150 
     15 C15         3.1475  -20.8927  -47.9681 C.3       23 UNK        -0.0205 
     16 S16         2.5025  -20.7796  -46.2695 S.3       23 UNK        -0.2404 
     17 C17         0.7268  -21.1416  -46.4886 C.3       23 UNK        -0.0398 
     18 CA          0.3645  -22.6323  -46.2796 C.3       11 UNK         0.1400 
     19 N           0.8491  -23.1784  -45.0099 N.am      11 UNK        -0.5000 
     20 C           0.9500  -24.4855  -44.7300 C.2       10 UNK         0.5000 
     21 O           0.7041  -25.3785  -45.5401 O.2       10 UNK        -0.5000 
     22 CA          1.3710  -24.8612  -43.2954 C.3       10 UNK         0.1400 
     23 CB          2.8992  -24.9827  -43.1999 C.3       10 UNK        -0.1800 
     24 N           0.9039  -23.9028  -42.2921 N.am      10 UNK        -0.5000 
     25 C          -0.3821  -23.6967  -41.9727 C.2       9 UNK         0.5000 
     26 O          -1.3146  -24.3429  -42.4477 O.2       9 UNK        -0.5000 
     27 CA         -0.6764  -22.5265  -41.0116 C.3       9 UNK         0.1400 
     28 CB         -0.6276  -23.0011  -39.5520 C.3       9 UNK        -0.1800 
     29 N           0.2366  -21.3902  -41.1860 N.am      9 UNK        -0.5000 
     30 C           0.3815  -20.7031  -42.3273 C.2       8 UNK         0.5000 
     31 O          -0.2736  -20.9454  -43.3441 O.2       8 UNK        -0.5000 
     32 CA          1.4908  -19.6322  -42.3456 C.3       8 UNK         0.1400 
     33 CB          2.8766  -20.2923  -42.2443 C.3       8 UNK        -0.1800 
     34 N           1.4682  -18.8210  -43.5614 N.am      8 UNK        -0.5000 
     35 C           0.5451  -17.9063  -43.8724 C.2       7 UNK         0.5000 
     36 O          -0.3701  -17.5721  -43.1172 O.2       7 UNK        -0.5000 
     37 CA          0.7188  -17.2177  -45.2408 C.3       7 UNK         0.1400 
     38 CB         -0.5859  -16.5731  -45.7389 C.3       7 UNK        -0.1800 
     39 N           1.7598  -16.1945  -45.1623 N.am      7 UNK        -0.5000 
     40 C           3.0787  -16.4339  -45.1688 C.2       6 UNK         0.5000 
     41 O           3.5688  -17.5531  -45.3167 O.2       6 UNK        -0.5000 
     42 CA          4.0113  -15.2280  -44.9603 C.3       6 UNK         0.1400 
     43 CB          4.5331  -14.7102  -46.3055 C.3       6 UNK        -0.1800 
     44 N           3.3604  -14.1290  -44.2451 N.am      6 UNK        -0.5000 
     45 C           3.2365  -14.0712  -42.9111 C.2       5 UNK         0.5000 
     46 O           3.6395  -14.9592  -42.1579 O.2       5 UNK        -0.5000 
     47 CA          2.5384  -12.8265  -42.3199 C.3       5 UNK         0.1400 
     48 CB          3.0357  -12.4765  -40.9019 C.3       5 UNK        -0.1800 
     49 N           2.5848  -11.6513  -43.1966 N.am      5 UNK        -0.5000 
     50 C           3.6641  -10.9684  -43.6131 C.2       4 UNK         0.5000 
     51 O           4.8140  -11.2201  -43.2517 O.2       4 UNK        -0.5000 
     52 CA          3.4281   -9.8279  -44.6267 C.3       4 UNK         0.1400 
     53 CB          4.2174  -10.0796  -45.9232 C.3       4 UNK        -0.1800 
     54 N           2.0124   -9.6795  -44.9689 N.am      4 UNK        -0.5000 
     55 C           1.1506   -8.8500  -44.3646 C.2       3 UNK         0.5000 
     56 O           1.4757   -8.0351  -43.5010 O.2       3 UNK        -0.5000 
     57 CA         -0.3326   -8.9765  -44.7704 C.3       3 UNK         0.1400 
     58 CB         -0.6853   -7.9387  -45.8460 C.3       3 UNK        -0.1800 
     59 N          -0.6825  -10.3163  -45.2551 N.am      3 UNK        -0.5000 
     60 C          -0.7076  -11.4170  -44.4858 C.2       2 UNK         0.5000 
     61 O          -0.4851  -11.4009  -43.2760 O.2       2 UNK        -0.5000 
     62 CA         -0.9511  -12.7718  -45.1802 C.3       2 UNK         0.1400 
     63 CB         -2.4420  -13.1369  -45.1337 C.3       2 UNK        -0.1800 
     64 N          -0.4976  -12.7956  -46.5701 N.am      2 UNK        -0.5000 
     65 C           0.7627  -12.6052  -46.9862 C.2       1 UNK         0.5000 
     66 O           1.7220  -12.5398  -46.2147 O.2       1 UNK        -0.5000 
     67 C          -1.1582  -22.8231  -46.3878 C.2       11 UNK         0.5000 
     68 O          -1.6413  -23.2848  -47.4187 O.2       11 UNK        -0.5000 
     69 N          -1.8775  -22.4993  -45.3027 N.am      12 UNK        -0.5000 
     70 CA         -3.3304  -22.6412  -45.1827 C.3       12 UNK         0.1400 
     71 CB         -3.7879  -22.0070  -43.8608 C.3       12 UNK        -0.1800 
     72 C          -3.8172  -24.1008  -45.2844 C.2       12 UNK         0.5000 
     73 O          -4.9150  -24.3419  -45.7861 O.2       12 UNK        -0.5000 
     74 N          -2.9905  -25.0440  -44.8152 N.am      13 UNK        -0.5000 
     75 CA         -3.2322  -26.4838  -44.8928 C.3       13 UNK         0.1400 
     76 CB         -2.3280  -27.1906  -43.8706 C.3       13 UNK        -0.1800 
     77 C          -3.0126  -27.0776  -46.2994 C.2       13 UNK         0.5000 
     78 O          -3.5099  -28.1734  -46.5652 O.2       13 UNK        -0.5000 
     79 N          -2.2628  -26.3817  -47.1654 N.am      14 UNK        -0.5000 
     80 CA         -1.9620  -26.8206  -48.5272 C.3       14 UNK         0.1400 
     81 CB         -0.7003  -26.0966  -49.0252 C.3       14 UNK        -0.1800 
     82 C          -3.1401  -26.5577  -49.4809 C.2       14 UNK         0.5000 
     83 O          -3.9252  -25.6324  -49.2630 O.2       14 UNK        -0.5000 
     84 N          -3.2028  -27.3387  -50.5685 N.am      15 UNK        -0.5000 
     85 CA         -4.2072  -27.2185  -51.6330 C.3       15 UNK         0.1400 
     86 CB         -4.0388  -28.3830  -52.6198 C.3       15 UNK        -0.1800 
     87 C          -4.1644  -25.8703  -52.3799 C.2       15 UNK         0.5000 
     88 O          -5.1848  -25.4396  -52.9167 O.2       15 UNK        -0.5000 
     89 N          -3.0037  -25.2003  -52.3557 N.am      16 UNK        -0.5000 
     90 CA         -2.7866  -23.8575  -52.8943 C.3       16 UNK         0.1400 
     91 CB         -1.3072  -23.4862  -52.7236 C.3       16 UNK        -0.1800 
     92 C          -3.6906  -22.7790  -52.2623 C.2       16 UNK         0.5000 
     93 O          -4.0257  -21.8093  -52.9423 O.2       16 UNK        -0.5000 
     94 N          -4.0866  -22.9799  -50.9955 N.am      17 UNK        -0.5000 
     95 CA         -4.9957  -22.0959  -50.2669 C.3       17 UNK         0.1400 
     96 CB         -4.8177  -22.3143  -48.7593 C.3       17 UNK        -0.1800 
     97 C          -6.4709  -22.2762  -50.6743 C.2       17 UNK         0.5000 
     98 O          -7.2641  -21.3529  -50.4841 O.2       17 UNK        -0.5000 
     99 N          -6.8198  -23.4483  -51.2235 N.am      18 UNK        -0.5000 
    100 CA        -8.1308  -23.7159  -51.8161 C.3       18 UNK         0.1400 
    101 CB        -8.4456  -25.2164  -51.7090 C.3       18 UNK        -0.1800 
    102 C         -8.1796  -23.2457  -53.2813 C.2       18 UNK         0.5000 
    103 O         -9.2207  -22.7691  -53.7360 O.2       18 UNK        -0.5000 
    104 N         -7.0497  -23.3840  -53.9867 N.am      19 UNK        -0.5000 
    105 CA        -6.8305  -22.9022  -55.3474 C.3       19 UNK         0.1400 
    106 CB        -5.5881  -23.6100  -55.9144 C.3       19 UNK        -0.1800 
    107 C         -6.6592  -21.3704  -55.4125 C.2       19 UNK         0.5000 
    108 O         -6.5509  -20.6947  -54.3869 O.2       19 UNK        -0.5000 
    109 N         -6.5904  -20.8477  -56.6427 N.am      20 UNK        -0.5000 
    110 CA        -6.4070  -19.4251  -56.9471 C.3       20 UNK         0.1400 
    111 CB        -6.7120  -19.2037  -58.4378 C.3       20 UNK        -0.1800 
    112 C         -5.0135  -18.8610  -56.5883 C.2       20 UNK         0.5000 
    113 O         -4.8288  -17.6452  -56.6595 O.2       20 UNK        -0.5000 
    114 N         -4.0591  -19.7340  -56.2304 N.am      21 UNK        -0.5000 
    115 CA        -2.6948  -19.3809  -55.8326 C.3       21 UNK         0.1400 
    116 CB        -1.8625  -20.6613  -55.6628 C.3       21 UNK        -0.1800 
    117 C         -2.6416  -18.5119  -54.5618 C.2       21 UNK         0.5000 
    118 O         -1.9316  -17.5052  -54.5492 O.2       21 UNK        -0.5000 
    119 N         -3.4095  -18.8942  -53.5359 N.am      22 UNK        -0.5000 
    120 CA        -3.5449  -18.1479  -52.2753 C.3       22 UNK         0.1400 
    121 C         -4.8819  -18.4010  -51.5220 C.2       22 UNK         0.5000 
    122 N         -5.8561  -19.1093  -52.0794 N.am      22 UNK        -0.7600 
    123 O         -5.0602  -17.9203  -50.4063 O.2       22 UNK        -0.5000 
    124 C124       -2.2866  -18.2415  -51.3621 C.3       23 UNK        -0.0398 
    125 S125       -1.7333  -19.9504  -51.0227 S.3       23 UNK        -0.2404 
    126 C126       -0.0624  -19.9450  -51.7457 C.3       23 UNK        -0.0205 
    127 H127       -3.1967  -10.9995  -49.4522 H         1 UNK         0.0600 
    128 H128       -2.3476  -11.9063  -50.7080 H         1 UNK         0.0600 
    129 H129       -2.2461  -10.1434  -50.6710 H         1 UNK         0.0600 
    130 H130       -0.4965  -12.8907  -49.9298 H         1 UNK         0.3000 
    131 H131        1.5467  -11.4595  -48.5812 H         1 UNK         0.0600 
    132 H132        2.0018  -13.2545  -50.2106 H         1 UNK         0.0800 
    133 H133        2.8489  -13.4761  -48.7196 H         1 UNK         0.0800 
    134 H134        2.8309  -15.7969  -50.6569 H         1 UNK         0.0800 
    135 H135        3.4205  -15.9814  -49.0193 H         1 UNK         0.0800 
    136 H136        0.8342  -17.3852  -51.3571 H         1 UNK         0.1150 
    137 H137        1.3194  -21.3921  -49.9190 H         1 UNK         0.1150 
    138 H138        3.5093  -18.1873  -48.1007 H         1 UNK         0.1150 
    139 H139        3.0179  -21.9138  -48.3299 H         1 UNK         0.0800 
    140 H140        4.2231  -20.7122  -47.9465 H         1 UNK         0.0800 
    141 H141        0.3973  -20.8121  -47.4732 H         1 UNK         0.0800 
    142 H142        0.1840  -20.5081  -45.7877 H         1 UNK         0.0800 
    143 H143        0.8276  -23.2015  -47.0889 H         1 UNK         0.0600 
    144 H144        1.0172  -22.5041  -44.2771 H         1 UNK         0.3000 
    145 H145        0.9331  -25.8348  -43.0650 H         1 UNK         0.0600 
    146 H146        3.2074  -25.3186  -42.2097 H         1 UNK         0.0600 
    147 H147        3.2785  -25.7083  -43.9207 H         1 UNK         0.0600 
    148 H148        3.3925  -24.0309  -43.4016 H         1 UNK         0.0600 
    149 H149        1.6060  -23.3294  -41.8490 H         1 UNK         0.3000 
    150 H150       -1.6879  -22.1741  -41.2223 H         1 UNK         0.0600 
    151 H151        0.3708  -23.3383  -39.2704 H         1 UNK         0.0600 
    152 H152       -1.3135  -23.8338  -39.3897 H         1 UNK         0.0600 
    153 H153       -0.9192  -22.2041  -38.8679 H         1 UNK         0.0600 
    154 H154        0.8061  -21.1450  -40.3888 H         1 UNK         0.3000 
    155 H155        1.3456  -18.9738  -41.4869 H         1 UNK         0.0600 
    156 H156        3.0541  -20.9840  -43.0691 H         1 UNK         0.0600 
    157 H157        2.9871  -20.8522  -41.3151 H         1 UNK         0.0600 
    158 H158        3.6697  -19.5442  -42.2621 H         1 UNK         0.0600 
    159 H159        2.2051  -18.9944  -44.2346 H         1 UNK         0.3000 
    160 H160        1.0158  -17.9721  -45.9730 H         1 UNK         0.0600 
    161 H161       -0.9574  -15.8229  -45.0419 H         1 UNK         0.0600 
    162 H162       -1.3674  -17.3245  -45.8573 H         1 UNK         0.0600 
    163 H163       -0.4490  -16.0928  -46.7070 H         1 UNK         0.0600 
    164 H164        1.4528  -15.2449  -45.0192 H         1 UNK         0.3000 
    165 H165        4.8701  -15.5714  -44.3794 H         1 UNK         0.0600 
    166 H166        5.0593  -15.4941  -46.8516 H         1 UNK         0.0600 
    167 H167        3.7139  -14.3657  -46.9307 H         1 UNK         0.0600 
    168 H168        5.2271  -13.8804  -46.1699 H         1 UNK         0.0600 
    169 H169        2.9741  -13.3806  -44.8113 H         1 UNK         0.3000 
    170 H170        1.4844  -13.0940  -42.2360 H         1 UNK         0.0600 
    171 H171        2.8482  -13.2962  -40.2075 H         1 UNK         0.0600 
    172 H172        4.1070  -12.2746  -40.8853 H         1 UNK         0.0600 
    173 H173        2.5219  -11.5987  -40.5100 H         1 UNK         0.0600 
    174 H174        1.6822  -11.3435  -43.5339 H         1 UNK         0.3000 
    175 H175        3.8006   -8.9062  -44.1752 H         1 UNK         0.0600 
    176 H176        4.0582   -9.2773  -46.6437 H         1 UNK         0.0600 
    177 H177        5.2891  -10.1286  -45.7264 H         1 UNK         0.0600 
    178 H178        3.9299  -11.0184  -46.3974 H         1 UNK         0.0600 
    179 H179        1.6543  -10.3380  -45.6475 H         1 UNK         0.3000 
    180 H180       -0.9369   -8.7684  -43.8849 H         1 UNK         0.0600 
    181 H181       -0.0945   -8.0816  -46.7516 H         1 UNK         0.0600 
    182 H182       -0.4963   -6.9259  -45.4880 H         1 UNK         0.0600 
    183 H183       -1.7387   -7.9958  -46.1205 H         1 UNK         0.0600 
    184 H184       -0.8555  -10.4021  -46.2516 H         1 UNK         0.3000 
    185 H185       -0.3881  -13.5277  -44.6300 H         1 UNK         0.0600 
    186 H186       -2.8010  -13.1801  -44.1045 H         1 UNK         0.0600 
    187 H187       -3.0517  -12.4041  -45.6639 H         1 UNK         0.0600 
    188 H188       -2.6274  -14.1126  -45.5828 H         1 UNK         0.0600 
    189 H189       -1.2166  -12.8412  -47.2769 H         1 UNK         0.3000 
    190 H190       -1.3917  -22.0987  -44.5056 H         1 UNK         0.3000 
    191 H191       -3.7855  -22.0823  -46.0017 H         1 UNK         0.0600 
    192 H192       -3.4803  -20.9631  -43.7948 H         1 UNK         0.0600 
    193 H193       -4.8746  -22.0336  -43.7716 H         1 UNK         0.0600 
    194 H194       -3.3757  -22.5333  -42.9997 H         1 UNK         0.0600 
    195 H195       -2.1491  -24.7507  -44.3322 H         1 UNK         0.3000 
    196 H196       -4.2711  -26.6747  -44.6160 H         1 UNK         0.0600 
    197 H197       -2.4893  -28.2693  -43.8820 H         1 UNK         0.0600 
    198 H198       -2.5321  -26.8436  -42.8575 H         1 UNK         0.0600 
    199 H199       -1.2723  -27.0130  -44.0796 H         1 UNK         0.0600 
    200 H200       -1.9502  -25.4531  -46.9123 H         1 UNK         0.3000 
    201 H201       -1.7562  -27.8930  -48.5093 H         1 UNK         0.0600 
    202 H202       -0.3640  -26.5085  -49.9772 H         1 UNK         0.0600 
    203 H203       -0.8763  -25.0317  -49.1780 H         1 UNK         0.0600 
    204 H204        0.1227  -26.2019  -48.3177 H         1 UNK         0.0600 
    205 H205       -2.5160  -28.0703  -50.6848 H         1 UNK         0.3000 
    206 H206       -5.1934  -27.3003  -51.1712 H         1 UNK         0.0600 
    207 H207       -4.1566  -29.3446  -52.1200 H         1 UNK         0.0600 
    208 H208       -4.7888  -28.3361  -53.4107 H         1 UNK         0.0600 
    209 H209       -3.0579  -28.3684  -53.0963 H         1 UNK         0.0600 
    210 H210       -2.2196  -25.6313  -51.8900 H         1 UNK         0.3000 
    211 H211       -3.0053  -23.8937  -53.9621 H         1 UNK         0.0600 
    212 H212       -1.0290  -23.4107  -51.6714 H         1 UNK         0.0600 
    213 H213       -1.0969  -22.5245  -53.1906 H         1 UNK         0.0600 
    214 H214       -0.6551  -24.2219  -53.1946 H         1 UNK         0.0600 
    215 H215       -3.7846  -23.8140  -50.5059 H         1 UNK         0.3000 
    216 H216       -4.7134  -21.0658  -50.4824 H         1 UNK         0.0600 
    217 H217       -5.4589  -21.6428  -48.1873 H         1 UNK         0.0600 
    218 H218       -3.7897  -22.1148  -48.4593 H         1 UNK         0.0600 
    219 H219       -5.0644  -23.3347  -48.4650 H         1 UNK         0.0600 
    220 H220       -6.1036  -24.1460  -51.3738 H         1 UNK         0.3000 
    221 H221       -8.8995  -23.1731  -51.2618 H         1 UNK         0.0600 
    222 H222       -7.7340  -25.8240  -52.2682 H         1 UNK         0.0600 
    223 H223       -8.4279  -25.5494  -50.6712 H         1 UNK         0.0600 
    224 H224       -9.4393  -25.4327  -52.1032 H         1 UNK         0.0600 
    225 H225       -6.2575  -23.8264  -53.5365 H         1 UNK         0.3000 
    226 H226       -7.6975  -23.1755  -55.9522 H         1 UNK         0.0600 
    227 H227       -5.4653  -23.4073  -56.9787 H         1 UNK         0.0600 
    228 H228       -4.6790  -23.2807  -55.4125 H         1 UNK         0.0600 
    229 H229       -5.6605  -24.6920  -55.8003 H         1 UNK         0.0600 
    230 H230       -6.6725  -21.4635  -57.4389 H         1 UNK         0.3000 
    231 H231       -7.1374  -18.8605  -56.3637 H         1 UNK         0.0600 
    232 H232       -6.0180  -19.7527  -59.0754 H         1 UNK         0.0600 
    233 H233       -6.6356  -18.1482  -58.7026 H         1 UNK         0.0600 
    234 H234       -7.7238  -19.5245  -58.6862 H         1 UNK         0.0600 
    235 H235       -4.3052  -20.7108  -56.1876 H         1 UNK         0.3000 
    236 H236       -2.2544  -18.7992  -56.6451 H         1 UNK         0.0600 
    237 H237       -1.7842  -21.2076  -56.6028 H         1 UNK         0.0600 
    238 H238       -0.8481  -20.4297  -55.3353 H         1 UNK         0.0600 
    239 H239       -2.3014  -21.3304  -54.9239 H         1 UNK         0.0600 
    240 H240       -3.8957  -19.7837  -53.5755 H         1 UNK         0.3000 
    241 H241       -3.6352  -17.0975  -52.5582 H         1 UNK         0.0600 
    242 H242       -5.7857  -19.5505  -52.9901 H         1 UNK         0.3800 
    243 H243       -6.6898  -19.2795  -51.5381 H         1 UNK         0.3800 
    244 H244       -2.4524  -17.7386  -50.4083 H         1 UNK         0.0800 
    245 H245       -1.4735  -17.6868  -51.8289 H         1 UNK         0.0800 
    246 H246        0.1961  -20.9606  -52.0445 H         1 UNK         0.0800 
    247 H247       -0.0421  -19.3489  -52.6593 H         1 UNK         0.0800 
@<TRIPOS>BOND
     1    1    2 1    
     2    1  127 1    
     3    1  128 1    
     4    1  129 1    
     5    2    3 2    
     6    2    4 am   BACKBONE|DICT|INTERRES
     7    4    5 1    
     8    4  130 1    
     9    5    6 1    
    10    5   65 1    
    11    5  131 1    
    12    6    7 1    
    13    6  132 1    
    14    6  133 1    
    15    7    8 1    
    16    8    9 1    
    17    8  134 1    
    18    8  135 1    
    19    9   10 ar   
    20    9   14 ar   
    21   10   11 ar   
    22   10  136 1    
    23   11   12 ar   
    24   11  126 1    
    25   12   13 ar   
    26   12  137 1    
    27   13   14 ar   
    28   13   15 1    
    29   14  138 1    
    30   15   16 1    
    31   15  139 1    
    32   15  140 1    
    33   16   17 1    
    34   17   18 1    
    35   17  141 1    
    36   17  142 1    
    37   18   19 1    
    38   18   67 1    
    39   18  143 1    
    40   19   20 am   BACKBONE|DICT|INTERRES
    41   19  144 1    
    42   20   21 2    
    43   20   22 1    
    44   22   23 1    
    45   22   24 1    
    46   22  145 1    
    47   23  146 1    
    48   23  147 1    
    49   23  148 1    
    50   24   25 am   BACKBONE|DICT|INTERRES
    51   24  149 1    
    52   25   26 2    
    53   25   27 1    
    54   27   28 1    
    55   27   29 1    
    56   27  150 1    
    57   28  151 1    
    58   28  152 1    
    59   28  153 1    
    60   29   30 am   BACKBONE|DICT|INTERRES
    61   29  154 1    
    62   30   31 2    
    63   30   32 1    
    64   32   33 1    
    65   32   34 1    
    66   32  155 1    
    67   33  156 1    
    68   33  157 1    
    69   33  158 1    
    70   34   35 am   BACKBONE|DICT|INTERRES
    71   34  159 1    
    72   35   36 2    
    73   35   37 1    
    74   37   38 1    
    75   37   39 1    
    76   37  160 1    
    77   38  161 1    
    78   38  162 1    
    79   38  163 1    
    80   39   40 am   BACKBONE|DICT|INTERRES
    81   39  164 1    
    82   40   41 2    
    83   40   42 1    
    84   42   43 1    
    85   42   44 1    
    86   42  165 1    
    87   43  166 1    
    88   43  167 1    
    89   43  168 1    
    90   44   45 am   BACKBONE|DICT|INTERRES
    91   44  169 1    
    92   45   46 2    
    93   45   47 1    
    94   47   48 1    
    95   47   49 1    
    96   47  170 1    
    97   48  171 1    
    98   48  172 1    
    99   48  173 1    
   100   49   50 am   BACKBONE|DICT|INTERRES
   101   49  174 1    
   102   50   51 2    
   103   50   52 1    
   104   52   53 1    
   105   52   54 1    
   106   52  175 1    
   107   53  176 1    
   108   53  177 1    
   109   53  178 1    
   110   54   55 am   BACKBONE|DICT|INTERRES
   111   54  179 1    
   112   55   56 2    
   113   55   57 1    
   114   57   58 1    
   115   57   59 1    
   116   57  180 1    
   117   58  181 1    
   118   58  182 1    
   119   58  183 1    
   120   59   60 am   BACKBONE|DICT|INTERRES
   121   59  184 1    
   122   60   61 2    
   123   60   62 1    
   124   62   63 1    
   125   62   64 1    
   126   62  185 1    
   127   63  186 1    
   128   63  187 1    
   129   63  188 1    
   130   64   65 am   BACKBONE|DICT|INTERRES
   131   64  189 1    
   132   65   66 2    
   133   67   68 2    
   134   67   69 am   BACKBONE|DICT|INTERRES
   135   69   70 1    
   136   69  190 1    
   137   70   71 1    
   138   70   72 1    
   139   70  191 1    
   140   71  192 1    
   141   71  193 1    
   142   71  194 1    
   143   72   73 2    
   144   72   74 am   BACKBONE|DICT|INTERRES
   145   74   75 1    
   146   74  195 1    
   147   75   76 1    
   148   75   77 1    
   149   75  196 1    
   150   76  197 1    
   151   76  198 1    
   152   76  199 1    
   153   77   78 2    
   154   77   79 am   BACKBONE|DICT|INTERRES
   155   79   80 1    
   156   79  200 1    
   157   80   81 1    
   158   80   82 1    
   159   80  201 1    
   160   81  202 1    
   161   81  203 1    
   162   81  204 1    
   163   82   83 2    
   164   82   84 am   BACKBONE|DICT|INTERRES
   165   84   85 1    
   166   84  205 1    
   167   85   86 1    
   168   85   87 1    
   169   85  206 1    
   170   86  207 1    
   171   86  208 1    
   172   86  209 1    
   173   87   88 2    
   174   87   89 am   BACKBONE|DICT|INTERRES
   175   89   90 1    
   176   89  210 1    
   177   90   91 1    
   178   90   92 1    
   179   90  211 1    
   180   91  212 1    
   181   91  213 1    
   182   91  214 1    
   183   92   93 2    
   184   92   94 am   BACKBONE|DICT|INTERRES
   185   94   95 1    
   186   94  215 1    
   187   95   96 1    
   188   95   97 1    
   189   95  216 1    
   190   96  217 1    
   191   96  218 1    
   192   96  219 1    
   193   97   98 2    
   194   97   99 am   BACKBONE|DICT|INTERRES
   195   99  100 1    
   196   99  220 1    
   197  100  101 1    
   198  100  102 1    
   199  100  221 1    
   200  101  222 1    
   201  101  223 1    
   202  101  224 1    
   203  102  103 2    
   204  102  104 am   BACKBONE|DICT|INTERRES
   205  104  105 1    
   206  104  225 1    
   207  105  106 1    
   208  105  107 1    
   209  105  226 1    
   210  106  227 1    
   211  106  228 1    
   212  106  229 1    
   213  107  108 2    
   214  107  109 am   BACKBONE|DICT|INTERRES
   215  109  110 1    
   216  109  230 1    
   217  110  111 1    
   218  110  112 1    
   219  110  231 1    
   220  111  232 1    
   221  111  233 1    
   222  111  234 1    
   223  112  113 2    
   224  112  114 am   BACKBONE|DICT|INTERRES
   225  114  115 1    
   226  114  235 1    
   227  115  116 1    
   228  115  117 1    
   229  115  236 1    
   230  116  237 1    
   231  116  238 1    
   232  116  239 1    
   233  117  118 2    
   234  117  119 am   BACKBONE|DICT|INTERRES
   235  119  120 1    
   236  119  240 1    
   237  120  121 1    
   238  120  124 1    
   239  120  241 1    
   240  121  122 am   BACKBONE|DICT|INTERRES
   241  121  123 2    
   242  122  242 1    
   243  122  243 1    
   244  124  125 1    
   245  124  244 1    
   246  124  245 1    
   247  125  126 1    
   248  126  246 1    
   249  126  247 1    
@<TRIPOS>SUBSTRUCTURE
     1 UNK         1 GROUP             0       ****    0 ROOT    
