@<TRIPOS>MOLECULE
3R540
247   249    1
SMALL
USER_CHARGES


@<TRIPOS>ATOM
      1 CA          2.4900  -17.0421  -46.9264 C.3       0 UNK        -0.1800 
      2 C           2.2483  -16.1669  -48.1450 C.2       0 UNK         0.5000 
      3 O           1.1435  -15.6561  -48.3352 O.2       0 UNK        -0.5000 
      4 N           3.2896  -15.9966  -48.9654 N.am      1 UNK        -0.5000 
      5 CA          3.2599  -15.2593  -50.2292 C.3       1 UNK         0.1400 
      6 C6          4.5676  -15.4274  -51.0482 C.3       23 UNK        -0.0398 
      7 S7          5.2563  -17.1249  -51.0836 S.3       23 UNK        -0.2404 
      8 C8          4.2802  -17.9539  -52.3787 C.3       23 UNK        -0.0205 
      9 C9          3.0446  -18.6321  -51.8042 C.ar      23 UNK        -0.0193 
     10 C10         1.7980  -18.0105  -51.8856 C.ar      23 UNK        -0.1150 
     11 C11         0.6617  -18.6153  -51.3444 C.ar      23 UNK        -0.0193 
     12 C12         0.7723  -19.8697  -50.7358 C.ar      23 UNK        -0.1150 
     13 C13         2.0066  -20.5244  -50.6847 C.ar      23 UNK        -0.0193 
     14 C14         3.1406  -19.8947  -51.2100 C.ar      23 UNK        -0.1150 
     15 C15         2.1124  -21.9318  -50.1136 C.3       23 UNK        -0.0205 
     16 S16         2.8871  -21.9591  -48.4677 S.3       23 UNK        -0.2404 
     17 C17         1.4718  -21.6257  -47.3687 C.3       23 UNK        -0.0398 
     18 CA          0.9400  -22.9177  -46.6926 C.3       11 UNK         0.1400 
     19 N           0.4890  -22.6762  -45.3174 N.am      11 UNK        -0.5000 
     20 C           0.1103  -23.6295  -44.4540 C.2       10 UNK         0.5000 
     21 O           0.1227  -24.8308  -44.7186 O.2       10 UNK        -0.5000 
     22 CA         -0.4216  -23.1622  -43.0886 C.3       10 UNK         0.1400 
     23 CB          0.7292  -22.8735  -42.1131 C.3       10 UNK        -0.1800 
     24 N          -1.2726  -21.9800  -43.2210 N.am      10 UNK        -0.5000 
     25 C          -2.5251  -22.0084  -43.6994 C.2       9 UNK         0.5000 
     26 O          -3.1136  -23.0438  -44.0099 O.2       9 UNK        -0.5000 
     27 CA         -3.2213  -20.6491  -43.9069 C.3       9 UNK         0.1400 
     28 CB         -3.8658  -20.1641  -42.6004 C.3       9 UNK        -0.1800 
     29 N          -2.3183  -19.6144  -44.4144 N.am      9 UNK        -0.5000 
     30 C          -1.6690  -19.6829  -45.5851 C.2       8 UNK         0.5000 
     31 O          -1.8171  -20.5948  -46.3935 O.2       8 UNK        -0.5000 
     32 CA         -0.6306  -18.5921  -45.8824 C.3       8 UNK         0.1400 
     33 CB         -1.2787  -17.4130  -46.6127 C.3       8 UNK        -0.1800 
     34 N           0.0663  -18.1207  -44.6862 N.am      8 UNK        -0.5000 
     35 C           0.8736  -18.8748  -43.9276 C.2       7 UNK         0.5000 
     36 O           1.0678  -20.0731  -44.1315 O.2       7 UNK        -0.5000 
     37 CA          1.5606  -18.1853  -42.7382 C.3       7 UNK         0.1400 
     38 CB          2.8776  -17.5273  -43.1767 C.3       7 UNK        -0.1800 
     39 N           0.6912  -17.1724  -42.1435 N.am      7 UNK        -0.5000 
     40 C          -0.1558  -17.4006  -41.1319 C.2       6 UNK         0.5000 
     41 O          -0.2332  -18.4725  -40.5306 O.2       6 UNK        -0.5000 
     42 CA         -1.0928  -16.2415  -40.7372 C.3       6 UNK         0.1400 
     43 CB         -0.4219  -15.3385  -39.6912 C.3       6 UNK        -0.1800 
     44 N          -1.5260  -15.4221  -41.8723 N.am      6 UNK        -0.5000 
     45 C          -2.2651  -15.8703  -42.8960 C.2       5 UNK         0.5000 
     46 O          -2.6554  -17.0332  -43.0026 O.2       5 UNK        -0.5000 
     47 CA         -2.5979  -14.8626  -44.0114 C.3       5 UNK         0.1400 
     48 CB         -3.8359  -14.0359  -43.6346 C.3       5 UNK        -0.1800 
     49 N          -1.5222  -13.9518  -44.4214 N.am      5 UNK        -0.5000 
     50 C          -0.2339  -14.2415  -44.6552 C.2       4 UNK         0.5000 
     51 O           0.2987  -15.3129  -44.3641 O.2       4 UNK        -0.5000 
     52 CA          0.5643  -13.1603  -45.4090 C.3       4 UNK         0.1400 
     53 CB          2.0821  -13.4072  -45.3855 C.3       4 UNK        -0.1800 
     54 N           0.1065  -13.0890  -46.7987 N.am      4 UNK        -0.5000 
     55 C          -0.9929  -12.4352  -47.1979 C.2       3 UNK         0.5000 
     56 O          -1.6941  -11.7727  -46.4293 O.2       3 UNK        -0.5000 
     57 CA         -1.3968  -12.5781  -48.6794 C.3       3 UNK         0.1400 
     58 CB         -2.4642  -11.5529  -49.1144 C.3       3 UNK        -0.1800 
     59 N          -0.2739  -12.5693  -49.6180 N.am      3 UNK        -0.5000 
     60 C           0.6324  -11.5989  -49.8043 C.2       2 UNK         0.5000 
     61 O           0.6917  -10.5680  -49.1315 O.2       2 UNK        -0.5000 
     62 CA          1.6241  -11.8345  -50.9637 C.3       2 UNK         0.1400 
     63 CB          2.7549  -10.7854  -51.0320 C.3       2 UNK        -0.1800 
     64 N           2.1596  -13.2009  -50.9696 N.am      2 UNK        -0.5000 
     65 C           2.9225  -13.7675  -50.0231 C.2       1 UNK         0.5000 
     66 O           3.3602  -13.1730  -49.0348 O.2       1 UNK        -0.5000 
     67 C          -0.1474  -23.6078  -47.5462 C.2       11 UNK         0.5000 
     68 O           0.1432  -24.5756  -48.2477 O.2       11 UNK        -0.5000 
     69 N          -1.3930  -23.1332  -47.4237 N.am      12 UNK        -0.5000 
     70 CA         -2.5772  -23.6845  -48.0785 C.3       12 UNK         0.1400 
     71 CB         -3.7339  -22.6890  -47.9231 C.3       12 UNK        -0.1800 
     72 C          -2.9913  -25.0678  -47.5446 C.2       12 UNK         0.5000 
     73 O          -3.6304  -25.8203  -48.2775 O.2       12 UNK        -0.5000 
     74 N          -2.6347  -25.3813  -46.2918 N.am      13 UNK        -0.5000 
     75 CA         -2.8374  -26.6996  -45.6923 C.3       13 UNK         0.1400 
     76 CB         -2.8699  -26.5745  -44.1611 C.3       13 UNK        -0.1800 
     77 C          -1.7546  -27.6963  -46.1437 C.2       13 UNK         0.5000 
     78 O          -2.0714  -28.8566  -46.4081 O.2       13 UNK        -0.5000 
     79 N          -0.5011  -27.2275  -46.2249 N.am      14 UNK        -0.5000 
     80 CA          0.6552  -28.0016  -46.6760 C.3       14 UNK         0.1400 
     81 CB          1.9428  -27.2414  -46.3206 C.3       14 UNK        -0.1800 
     82 C           0.6071  -28.3195  -48.1818 C.2       14 UNK         0.5000 
     83 O           0.8798  -29.4560  -48.5719 O.2       14 UNK        -0.5000 
     84 N           0.2583  -27.3123  -48.9890 N.am      15 UNK        -0.5000 
     85 CA          0.0897  -27.3941  -50.4346 C.3       15 UNK         0.1400 
     86 CB          1.1126  -26.4541  -51.1069 C.3       15 UNK        -0.1800 
     87 C          -1.3797  -27.0742  -50.7624 C.2       15 UNK         0.5000 
     88 O          -2.2592  -27.8498  -50.3855 O.2       15 UNK        -0.5000 
     89 N          -1.6235  -25.9549  -51.4505 N.am      16 UNK        -0.5000 
     90 CA         -2.9278  -25.4092  -51.8097 C.3       16 UNK         0.1400 
     91 CB         -3.5654  -26.2307  -52.9458 C.3       16 UNK        -0.1800 
     92 C          -2.7115  -23.9532  -52.2444 C.2       16 UNK         0.5000 
     93 O          -1.6152  -23.6189  -52.7036 O.2       16 UNK        -0.5000 
     94 N          -3.7466  -23.1179  -52.1104 N.am      17 UNK        -0.5000 
     95 CA         -3.7309  -21.7141  -52.5116 C.3       17 UNK         0.1400 
     96 CB         -2.8968  -20.8845  -51.5243 C.3       17 UNK        -0.1800 
     97 C          -5.1646  -21.1775  -52.5861 C.2       17 UNK         0.5000 
     98 O          -5.9918  -21.5297  -51.7409 O.2       17 UNK        -0.5000 
     99 N          -5.4236  -20.3176  -53.5793 N.am      18 UNK        -0.5000 
    100 CA        -6.7059  -19.6509  -53.8064 C.3       18 UNK         0.1400 
    101 CB        -6.6611  -18.9194  -55.1575 C.3       18 UNK        -0.1800 
    102 C         -7.0366  -18.6770  -52.6622 C.2       18 UNK         0.5000 
    103 O         -6.2967  -17.7134  -52.4561 O.2       18 UNK        -0.5000 
    104 N         -8.1154  -18.9767  -51.9235 N.am      19 UNK        -0.5000 
    105 CA        -8.6008  -18.2653  -50.7308 C.3       19 UNK         0.1400 
    106 CB        -9.0881  -16.8488  -51.1017 C.3       19 UNK        -0.1800 
    107 C         -7.5919  -18.2527  -49.5588 C.2       19 UNK         0.5000 
    108 O         -7.6711  -17.3799  -48.6920 O.2       19 UNK        -0.5000 
    109 N         -6.6596  -19.2175  -49.5612 N.am      20 UNK        -0.5000 
    110 CA        -5.5025  -19.3877  -48.6791 C.3       20 UNK         0.1400 
    111 CB        -5.9164  -19.6495  -47.2190 C.3       20 UNK        -0.1800 
    112 C         -4.4692  -18.2513  -48.7863 C.2       20 UNK         0.5000 
    113 O         -3.3336  -18.5044  -49.1817 O.2       20 UNK        -0.5000 
    114 N         -4.8760  -17.0200  -48.4591 N.am      21 UNK        -0.5000 
    115 CA        -4.0717  -15.7993  -48.5092 C.3       21 UNK         0.1400 
    116 CB        -4.6769  -14.7736  -47.5340 C.3       21 UNK        -0.1800 
    117 C         -3.9383  -15.2610  -49.9478 C.2       21 UNK         0.5000 
    118 O         -4.4004  -14.1579  -50.2431 O.2       21 UNK        -0.5000 
    119 N         -3.3271  -16.0671  -50.8210 N.am      22 UNK        -0.5000 
    120 CA        -3.0858  -15.7492  -52.2333 C.3       22 UNK         0.1400 
    121 C         -1.9861  -14.6702  -52.4676 C.2       22 UNK         0.5000 
    122 N         -2.0027  -14.0070  -53.6159 N.am      22 UNK        -0.7600 
    123 O         -1.1049  -14.4425  -51.6401 O.2       22 UNK        -0.5000 
    124 C124       -2.8998  -17.0385  -53.0814 C.3       23 UNK        -0.0398 
    125 S125       -1.2437  -17.8161  -53.1669 S.3       23 UNK        -0.2404 
    126 C126       -0.6797  -17.9082  -51.4363 C.3       23 UNK        -0.0205 
    127 H127        2.2038  -18.0713  -47.1401 H         1 UNK         0.0600 
    128 H128        1.8968  -16.6827  -46.0889 H         1 UNK         0.0600 
    129 H129        3.5378  -17.0315  -46.6258 H         1 UNK         0.0600 
    130 H130        4.1713  -16.4380  -48.7495 H         1 UNK         0.3000 
    131 H131        2.4416  -15.6838  -50.8058 H         1 UNK         0.0600 
    132 H132        4.4196  -15.0833  -52.0730 H         1 UNK         0.0800 
    133 H133        5.3501  -14.7893  -50.6327 H         1 UNK         0.0800 
    134 H134        4.0080  -17.2432  -53.1604 H         1 UNK         0.0800 
    135 H135        4.9082  -18.7049  -52.8603 H         1 UNK         0.0800 
    136 H136        1.7034  -17.0539  -52.3788 H         1 UNK         0.1150 
    137 H137       -0.1043  -20.3460  -50.3212 H         1 UNK         0.1150 
    138 H138        4.0989  -20.3929  -51.1634 H         1 UNK         0.1150 
    139 H139        1.1339  -22.4132  -50.0752 H         1 UNK         0.0800 
    140 H140        2.7160  -22.5404  -50.7885 H         1 UNK         0.0800 
    141 H141        1.8434  -20.9337  -46.6120 H         1 UNK         0.0800 
    142 H142        0.6884  -21.0817  -47.8997 H         1 UNK         0.0800 
    143 H143        1.7668  -23.6260  -46.6036 H         1 UNK         0.0600 
    144 H144        0.4984  -21.7136  -44.9938 H         1 UNK         0.3000 
    145 H145       -1.0194  -23.9738  -42.6678 H         1 UNK         0.0600 
    146 H146        0.3509  -22.5731  -41.1358 H         1 UNK         0.0600 
    147 H147        1.3428  -23.7629  -41.9647 H         1 UNK         0.0600 
    148 H148        1.3853  -22.0824  -42.4754 H         1 UNK         0.0600 
    149 H149       -0.8412  -21.0853  -43.0372 H         1 UNK         0.3000 
    150 H150       -4.0122  -20.7955  -44.6446 H         1 UNK         0.0600 
    151 H151       -4.5424  -20.9167  -42.1934 H         1 UNK         0.0600 
    152 H152       -4.4487  -19.2573  -42.7633 H         1 UNK         0.0600 
    153 H153       -3.1159  -19.9461  -41.8387 H         1 UNK         0.0600 
    154 H154       -2.1873  -18.7950  -43.8287 H         1 UNK         0.3000 
    155 H155        0.1219  -19.0216  -46.5447 H         1 UNK         0.0600 
    156 H156       -0.6511  -16.5241  -46.5978 H         1 UNK         0.0600 
    157 H157       -2.2462  -17.1558  -46.1845 H         1 UNK         0.0600 
    158 H158       -1.4369  -17.6693  -47.6591 H         1 UNK         0.0600 
    159 H159        0.0007  -17.1273  -44.4814 H         1 UNK         0.3000 
    160 H160        1.7993  -18.9555  -42.0017 H         1 UNK         0.0600 
    161 H161        2.7080  -16.6932  -43.8576 H         1 UNK         0.0600 
    162 H162        3.5250  -18.2434  -43.6847 H         1 UNK         0.0600 
    163 H163        3.4273  -17.1449  -42.3166 H         1 UNK         0.0600 
    164 H164        0.6411  -16.2834  -42.6293 H         1 UNK         0.3000 
    165 H165       -1.9849  -16.6813  -40.2862 H         1 UNK         0.0600 
    166 H166        0.4625  -14.8438  -40.0948 H         1 UNK         0.0600 
    167 H167       -1.1069  -14.5677  -39.3375 H         1 UNK         0.0600 
    168 H168       -0.1070  -15.9160  -38.8210 H         1 UNK         0.0600 
    169 H169       -1.2302  -14.4570  -41.8799 H         1 UNK         0.3000 
    170 H170       -2.8572  -15.4446  -44.8944 H         1 UNK         0.0600 
    171 H171       -4.6693  -14.6818  -43.3545 H         1 UNK         0.0600 
    172 H172       -3.6347  -13.3732  -42.7921 H         1 UNK         0.0600 
    173 H173       -4.1706  -13.4223  -44.4714 H         1 UNK         0.0600 
    174 H174       -1.8325  -13.0433  -44.7476 H         1 UNK         0.3000 
    175 H175        0.3819  -12.2042  -44.9140 H         1 UNK         0.0600 
    176 H176        2.6182  -12.6010  -45.8867 H         1 UNK         0.0600 
    177 H177        2.4532  -13.4599  -44.3613 H         1 UNK         0.0600 
    178 H178        2.3519  -14.3385  -45.8791 H         1 UNK         0.0600 
    179 H179        0.5984  -13.6704  -47.4681 H         1 UNK         0.3000 
    180 H180       -1.8398  -13.5696  -48.7663 H         1 UNK         0.0600 
    181 H181       -2.7595  -11.7115  -50.1518 H         1 UNK         0.0600 
    182 H182       -3.3664  -11.6422  -48.5083 H         1 UNK         0.0600 
    183 H183       -2.1041  -10.5282  -49.0191 H         1 UNK         0.0600 
    184 H184       -0.2578  -13.3609  -50.2564 H         1 UNK         0.3000 
    185 H185        1.0393  -11.7367  -51.8796 H         1 UNK         0.0600 
    186 H186        3.4275  -10.9840  -51.8663 H         1 UNK         0.0600 
    187 H187        2.3468   -9.7844  -51.1763 H         1 UNK         0.0600 
    188 H188        3.3496  -10.7636  -50.1186 H         1 UNK         0.0600 
    189 H189        1.8326  -13.7796  -51.7310 H         1 UNK         0.3000 
    190 H190       -1.5430  -22.2903  -46.8703 H         1 UNK         0.3000 
    191 H191       -2.3517  -23.7884  -49.1414 H         1 UNK         0.0600 
    192 H192       -4.6013  -22.9957  -48.5088 H         1 UNK         0.0600 
    193 H193       -3.4361  -21.6993  -48.2640 H         1 UNK         0.0600 
    194 H194       -4.0483  -22.5972  -46.8825 H         1 UNK         0.0600 
    195 H195       -2.1373  -24.6971  -45.7388 H         1 UNK         0.3000 
    196 H196       -3.8062  -27.0888  -46.0129 H         1 UNK         0.0600 
    197 H197       -3.0691  -27.5412  -43.6970 H         1 UNK         0.0600 
    198 H198       -3.6554  -25.8907  -43.8390 H         1 UNK         0.0600 
    199 H199       -1.9248  -26.2091  -43.7605 H         1 UNK         0.0600 
    200 H200       -0.3172  -26.2770  -45.9173 H         1 UNK         0.3000 
    201 H201        0.6609  -28.9494  -46.1336 H         1 UNK         0.0600 
    202 H202        2.0193  -27.0780  -45.2454 H         1 UNK         0.0600 
    203 H203        1.9837  -26.2670  -46.8090 H         1 UNK         0.0600 
    204 H204        2.8260  -27.8020  -46.6292 H         1 UNK         0.0600 
    205 H205        0.0703  -26.3992  -48.5802 H         1 UNK         0.3000 
    206 H206        0.2774  -28.4086  -50.7916 H         1 UNK         0.0600 
    207 H207        2.1316  -26.7614  -50.8709 H         1 UNK         0.0600 
    208 H208        1.0163  -26.4758  -52.1932 H         1 UNK         0.0600 
    209 H209        1.0001  -25.4202  -50.7774 H         1 UNK         0.0600 
    210 H210       -0.8521  -25.3579  -51.7247 H         1 UNK         0.3000 
    211 H211       -3.5775  -25.4243  -50.9332 H         1 UNK         0.0600 
    212 H212       -2.9254  -26.2570  -53.8286 H         1 UNK         0.0600 
    213 H213       -4.5235  -25.8050  -53.2463 H         1 UNK         0.0600 
    214 H214       -3.7536  -27.2592  -52.6383 H         1 UNK         0.0600 
    215 H215       -4.6333  -23.4445  -51.7473 H         1 UNK         0.3000 
    216 H216       -3.2856  -21.6373  -53.5061 H         1 UNK         0.0600 
    217 H217       -3.0333  -19.8193  -51.7003 H         1 UNK         0.0600 
    218 H218       -1.8350  -21.0997  -51.6319 H         1 UNK         0.0600 
    219 H219       -3.1785  -21.0816  -50.4915 H         1 UNK         0.0600 
    220 H220       -4.6778  -20.0630  -54.2101 H         1 UNK         0.3000 
    221 H221       -7.4822  -20.4171  -53.8616 H         1 UNK         0.0600 
    222 H222       -5.8750  -18.1634  -55.1822 H         1 UNK         0.0600 
    223 H223       -6.4834  -19.6152  -55.9776 H         1 UNK         0.0600 
    224 H224       -7.6072  -18.4153  -55.3588 H         1 UNK         0.0600 
    225 H225       -8.6356  -19.8097  -52.1638 H         1 UNK         0.3000 
    226 H226       -9.4652  -18.8267  -50.3736 H         1 UNK         0.0600 
    227 H227       -9.7974  -16.8791  -51.9288 H         1 UNK         0.0600 
    228 H228       -9.5948  -16.3754  -50.2600 H         1 UNK         0.0600 
    229 H229       -8.2619  -16.1987  -51.3912 H         1 UNK         0.0600 
    230 H230       -6.6921  -19.8747  -50.3315 H         1 UNK         0.3000 
    231 H231       -5.0105  -20.2879  -49.0438 H         1 UNK         0.0600 
    232 H232       -5.0381  -19.8354  -46.6000 H         1 UNK         0.0600 
    233 H233       -6.5582  -20.5272  -47.1443 H         1 UNK         0.0600 
    234 H234       -6.4495  -18.8054  -46.7815 H         1 UNK         0.0600 
    235 H235       -5.8650  -16.9055  -48.2551 H         1 UNK         0.3000 
    236 H236       -3.0626  -16.0217  -48.1648 H         1 UNK         0.0600 
    237 H237       -4.7282  -15.1754  -46.5222 H         1 UNK         0.0600 
    238 H238       -4.0744  -13.8660  -47.4915 H         1 UNK         0.0600 
    239 H239       -5.6871  -14.4866  -47.8288 H         1 UNK         0.0600 
    240 H240       -3.0090  -16.9706  -50.4907 H         1 UNK         0.3000 
    241 H241       -4.0158  -15.2970  -52.5848 H         1 UNK         0.0600 
    242 H242       -2.7064  -14.1758  -54.3175 H         1 UNK         0.3800 
    243 H243       -1.2921  -13.3145  -53.7891 H         1 UNK         0.3800 
    244 H244       -3.6160  -17.7956  -52.7620 H         1 UNK         0.0800 
    245 H245       -3.1794  -16.8149  -54.1118 H         1 UNK         0.0800 
    246 H246       -1.4199  -18.4286  -50.8333 H         1 UNK         0.0800 
    247 H247       -0.5764  -16.9098  -51.0125 H         1 UNK         0.0800 
@<TRIPOS>BOND
     1    1    2 1    
     2    1  127 1    
     3    1  128 1    
     4    1  129 1    
     5    2    3 2    
     6    2    4 am   BACKBONE|DICT|INTERRES
     7    4    5 1    
     8    4  130 1    
     9    5    6 1    
    10    5   65 1    
    11    5  131 1    
    12    6    7 1    
    13    6  132 1    
    14    6  133 1    
    15    7    8 1    
    16    8    9 1    
    17    8  134 1    
    18    8  135 1    
    19    9   10 ar   
    20    9   14 ar   
    21   10   11 ar   
    22   10  136 1    
    23   11   12 ar   
    24   11  126 1    
    25   12   13 ar   
    26   12  137 1    
    27   13   14 ar   
    28   13   15 1    
    29   14  138 1    
    30   15   16 1    
    31   15  139 1    
    32   15  140 1    
    33   16   17 1    
    34   17   18 1    
    35   17  141 1    
    36   17  142 1    
    37   18   19 1    
    38   18   67 1    
    39   18  143 1    
    40   19   20 am   BACKBONE|DICT|INTERRES
    41   19  144 1    
    42   20   21 2    
    43   20   22 1    
    44   22   23 1    
    45   22   24 1    
    46   22  145 1    
    47   23  146 1    
    48   23  147 1    
    49   23  148 1    
    50   24   25 am   BACKBONE|DICT|INTERRES
    51   24  149 1    
    52   25   26 2    
    53   25   27 1    
    54   27   28 1    
    55   27   29 1    
    56   27  150 1    
    57   28  151 1    
    58   28  152 1    
    59   28  153 1    
    60   29   30 am   BACKBONE|DICT|INTERRES
    61   29  154 1    
    62   30   31 2    
    63   30   32 1    
    64   32   33 1    
    65   32   34 1    
    66   32  155 1    
    67   33  156 1    
    68   33  157 1    
    69   33  158 1    
    70   34   35 am   BACKBONE|DICT|INTERRES
    71   34  159 1    
    72   35   36 2    
    73   35   37 1    
    74   37   38 1    
    75   37   39 1    
    76   37  160 1    
    77   38  161 1    
    78   38  162 1    
    79   38  163 1    
    80   39   40 am   BACKBONE|DICT|INTERRES
    81   39  164 1    
    82   40   41 2    
    83   40   42 1    
    84   42   43 1    
    85   42   44 1    
    86   42  165 1    
    87   43  166 1    
    88   43  167 1    
    89   43  168 1    
    90   44   45 am   BACKBONE|DICT|INTERRES
    91   44  169 1    
    92   45   46 2    
    93   45   47 1    
    94   47   48 1    
    95   47   49 1    
    96   47  170 1    
    97   48  171 1    
    98   48  172 1    
    99   48  173 1    
   100   49   50 am   BACKBONE|DICT|INTERRES
   101   49  174 1    
   102   50   51 2    
   103   50   52 1    
   104   52   53 1    
   105   52   54 1    
   106   52  175 1    
   107   53  176 1    
   108   53  177 1    
   109   53  178 1    
   110   54   55 am   BACKBONE|DICT|INTERRES
   111   54  179 1    
   112   55   56 2    
   113   55   57 1    
   114   57   58 1    
   115   57   59 1    
   116   57  180 1    
   117   58  181 1    
   118   58  182 1    
   119   58  183 1    
   120   59   60 am   BACKBONE|DICT|INTERRES
   121   59  184 1    
   122   60   61 2    
   123   60   62 1    
   124   62   63 1    
   125   62   64 1    
   126   62  185 1    
   127   63  186 1    
   128   63  187 1    
   129   63  188 1    
   130   64   65 am   BACKBONE|DICT|INTERRES
   131   64  189 1    
   132   65   66 2    
   133   67   68 2    
   134   67   69 am   BACKBONE|DICT|INTERRES
   135   69   70 1    
   136   69  190 1    
   137   70   71 1    
   138   70   72 1    
   139   70  191 1    
   140   71  192 1    
   141   71  193 1    
   142   71  194 1    
   143   72   73 2    
   144   72   74 am   BACKBONE|DICT|INTERRES
   145   74   75 1    
   146   74  195 1    
   147   75   76 1    
   148   75   77 1    
   149   75  196 1    
   150   76  197 1    
   151   76  198 1    
   152   76  199 1    
   153   77   78 2    
   154   77   79 am   BACKBONE|DICT|INTERRES
   155   79   80 1    
   156   79  200 1    
   157   80   81 1    
   158   80   82 1    
   159   80  201 1    
   160   81  202 1    
   161   81  203 1    
   162   81  204 1    
   163   82   83 2    
   164   82   84 am   BACKBONE|DICT|INTERRES
   165   84   85 1    
   166   84  205 1    
   167   85   86 1    
   168   85   87 1    
   169   85  206 1    
   170   86  207 1    
   171   86  208 1    
   172   86  209 1    
   173   87   88 2    
   174   87   89 am   BACKBONE|DICT|INTERRES
   175   89   90 1    
   176   89  210 1    
   177   90   91 1    
   178   90   92 1    
   179   90  211 1    
   180   91  212 1    
   181   91  213 1    
   182   91  214 1    
   183   92   93 2    
   184   92   94 am   BACKBONE|DICT|INTERRES
   185   94   95 1    
   186   94  215 1    
   187   95   96 1    
   188   95   97 1    
   189   95  216 1    
   190   96  217 1    
   191   96  218 1    
   192   96  219 1    
   193   97   98 2    
   194   97   99 am   BACKBONE|DICT|INTERRES
   195   99  100 1    
   196   99  220 1    
   197  100  101 1    
   198  100  102 1    
   199  100  221 1    
   200  101  222 1    
   201  101  223 1    
   202  101  224 1    
   203  102  103 2    
   204  102  104 am   BACKBONE|DICT|INTERRES
   205  104  105 1    
   206  104  225 1    
   207  105  106 1    
   208  105  107 1    
   209  105  226 1    
   210  106  227 1    
   211  106  228 1    
   212  106  229 1    
   213  107  108 2    
   214  107  109 am   BACKBONE|DICT|INTERRES
   215  109  110 1    
   216  109  230 1    
   217  110  111 1    
   218  110  112 1    
   219  110  231 1    
   220  111  232 1    
   221  111  233 1    
   222  111  234 1    
   223  112  113 2    
   224  112  114 am   BACKBONE|DICT|INTERRES
   225  114  115 1    
   226  114  235 1    
   227  115  116 1    
   228  115  117 1    
   229  115  236 1    
   230  116  237 1    
   231  116  238 1    
   232  116  239 1    
   233  117  118 2    
   234  117  119 am   BACKBONE|DICT|INTERRES
   235  119  120 1    
   236  119  240 1    
   237  120  121 1    
   238  120  124 1    
   239  120  241 1    
   240  121  122 am   BACKBONE|DICT|INTERRES
   241  121  123 2    
   242  122  242 1    
   243  122  243 1    
   244  124  125 1    
   245  124  244 1    
   246  124  245 1    
   247  125  126 1    
   248  126  246 1    
   249  126  247 1    
@<TRIPOS>SUBSTRUCTURE
     1 UNK         1 GROUP             0       ****    0 ROOT    
