@<TRIPOS>MOLECULE
3R540
247   249    1
SMALL
USER_CHARGES


@<TRIPOS>ATOM
      1 CA          1.2979  -12.8580  -52.6208 C.3       0 UNK        -0.1800 
      2 C           1.3141  -13.5486  -51.2641 C.2       0 UNK         0.5000 
      3 O           2.0937  -14.4794  -51.0607 O.2       0 UNK        -0.5000 
      4 N           0.4508  -13.1034  -50.3433 N.am      1 UNK        -0.5000 
      5 CA          0.3444  -13.6279  -48.9796 C.3       1 UNK         0.1400 
      6 C6         -1.0073  -13.2337  -48.3282 C.3       23 UNK        -0.0398 
      7 S7         -1.5682  -14.4799  -47.1178 S.3       23 UNK        -0.2404 
      8 C8         -2.9047  -15.3168  -48.0303 C.3       23 UNK        -0.0205 
      9 C9         -2.3804  -16.1810  -49.1694 C.ar      23 UNK        -0.0193 
     10 C10        -2.2178  -15.6402  -50.4495 C.ar      23 UNK        -0.1150 
     11 C11        -1.7624  -16.4344  -51.5042 C.ar      23 UNK        -0.0193 
     12 C12        -1.4807  -17.7824  -51.2777 C.ar      23 UNK        -0.1150 
     13 C13        -1.6611  -18.3415  -50.0109 C.ar      23 UNK        -0.0193 
     14 C14        -2.1000  -17.5349  -48.9557 C.ar      23 UNK        -0.1150 
     15 C15        -1.4452  -19.8312  -49.8166 C.3       23 UNK        -0.0205 
     16 S16         0.2541  -20.2364  -49.3172 S.3       23 UNK        -0.2404 
     17 C17         0.1236  -20.2358  -47.5023 C.3       23 UNK        -0.0398 
     18 CA         -0.1510  -21.6427  -46.9064 C.3       11 UNK         0.1400 
     19 N           0.3430  -21.7568  -45.5313 N.am      11 UNK        -0.5000 
     20 C           0.3514  -22.8799  -44.7975 C.2       10 UNK         0.5000 
     21 O           0.0025  -23.9799  -45.2247 O.2       10 UNK        -0.5000 
     22 CA          0.7724  -22.7402  -43.3212 C.3       10 UNK         0.1400 
     23 CB          2.3016  -22.7336  -43.1834 C.3       10 UNK        -0.1800 
     24 N           0.2138  -21.5434  -42.6880 N.am      10 UNK        -0.5000 
     25 C          -1.0977  -21.3225  -42.5140 C.2       9 UNK         0.5000 
     26 O          -1.9734  -22.1326  -42.8122 O.2       9 UNK        -0.5000 
     27 CA         -1.5058  -19.9400  -41.9793 C.3       9 UNK         0.1400 
     28 CB         -1.3996  -19.8802  -40.4482 C.3       9 UNK        -0.1800 
     29 N          -0.7094  -18.8706  -42.5785 N.am      9 UNK        -0.5000 
     30 C          -0.7672  -18.5201  -43.8712 C.2       8 UNK         0.5000 
     31 O          -1.5306  -19.0344  -44.6893 O.2       8 UNK        -0.5000 
     32 CA          0.2362  -17.4509  -44.3327 C.3       8 UNK         0.1400 
     33 CB         -0.2843  -16.0495  -43.9881 C.3       8 UNK        -0.1800 
     34 N           1.5627  -17.6502  -43.7422 N.am      8 UNK        -0.5000 
     35 C           2.3684  -18.6800  -44.0496 C.2       7 UNK         0.5000 
     36 O           2.0801  -19.5347  -44.8839 O.2       7 UNK        -0.5000 
     37 CA          3.6921  -18.8228  -43.2718 C.3       7 UNK         0.1400 
     38 CB          4.8347  -18.1089  -44.0079 C.3       7 UNK        -0.1800 
     39 N           3.6194  -18.3222  -41.9019 N.am      7 UNK        -0.5000 
     40 C           2.7723  -18.7597  -40.9606 C.2       6 UNK         0.5000 
     41 O           2.0214  -19.7231  -41.1178 O.2       6 UNK        -0.5000 
     42 CA          2.7136  -17.9509  -39.6484 C.3       6 UNK         0.1400 
     43 CB          3.4718  -18.6856  -38.5332 C.3       6 UNK        -0.1800 
     44 N           3.2310  -16.5791  -39.7577 N.am      6 UNK        -0.5000 
     45 C           2.7423  -15.6241  -40.5622 C.2       5 UNK         0.5000 
     46 O           1.8148  -15.8066  -41.3542 O.2       5 UNK        -0.5000 
     47 CA          3.4699  -14.2682  -40.5290 C.3       5 UNK         0.1400 
     48 CB          4.5972  -14.2450  -41.5705 C.3       5 UNK        -0.1800 
     49 N           2.5599  -13.1540  -40.7893 N.am      5 UNK        -0.5000 
     50 C           1.6397  -12.7184  -39.9180 C.2       4 UNK         0.5000 
     51 O           1.4969  -13.1915  -38.7891 O.2       4 UNK        -0.5000 
     52 CA          0.7420  -11.5433  -40.3524 C.3       4 UNK         0.1400 
     53 CB          1.2076  -10.2386  -39.6864 C.3       4 UNK        -0.1800 
     54 N           0.6883  -11.3350  -41.7998 N.am      4 UNK        -0.5000 
     55 C           0.0217  -12.1123  -42.6625 C.2       3 UNK         0.5000 
     56 O          -0.6000  -13.1214  -42.3312 O.2       3 UNK        -0.5000 
     57 CA          0.0129  -11.6766  -44.1412 C.3       3 UNK         0.1400 
     58 CB          0.3768  -10.1912  -44.3640 C.3       3 UNK        -0.1800 
     59 N           0.8419  -12.5356  -44.9876 N.am      3 UNK        -0.5000 
     60 C           2.1629  -12.7588  -44.9001 C.2       2 UNK         0.5000 
     61 O           2.8727  -12.3160  -43.9957 O.2       2 UNK        -0.5000 
     62 CA          2.8057  -13.6105  -46.0209 C.3       2 UNK         0.1400 
     63 CB          3.4252  -14.8982  -45.4604 C.3       2 UNK        -0.1800 
     64 N           1.8563  -13.9642  -47.0822 N.am      2 UNK        -0.5000 
     65 C           1.5237  -13.1600  -48.1005 C.2       1 UNK         0.5000 
     66 O           2.0541  -12.0660  -48.3100 O.2       1 UNK        -0.5000 
     67 C          -1.6454  -22.0158  -46.9991 C.2       11 UNK         0.5000 
     68 O          -2.0236  -22.8302  -47.8434 O.2       11 UNK        -0.5000 
     69 N          -2.4628  -21.4328  -46.1097 N.am      12 UNK        -0.5000 
     70 CA         -3.8975  -21.6951  -45.9975 C.3       12 UNK         0.1400 
     71 CB         -4.5206  -20.7310  -44.9778 C.3       12 UNK        -0.1800 
     72 C          -4.2091  -23.1596  -45.6401 C.2       12 UNK         0.5000 
     73 O          -5.0620  -23.7681  -46.2878 O.2       12 UNK        -0.5000 
     74 N          -3.4748  -23.7108  -44.6617 N.am      13 UNK        -0.5000 
     75 CA         -3.5662  -25.1021  -44.2073 C.3       13 UNK         0.1400 
     76 CB         -2.6801  -25.2952  -42.9678 C.3       13 UNK        -0.1800 
     77 C          -3.2076  -26.1383  -45.2898 C.2       13 UNK         0.5000 
     78 O          -3.7319  -27.2514  -45.2563 O.2       13 UNK        -0.5000 
     79 N          -2.3745  -25.7438  -46.2616 N.am      14 UNK        -0.5000 
     80 CA         -2.0320  -26.5126  -47.4601 C.3       14 UNK         0.1400 
     81 CB         -0.6340  -26.0824  -47.9404 C.3       14 UNK        -0.1800 
     82 C          -3.0939  -26.3860  -48.5779 C.2       14 UNK         0.5000 
     83 O          -2.7544  -26.5239  -49.7536 O.2       14 UNK        -0.5000 
     84 N          -4.3525  -26.1055  -48.2058 N.am      15 UNK        -0.5000 
     85 CA         -5.5189  -25.8890  -49.0679 C.3       15 UNK         0.1400 
     86 CB         -5.9066  -27.1896  -49.8026 C.3       15 UNK        -0.1800 
     87 C          -5.3148  -24.6945  -50.0182 C.2       15 UNK         0.5000 
     88 O          -5.5577  -24.8099  -51.2202 O.2       15 UNK        -0.5000 
     89 N          -4.8178  -23.5822  -49.4562 N.am      16 UNK        -0.5000 
     90 CA         -4.3857  -22.3661  -50.1557 C.3       16 UNK         0.1400 
     91 CB         -5.5944  -21.6126  -50.7476 C.3       16 UNK        -0.1800 
     92 C          -3.2894  -22.6691  -51.1991 C.2       16 UNK         0.5000 
     93 O          -3.4089  -22.2654  -52.3572 O.2       16 UNK        -0.5000 
     94 N          -2.2684  -23.4200  -50.7571 N.am      17 UNK        -0.5000 
     95 CA         -1.1694  -23.9944  -51.5426 C.3       17 UNK         0.1400 
     96 CB         -0.1337  -22.9130  -51.9029 C.3       17 UNK        -0.1800 
     97 C          -1.6662  -24.8015  -52.7608 C.2       17 UNK         0.5000 
     98 O          -1.2560  -24.5404  -53.8933 O.2       17 UNK        -0.5000 
     99 N          -2.5685  -25.7544  -52.4849 N.am      18 UNK        -0.5000 
    100 CA        -3.2822  -26.6107  -53.4365 C.3       18 UNK         0.1400 
    101 CB        -2.3168  -27.6314  -54.0740 C.3       18 UNK        -0.1800 
    102 C         -4.0870  -25.7989  -54.4747 C.2       18 UNK         0.5000 
    103 O         -3.9958  -26.0648  -55.6748 O.2       18 UNK        -0.5000 
    104 N         -4.8544  -24.8196  -53.9737 N.am      19 UNK        -0.5000 
    105 CA        -5.6776  -23.8552  -54.7057 C.3       19 UNK         0.1400 
    106 CB        -6.8887  -24.5586  -55.3522 C.3       19 UNK        -0.1800 
    107 C         -4.8540  -23.0223  -55.7091 C.2       19 UNK         0.5000 
    108 O         -5.0489  -23.1380  -56.9210 O.2       19 UNK        -0.5000 
    109 N         -3.9355  -22.2029  -55.1768 N.am      20 UNK        -0.5000 
    110 CA        -3.0177  -21.3452  -55.9361 C.3       20 UNK         0.1400 
    111 CB        -2.0650  -20.6389  -54.9595 C.3       20 UNK        -0.1800 
    112 C         -3.7046  -20.3104  -56.8515 C.2       20 UNK         0.5000 
    113 O         -3.1352  -19.9567  -57.8849 O.2       20 UNK        -0.5000 
    114 N         -4.9096  -19.8617  -56.4632 N.am      21 UNK        -0.5000 
    115 CA        -5.8005  -18.9589  -57.2054 C.3       21 UNK         0.1400 
    116 CB        -6.3458  -19.6589  -58.4680 C.3       21 UNK        -0.1800 
    117 C         -5.1733  -17.5785  -57.5030 C.2       21 UNK         0.5000 
    118 O         -5.3586  -17.0277  -58.5899 O.2       21 UNK        -0.5000 
    119 N         -4.4390  -17.0466  -56.5193 N.am      22 UNK        -0.5000 
    120 CA        -3.7662  -15.7371  -56.5613 C.3       22 UNK         0.1400 
    121 C         -4.7065  -14.4958  -56.4819 C.2       22 UNK         0.5000 
    122 N         -5.9890  -14.6454  -56.1728 N.am      22 UNK        -0.7600 
    123 O         -4.2644  -13.3750  -56.7200 O.2       22 UNK        -0.5000 
    124 C124       -2.6215  -15.6611  -55.5166 C.3       23 UNK        -0.0398 
    125 S125       -3.1712  -16.0455  -53.8187 S.3       23 UNK        -0.2404 
    126 C126       -1.6167  -15.8552  -52.9000 C.3       23 UNK        -0.0205 
    127 H127        0.5402  -12.0754  -52.6690 H         1 UNK         0.0600 
    128 H128        1.0876  -13.5825  -53.4076 H         1 UNK         0.0600 
    129 H129        2.2685  -12.4052  -52.8229 H         1 UNK         0.0600 
    130 H130       -0.1284  -12.3042  -50.5557 H         1 UNK         0.3000 
    131 H131        0.3907  -14.7170  -49.0590 H         1 UNK         0.0600 
    132 H132       -0.9520  -12.2601  -47.8366 H         1 UNK         0.0800 
    133 H133       -1.7823  -13.1145  -49.0844 H         1 UNK         0.0800 
    134 H134       -3.4664  -15.9361  -47.3294 H         1 UNK         0.0800 
    135 H135       -3.6124  -14.5777  -48.4088 H         1 UNK         0.0800 
    136 H136       -2.4613  -14.6047  -50.6360 H         1 UNK         0.1150 
    137 H137       -1.1516  -18.4055  -52.0979 H         1 UNK         0.1150 
    138 H138       -2.2495  -17.9639  -47.9748 H         1 UNK         0.1150 
    139 H139       -2.1629  -20.2165  -49.0948 H         1 UNK         0.0800 
    140 H140       -1.6518  -20.3476  -50.7541 H         1 UNK         0.0800 
    141 H141       -0.6037  -19.4951  -47.1689 H         1 UNK         0.0800 
    142 H142        1.0892  -19.8721  -47.1555 H         1 UNK         0.0800 
    143 H143        0.4050  -22.3788  -47.4911 H         1 UNK         0.0600 
    144 H144        0.7195  -20.9086  -45.1192 H         1 UNK         0.3000 
    145 H145        0.3886  -23.6083  -42.7816 H         1 UNK         0.0600 
    146 H146        2.7292  -23.6605  -43.5674 H         1 UNK         0.0600 
    147 H147        2.7534  -21.9123  -43.7384 H         1 UNK         0.0600 
    148 H148        2.6051  -22.6413  -42.1403 H         1 UNK         0.0600 
    149 H149        0.8704  -20.8401  -42.3654 H         1 UNK         0.3000 
    150 H150       -2.5503  -19.7731  -42.2509 H         1 UNK         0.0600 
    151 H151       -1.7244  -18.9116  -40.0679 H         1 UNK         0.0600 
    152 H152       -0.3809  -20.0523  -40.1015 H         1 UNK         0.0600 
    153 H153       -2.0329  -20.6390  -39.9869 H         1 UNK         0.0600 
    154 H154       -0.0207  -18.4284  -41.9876 H         1 UNK         0.3000 
    155 H155        0.3278  -17.5221  -45.4188 H         1 UNK         0.0600 
    156 H156       -0.3812  -15.9066  -42.9115 H         1 UNK         0.0600 
    157 H157       -1.2681  -15.8792  -44.4265 H         1 UNK         0.0600 
    158 H158        0.3782  -15.2742  -44.3674 H         1 UNK         0.0600 
    159 H159        1.8314  -17.0075  -43.0036 H         1 UNK         0.3000 
    160 H160        3.9312  -19.8864  -43.2225 H         1 UNK         0.0600 
    161 H161        4.8981  -18.4358  -45.0468 H         1 UNK         0.0600 
    162 H162        5.7966  -18.3232  -43.5419 H         1 UNK         0.0600 
    163 H163        4.6985  -17.0277  -44.0096 H         1 UNK         0.0600 
    164 H164        4.2012  -17.5291  -41.6790 H         1 UNK         0.3000 
    165 H165        1.6622  -17.8845  -39.3616 H         1 UNK         0.0600 
    166 H166        3.3582  -18.1763  -37.5760 H         1 UNK         0.0600 
    167 H167        3.0928  -19.7007  -38.4054 H         1 UNK         0.0600 
    168 H168        4.5378  -18.7585  -38.7521 H         1 UNK         0.0600 
    169 H169        4.0090  -16.3524  -39.1547 H         1 UNK         0.3000 
    170 H170        3.9107  -14.1286  -39.5395 H         1 UNK         0.0600 
    171 H171        5.1339  -13.2963  -41.5521 H         1 UNK         0.0600 
    172 H172        5.3254  -15.0350  -41.3830 H         1 UNK         0.0600 
    173 H173        4.2071  -14.3886  -42.5768 H         1 UNK         0.0600 
    174 H174        2.5865  -12.7478  -41.7161 H         1 UNK         0.3000 
    175 H175       -0.2687  -11.7612  -40.0007 H         1 UNK         0.0600 
    176 H176        2.2112   -9.9585  -40.0091 H         1 UNK         0.0600 
    177 H177        0.5354   -9.4132  -39.9216 H         1 UNK         0.0600 
    178 H178        1.2281  -10.3386  -38.6003 H         1 UNK         0.0600 
    179 H179        1.1919  -10.5384  -42.1621 H         1 UNK         0.3000 
    180 H180       -1.0136  -11.8116  -44.4860 H         1 UNK         0.0600 
    181 H181        0.2367   -9.9119  -45.4084 H         1 UNK         0.0600 
    182 H182        1.4130   -9.9722  -44.1043 H         1 UNK         0.0600 
    183 H183       -0.2619   -9.5361  -43.7701 H         1 UNK         0.0600 
    184 H184        0.3484  -12.9999  -45.7352 H         1 UNK         0.3000 
    185 H185        3.6128  -13.0171  -46.4555 H         1 UNK         0.0600 
    186 H186        2.7159  -15.4564  -44.8524 H         1 UNK         0.0600 
    187 H187        3.7764  -15.5536  -46.2576 H         1 UNK         0.0600 
    188 H188        4.2879  -14.6672  -44.8365 H         1 UNK         0.0600 
    189 H189        1.3724  -14.8446  -46.9761 H         1 UNK         0.3000 
    190 H190       -2.0779  -20.7459  -45.4671 H         1 UNK         0.3000 
    191 H191       -4.3475  -21.4887  -46.9702 H         1 UNK         0.0600 
    192 H192       -4.0992  -20.8674  -43.9819 H         1 UNK         0.0600 
    193 H193       -5.5977  -20.8846  -44.9029 H         1 UNK         0.0600 
    194 H194       -4.3588  -19.6927  -45.2683 H         1 UNK         0.0600 
    195 H195       -2.8197  -23.1197  -44.1545 H         1 UNK         0.3000 
    196 H196       -4.6025  -25.2834  -43.9156 H         1 UNK         0.0600 
    197 H197       -2.7426  -26.3186  -42.5959 H         1 UNK         0.0600 
    198 H198       -2.9883  -24.6363  -42.1559 H         1 UNK         0.0600 
    199 H199       -1.6327  -25.0887  -43.1887 H         1 UNK         0.0600 
    200 H200       -1.9741  -24.8158  -46.1996 H         1 UNK         0.3000 
    201 H201       -1.9790  -27.5703  -47.1956 H         1 UNK         0.0600 
    202 H202        0.1049  -26.1913  -47.1463 H         1 UNK         0.0600 
    203 H203       -0.6205  -25.0424  -48.2657 H         1 UNK         0.0600 
    204 H204       -0.2978  -26.6939  -48.7785 H         1 UNK         0.0600 
    205 H205       -4.5205  -25.9692  -47.2184 H         1 UNK         0.3000 
    206 H206       -6.3460  -25.6202  -48.4093 H         1 UNK         0.0600 
    207 H207       -6.8356  -27.0603  -50.3590 H         1 UNK         0.0600 
    208 H208       -5.1415  -27.5003  -50.5143 H         1 UNK         0.0600 
    209 H209       -6.0614  -28.0076  -49.0991 H         1 UNK         0.0600 
    210 H210       -4.6401  -23.6079  -48.4592 H         1 UNK         0.3000 
    211 H211       -3.9344  -21.7183  -49.4056 H         1 UNK         0.0600 
    212 H212       -6.0861  -22.1839  -51.5352 H         1 UNK         0.0600 
    213 H213       -5.2847  -20.6603  -51.1799 H         1 UNK         0.0600 
    214 H214       -6.3360  -21.3943  -49.9794 H         1 UNK         0.0600 
    215 H215       -2.2635  -23.6489  -49.7694 H         1 UNK         0.3000 
    216 H216       -0.6703  -24.7157  -50.8940 H         1 UNK         0.0600 
    217 H217        0.6508  -23.3103  -52.5477 H         1 UNK         0.0600 
    218 H218        0.3567  -22.5402  -51.0060 H         1 UNK         0.0600 
    219 H219       -0.5879  -22.0662  -52.4148 H         1 UNK         0.0600 
    220 H220       -2.7999  -25.9096  -51.5053 H         1 UNK         0.3000 
    221 H221       -4.0144  -27.1701  -52.8525 H         1 UNK         0.0600 
    222 H222       -1.5699  -27.1457  -54.7026 H         1 UNK         0.0600 
    223 H223       -1.7910  -28.2049  -53.3106 H         1 UNK         0.0600 
    224 H224       -2.8579  -28.3430  -54.6985 H         1 UNK         0.0600 
    225 H225       -4.8831  -24.7184  -52.9611 H         1 UNK         0.3000 
    226 H226       -6.0641  -23.1567  -53.9620 H         1 UNK         0.0600 
    227 H227       -7.4815  -25.0853  -54.6044 H         1 UNK         0.0600 
    228 H228       -7.5452  -23.8351  -55.8369 H         1 UNK         0.0600 
    229 H229       -6.5850  -25.2824  -56.1091 H         1 UNK         0.0600 
    230 H230       -3.8019  -22.2127  -54.1664 H         1 UNK         0.3000 
    231 H231       -2.4226  -21.9978  -56.5779 H         1 UNK         0.0600 
    232 H232       -2.6076  -20.0393  -54.2274 H         1 UNK         0.0600 
    233 H233       -1.4608  -21.3653  -54.4182 H         1 UNK         0.0600 
    234 H234       -1.3779  -19.9755  -55.4865 H         1 UNK         0.0600 
    235 H235       -5.2699  -20.2109  -55.5867 H         1 UNK         0.3000 
    236 H236       -6.6505  -18.7652  -56.5498 H         1 UNK         0.0600 
    237 H237       -5.5600  -19.8397  -59.2020 H         1 UNK         0.0600 
    238 H238       -6.7990  -20.6191  -58.2209 H         1 UNK         0.0600 
    239 H239       -7.1132  -19.0536  -58.9519 H         1 UNK         0.0600 
    240 H240       -4.3410  -17.5583  -55.6544 H         1 UNK         0.3000 
    241 H241       -3.2933  -15.6640  -57.5426 H         1 UNK         0.0600 
    242 H242       -6.5878  -13.8356  -56.1309 H         1 UNK         0.3800 
    243 H243       -6.3638  -15.5574  -55.9684 H         1 UNK         0.3800 
    244 H244       -1.8424  -16.3750  -55.7876 H         1 UNK         0.0800 
    245 H245       -2.1423  -14.6804  -55.5281 H         1 UNK         0.0800 
    246 H246       -1.3475  -14.7991  -52.8494 H         1 UNK         0.0800 
    247 H247       -0.8072  -16.3600  -53.4298 H         1 UNK         0.0800 
@<TRIPOS>BOND
     1    1    2 1    
     2    1  127 1    
     3    1  128 1    
     4    1  129 1    
     5    2    3 2    
     6    2    4 am   BACKBONE|DICT|INTERRES
     7    4    5 1    
     8    4  130 1    
     9    5    6 1    
    10    5   65 1    
    11    5  131 1    
    12    6    7 1    
    13    6  132 1    
    14    6  133 1    
    15    7    8 1    
    16    8    9 1    
    17    8  134 1    
    18    8  135 1    
    19    9   10 ar   
    20    9   14 ar   
    21   10   11 ar   
    22   10  136 1    
    23   11   12 ar   
    24   11  126 1    
    25   12   13 ar   
    26   12  137 1    
    27   13   14 ar   
    28   13   15 1    
    29   14  138 1    
    30   15   16 1    
    31   15  139 1    
    32   15  140 1    
    33   16   17 1    
    34   17   18 1    
    35   17  141 1    
    36   17  142 1    
    37   18   19 1    
    38   18   67 1    
    39   18  143 1    
    40   19   20 am   BACKBONE|DICT|INTERRES
    41   19  144 1    
    42   20   21 2    
    43   20   22 1    
    44   22   23 1    
    45   22   24 1    
    46   22  145 1    
    47   23  146 1    
    48   23  147 1    
    49   23  148 1    
    50   24   25 am   BACKBONE|DICT|INTERRES
    51   24  149 1    
    52   25   26 2    
    53   25   27 1    
    54   27   28 1    
    55   27   29 1    
    56   27  150 1    
    57   28  151 1    
    58   28  152 1    
    59   28  153 1    
    60   29   30 am   BACKBONE|DICT|INTERRES
    61   29  154 1    
    62   30   31 2    
    63   30   32 1    
    64   32   33 1    
    65   32   34 1    
    66   32  155 1    
    67   33  156 1    
    68   33  157 1    
    69   33  158 1    
    70   34   35 am   BACKBONE|DICT|INTERRES
    71   34  159 1    
    72   35   36 2    
    73   35   37 1    
    74   37   38 1    
    75   37   39 1    
    76   37  160 1    
    77   38  161 1    
    78   38  162 1    
    79   38  163 1    
    80   39   40 am   BACKBONE|DICT|INTERRES
    81   39  164 1    
    82   40   41 2    
    83   40   42 1    
    84   42   43 1    
    85   42   44 1    
    86   42  165 1    
    87   43  166 1    
    88   43  167 1    
    89   43  168 1    
    90   44   45 am   BACKBONE|DICT|INTERRES
    91   44  169 1    
    92   45   46 2    
    93   45   47 1    
    94   47   48 1    
    95   47   49 1    
    96   47  170 1    
    97   48  171 1    
    98   48  172 1    
    99   48  173 1    
   100   49   50 am   BACKBONE|DICT|INTERRES
   101   49  174 1    
   102   50   51 2    
   103   50   52 1    
   104   52   53 1    
   105   52   54 1    
   106   52  175 1    
   107   53  176 1    
   108   53  177 1    
   109   53  178 1    
   110   54   55 am   BACKBONE|DICT|INTERRES
   111   54  179 1    
   112   55   56 2    
   113   55   57 1    
   114   57   58 1    
   115   57   59 1    
   116   57  180 1    
   117   58  181 1    
   118   58  182 1    
   119   58  183 1    
   120   59   60 am   BACKBONE|DICT|INTERRES
   121   59  184 1    
   122   60   61 2    
   123   60   62 1    
   124   62   63 1    
   125   62   64 1    
   126   62  185 1    
   127   63  186 1    
   128   63  187 1    
   129   63  188 1    
   130   64   65 am   BACKBONE|DICT|INTERRES
   131   64  189 1    
   132   65   66 2    
   133   67   68 2    
   134   67   69 am   BACKBONE|DICT|INTERRES
   135   69   70 1    
   136   69  190 1    
   137   70   71 1    
   138   70   72 1    
   139   70  191 1    
   140   71  192 1    
   141   71  193 1    
   142   71  194 1    
   143   72   73 2    
   144   72   74 am   BACKBONE|DICT|INTERRES
   145   74   75 1    
   146   74  195 1    
   147   75   76 1    
   148   75   77 1    
   149   75  196 1    
   150   76  197 1    
   151   76  198 1    
   152   76  199 1    
   153   77   78 2    
   154   77   79 am   BACKBONE|DICT|INTERRES
   155   79   80 1    
   156   79  200 1    
   157   80   81 1    
   158   80   82 1    
   159   80  201 1    
   160   81  202 1    
   161   81  203 1    
   162   81  204 1    
   163   82   83 2    
   164   82   84 am   BACKBONE|DICT|INTERRES
   165   84   85 1    
   166   84  205 1    
   167   85   86 1    
   168   85   87 1    
   169   85  206 1    
   170   86  207 1    
   171   86  208 1    
   172   86  209 1    
   173   87   88 2    
   174   87   89 am   BACKBONE|DICT|INTERRES
   175   89   90 1    
   176   89  210 1    
   177   90   91 1    
   178   90   92 1    
   179   90  211 1    
   180   91  212 1    
   181   91  213 1    
   182   91  214 1    
   183   92   93 2    
   184   92   94 am   BACKBONE|DICT|INTERRES
   185   94   95 1    
   186   94  215 1    
   187   95   96 1    
   188   95   97 1    
   189   95  216 1    
   190   96  217 1    
   191   96  218 1    
   192   96  219 1    
   193   97   98 2    
   194   97   99 am   BACKBONE|DICT|INTERRES
   195   99  100 1    
   196   99  220 1    
   197  100  101 1    
   198  100  102 1    
   199  100  221 1    
   200  101  222 1    
   201  101  223 1    
   202  101  224 1    
   203  102  103 2    
   204  102  104 am   BACKBONE|DICT|INTERRES
   205  104  105 1    
   206  104  225 1    
   207  105  106 1    
   208  105  107 1    
   209  105  226 1    
   210  106  227 1    
   211  106  228 1    
   212  106  229 1    
   213  107  108 2    
   214  107  109 am   BACKBONE|DICT|INTERRES
   215  109  110 1    
   216  109  230 1    
   217  110  111 1    
   218  110  112 1    
   219  110  231 1    
   220  111  232 1    
   221  111  233 1    
   222  111  234 1    
   223  112  113 2    
   224  112  114 am   BACKBONE|DICT|INTERRES
   225  114  115 1    
   226  114  235 1    
   227  115  116 1    
   228  115  117 1    
   229  115  236 1    
   230  116  237 1    
   231  116  238 1    
   232  116  239 1    
   233  117  118 2    
   234  117  119 am   BACKBONE|DICT|INTERRES
   235  119  120 1    
   236  119  240 1    
   237  120  121 1    
   238  120  124 1    
   239  120  241 1    
   240  121  122 am   BACKBONE|DICT|INTERRES
   241  121  123 2    
   242  122  242 1    
   243  122  243 1    
   244  124  125 1    
   245  124  244 1    
   246  124  245 1    
   247  125  126 1    
   248  126  246 1    
   249  126  247 1    
@<TRIPOS>SUBSTRUCTURE
     1 UNK         1 GROUP             0       ****    0 ROOT    
