@<TRIPOS>MOLECULE
3R540
247   249    1
SMALL
USER_CHARGES


@<TRIPOS>ATOM
      1 CA          1.1165  -11.6462  -47.1347 C.3       0 UNK        -0.1800 
      2 C           2.5328  -12.1959  -47.0517 C.2       0 UNK         0.5000 
      3 O           3.4830  -11.4204  -46.9509 O.2       0 UNK        -0.5000 
      4 N           2.6769  -13.5278  -47.0868 N.am      1 UNK        -0.5000 
      5 CA          3.9580  -14.2463  -47.1556 C.3       1 UNK         0.1400 
      6 C6          3.7428  -15.7571  -47.4244 C.3       23 UNK        -0.0398 
      7 S7          5.1891  -16.5359  -48.2197 S.3       23 UNK        -0.2404 
      8 C8          4.6327  -16.6919  -49.9492 C.3       23 UNK        -0.0205 
      9 C9          3.5585  -17.7579  -50.1143 C.ar      23 UNK        -0.0193 
     10 C10         2.2834  -17.4202  -50.5800 C.ar      23 UNK        -0.1150 
     11 C11         1.2969  -18.4016  -50.7244 C.ar      23 UNK        -0.0193 
     12 C12         1.5920  -19.7252  -50.3841 C.ar      23 UNK        -0.1150 
     13 C13         2.8647  -20.0757  -49.9239 C.ar      23 UNK        -0.0193 
     14 C14         3.8461  -19.0899  -49.8054 C.ar      23 UNK        -0.1150 
     15 C15         3.1798  -21.5161  -49.5467 C.3       23 UNK        -0.0205 
     16 S16         3.5277  -21.7207  -47.7651 S.3       23 UNK        -0.2404 
     17 C17         2.0232  -21.0442  -46.9786 C.3       23 UNK        -0.0398 
     18 CA          0.9660  -22.1130  -46.6170 C.3       11 UNK         0.1400 
     19 N          -0.0542  -21.5699  -45.7171 N.am      11 UNK        -0.5000 
     20 C          -1.0214  -22.2881  -45.1289 C.2       10 UNK         0.5000 
     21 O          -1.1272  -23.5104  -45.2316 O.2       10 UNK        -0.5000 
     22 CA         -2.0745  -21.5019  -44.3284 C.3       10 UNK         0.1400 
     23 CB         -1.5378  -21.1369  -42.9365 C.3       10 UNK        -0.1800 
     24 N          -2.5198  -20.2920  -45.0227 N.am      10 UNK        -0.5000 
     25 C          -3.1815  -20.2908  -46.1889 C.2       9 UNK         0.5000 
     26 O          -3.5311  -21.3143  -46.7742 O.2       9 UNK        -0.5000 
     27 CA         -3.4642  -18.9248  -46.8388 C.3       9 UNK         0.1400 
     28 CB         -4.7113  -18.2691  -46.2292 C.3       9 UNK        -0.1800 
     29 N          -2.3299  -18.0059  -46.7639 N.am      9 UNK        -0.5000 
     30 C          -1.1378  -18.2256  -47.3363 C.2       8 UNK         0.5000 
     31 O          -0.8672  -19.2310  -47.9906 O.2       8 UNK        -0.5000 
     32 CA         -0.0461  -17.1716  -47.0844 C.3       8 UNK         0.1400 
     33 CB         -0.2781  -15.9176  -47.9415 C.3       8 UNK        -0.1800 
     34 N           0.0311  -16.7974  -45.6723 N.am      8 UNK        -0.5000 
     35 C           0.3671  -17.6420  -44.6860 C.2       7 UNK         0.5000 
     36 O           0.7116  -18.8100  -44.8669 O.2       7 UNK        -0.5000 
     37 CA          0.2451  -17.0997  -43.2531 C.3       7 UNK         0.1400 
     38 CB          1.4714  -16.2536  -42.8857 C.3       7 UNK        -0.1800 
     39 N          -0.9712  -16.3074  -43.0702 N.am      7 UNK        -0.5000 
     40 C          -2.2105  -16.8206  -43.0762 C.2       6 UNK         0.5000 
     41 O          -2.4534  -18.0184  -43.2129 O.2       6 UNK        -0.5000 
     42 CA         -3.3776  -15.8243  -42.9541 C.3       6 UNK         0.1400 
     43 CB         -3.6802  -15.5260  -41.4783 C.3       6 UNK        -0.1800 
     44 N          -3.1285  -14.5677  -43.6603 N.am      6 UNK        -0.5000 
     45 C          -2.9485  -14.4558  -44.9842 C.2       5 UNK         0.5000 
     46 O          -3.0092  -15.4054  -45.7636 O.2       5 UNK        -0.5000 
     47 CA         -2.5964  -13.0571  -45.5207 C.3       5 UNK         0.1400 
     48 CB         -3.8627  -12.3239  -45.9858 C.3       5 UNK        -0.1800 
     49 N          -1.8890  -12.2298  -44.5391 N.am      5 UNK        -0.5000 
     50 C          -0.6463  -12.4697  -44.1041 C.2       4 UNK         0.5000 
     51 O           0.0486  -13.4161  -44.4878 O.2       4 UNK        -0.5000 
     52 CA         -0.0921  -11.5058  -43.0513 C.3       4 UNK         0.1400 
     53 CB         -0.1478  -12.1374  -41.6505 C.3       4 UNK        -0.1800 
     54 N           1.2872  -11.2080  -43.4056 N.am      4 UNK        -0.5000 
     55 C           1.9306  -10.0580  -43.1740 C.2       3 UNK         0.5000 
     56 O           1.4240   -9.1048  -42.5796 O.2       3 UNK        -0.5000 
     57 CA          3.3711   -9.9494  -43.7236 C.3       3 UNK         0.1400 
     58 CB          4.2623   -8.9988  -42.8966 C.3       3 UNK        -0.1800 
     59 N           4.0189  -11.2528  -43.9236 N.am      3 UNK        -0.5000 
     60 C           4.3563  -12.1499  -42.9825 C.2       2 UNK         0.5000 
     61 O           4.2142  -11.9605  -41.7739 O.2       2 UNK        -0.5000 
     62 CA          4.9036  -13.4986  -43.4893 C.3       2 UNK         0.1400 
     63 CB          4.7154  -14.6316  -42.4647 C.3       2 UNK        -0.1800 
     64 N           4.2470  -13.8703  -44.7457 N.am      2 UNK        -0.5000 
     65 C           4.8643  -14.0027  -45.9267 C.2       1 UNK         0.5000 
     66 O           6.0818  -13.8948  -46.0786 O.2       1 UNK        -0.5000 
     67 C           0.3287  -22.7425  -47.8726 C.2       11 UNK         0.5000 
     68 O           0.6599  -23.8754  -48.2202 O.2       11 UNK        -0.5000 
     69 N          -0.6020  -22.0164  -48.5058 N.am      12 UNK        -0.5000 
     70 CA         -1.3705  -22.4765  -49.6596 C.3       12 UNK         0.1400 
     71 CB         -2.2363  -21.3293  -50.1861 C.3       12 UNK        -0.1800 
     72 C          -2.2251  -23.7161  -49.3534 C.2       12 UNK         0.5000 
     73 O          -2.2061  -24.6603  -50.1397 O.2       12 UNK        -0.5000 
     74 N          -2.9141  -23.7198  -48.2042 N.am      13 UNK        -0.5000 
     75 CA         -3.6956  -24.8573  -47.7172 C.3       13 UNK         0.1400 
     76 CB         -4.4688  -24.4535  -46.4535 C.3       13 UNK        -0.1800 
     77 C          -2.8334  -26.1089  -47.4643 C.2       13 UNK         0.5000 
     78 O          -3.2329  -27.2053  -47.8569 O.2       13 UNK        -0.5000 
     79 N          -1.6453  -25.9227  -46.8698 N.am      14 UNK        -0.5000 
     80 CA         -0.6449  -26.9751  -46.6653 C.3       14 UNK         0.1400 
     81 CB          0.4725  -26.4518  -45.7503 C.3       14 UNK        -0.1800 
     82 C          -0.0643  -27.5206  -47.9863 C.2       14 UNK         0.5000 
     83 O           0.2010  -28.7188  -48.0852 O.2       14 UNK        -0.5000 
     84 N           0.0811  -26.6428  -48.9877 N.am      15 UNK        -0.5000 
     85 CA          0.4902  -26.9678  -50.3567 C.3       15 UNK         0.1400 
     86 CB          1.0623  -25.7004  -51.0141 C.3       15 UNK        -0.1800 
     87 C          -0.6419  -27.5732  -51.2186 C.2       15 UNK         0.5000 
     88 O          -0.3895  -27.9230  -52.3723 O.2       15 UNK        -0.5000 
     89 N          -1.8551  -27.6856  -50.6570 N.am      16 UNK        -0.5000 
     90 CA         -3.0863  -28.2072  -51.2589 C.3       16 UNK         0.1400 
     91 CB         -2.9241  -29.6802  -51.6909 C.3       16 UNK        -0.1800 
     92 C          -3.6768  -27.3089  -52.3676 C.2       16 UNK         0.5000 
     93 O          -4.4199  -27.7989  -53.2207 O.2       16 UNK        -0.5000 
     94 N          -3.3804  -26.0048  -52.3145 N.am      17 UNK        -0.5000 
     95 CA         -4.0799  -24.9614  -53.0611 C.3       17 UNK         0.1400 
     96 CB         -3.1027  -23.8105  -53.3530 C.3       17 UNK        -0.1800 
     97 C          -5.2996  -24.4753  -52.2538 C.2       17 UNK         0.5000 
     98 O          -5.4369  -24.7995  -51.0706 O.2       17 UNK        -0.5000 
     99 N          -6.1727  -23.6939  -52.8985 N.am      18 UNK        -0.5000 
    100 CA        -7.4491  -23.2126  -52.3596 C.3       18 UNK         0.1400 
    101 CB        -8.3839  -22.8944  -53.5403 C.3       18 UNK        -0.1800 
    102 C         -7.3127  -22.0443  -51.3533 C.2       18 UNK         0.5000 
    103 O         -8.0501  -21.0602  -51.4446 O.2       18 UNK        -0.5000 
    104 N         -6.3877  -22.1907  -50.3940 N.am      19 UNK        -0.5000 
    105 CA        -6.0909  -21.2968  -49.2716 C.3       19 UNK         0.1400 
    106 CB        -7.1726  -21.4442  -48.1808 C.3       19 UNK        -0.1800 
    107 C         -5.8533  -19.8399  -49.7194 C.2       19 UNK         0.5000 
    108 O         -4.7981  -19.5479  -50.2785 O.2       19 UNK        -0.5000 
    109 N         -6.8328  -18.9539  -49.4884 N.am      20 UNK        -0.5000 
    110 CA        -6.8059  -17.5459  -49.8952 C.3       20 UNK         0.1400 
    111 CB        -8.0651  -16.8455  -49.3642 C.3       20 UNK        -0.1800 
    112 C         -6.6676  -17.3400  -51.4184 C.2       20 UNK         0.5000 
    113 O         -6.0782  -16.3448  -51.8421 O.2       20 UNK        -0.5000 
    114 N         -7.1632  -18.2993  -52.2119 N.am      21 UNK        -0.5000 
    115 CA        -6.8954  -18.4129  -53.6416 C.3       21 UNK         0.1400 
    116 CB        -8.1229  -19.0216  -54.3400 C.3       21 UNK        -0.1800 
    117 C         -5.6089  -19.2378  -53.8362 C.2       21 UNK         0.5000 
    118 O         -5.6693  -20.4280  -54.1516 O.2       21 UNK        -0.5000 
    119 N         -4.4693  -18.5822  -53.5850 N.am      22 UNK        -0.5000 
    120 CA        -3.1071  -19.1196  -53.7144 C.3       22 UNK         0.1400 
    121 C         -2.7867  -19.6104  -55.1573 C.2       22 UNK         0.5000 
    122 N         -2.0920  -20.7306  -55.3035 N.am      22 UNK        -0.7600 
    123 O         -3.1329  -18.9627  -56.1434 O.2       22 UNK        -0.5000 
    124 C124       -2.0773  -18.0628  -53.2342 C.3       23 UNK        -0.0398 
    125 S125       -0.4252  -18.7533  -52.8701 S.3       23 UNK        -0.2404 
    126 C126       -0.0904  -18.0328  -51.2324 C.3       23 UNK        -0.0205 
    127 H127        0.9222  -10.9711  -46.3021 H         1 UNK         0.0600 
    128 H128        0.3712  -12.4412  -47.1138 H         1 UNK         0.0600 
    129 H129        0.9886  -11.0865  -48.0610 H         1 UNK         0.0600 
    130 H130        1.8483  -14.1010  -47.1333 H         1 UNK         0.3000 
    131 H131        4.4814  -13.8254  -48.0173 H         1 UNK         0.0600 
    132 H132        3.5063  -16.2961  -46.5050 H         1 UNK         0.0800 
    133 H133        2.8818  -15.9035  -48.0764 H         1 UNK         0.0800 
    134 H134        5.4887  -16.9578  -50.5710 H         1 UNK         0.0800 
    135 H135        4.2839  -15.7214  -50.3058 H         1 UNK         0.0800 
    136 H136        2.0588  -16.3930  -50.8308 H         1 UNK         0.1150 
    137 H137        0.8267  -20.4813  -50.4818 H         1 UNK         0.1150 
    138 H138        4.8306  -19.3563  -49.4466 H         1 UNK         0.1150 
    139 H139        2.3662  -22.1809  -49.8390 H         1 UNK         0.0800 
    140 H140        4.0525  -21.8455  -50.1120 H         1 UNK         0.0800 
    141 H141        1.5890  -20.2496  -47.5846 H         1 UNK         0.0800 
    142 H142        2.3591  -20.5532  -46.0646 H         1 UNK         0.0800 
    143 H143        1.4704  -22.9139  -46.0721 H         1 UNK         0.0600 
    144 H144       -0.0224  -20.5685  -45.5537 H         1 UNK         0.3000 
    145 H145       -2.9430  -22.1506  -44.1971 H         1 UNK         0.0600 
    146 H146       -1.1965  -22.0249  -42.4032 H         1 UNK         0.0600 
    147 H147       -0.6971  -20.4449  -42.9972 H         1 UNK         0.0600 
    148 H148       -2.3116  -20.6697  -42.3273 H         1 UNK         0.0600 
    149 H149       -2.3183  -19.4067  -44.5669 H         1 UNK         0.3000 
    150 H150       -3.6602  -19.1011  -47.8963 H         1 UNK         0.0600 
    151 H151       -5.5761  -18.9293  -46.3026 H         1 UNK         0.0600 
    152 H152       -4.9636  -17.3447  -46.7491 H         1 UNK         0.0600 
    153 H153       -4.5656  -18.0321  -45.1752 H         1 UNK         0.0600 
    154 H154       -2.4854  -17.1293  -46.2721 H         1 UNK         0.3000 
    155 H155        0.9129  -17.6088  -47.3718 H         1 UNK         0.0600 
    156 H156       -1.2334  -15.4422  -47.7208 H         1 UNK         0.0600 
    157 H157        0.5040  -15.1779  -47.7853 H         1 UNK         0.0600 
    158 H158       -0.2787  -16.1670  -49.0018 H         1 UNK         0.0600 
    159 H159       -0.2695  -15.8651  -45.4248 H         1 UNK         0.3000 
    160 H160        0.2036  -17.9534  -42.5731 H         1 UNK         0.0600 
    161 H161        1.5726  -15.3821  -43.5324 H         1 UNK         0.0600 
    162 H162        2.3880  -16.8378  -42.9783 H         1 UNK         0.0600 
    163 H163        1.4125  -15.9019  -41.8556 H         1 UNK         0.0600 
    164 H164       -0.8572  -15.3070  -42.9971 H         1 UNK         0.3000 
    165 H165       -4.2601  -16.2896  -43.3978 H         1 UNK         0.0600 
    166 H166       -4.5560  -14.8848  -41.3770 H         1 UNK         0.0600 
    167 H167       -3.8871  -16.4456  -40.9291 H         1 UNK         0.0600 
    168 H168       -2.8420  -15.0309  -40.9861 H         1 UNK         0.0600 
    169 H169       -3.0687  -13.7327  -43.0971 H         1 UNK         0.3000 
    170 H170       -1.9441  -13.1935  -46.3858 H         1 UNK         0.0600 
    171 H171       -4.3990  -12.9082  -46.7349 H         1 UNK         0.0600 
    172 H172       -4.5498  -12.1405  -45.1588 H         1 UNK         0.0600 
    173 H173       -3.6179  -11.3634  -46.4395 H         1 UNK         0.0600 
    174 H174       -2.3920  -11.4306  -44.1802 H         1 UNK         0.3000 
    175 H175       -0.6837  -10.5878  -43.0619 H         1 UNK         0.0600 
    176 H176        0.4385  -13.0562  -41.6000 H         1 UNK         0.0600 
    177 H177        0.2405  -11.4536  -40.8956 H         1 UNK         0.0600 
    178 H178       -1.1729  -12.3831  -41.3706 H         1 UNK         0.0600 
    179 H179        1.7534  -11.9386  -43.9233 H         1 UNK         0.3000 
    180 H180        3.2727   -9.5142  -44.7191 H         1 UNK         0.0600 
    181 H181        4.3370   -9.3126  -41.8552 H         1 UNK         0.0600 
    182 H182        3.8608   -7.9848  -42.9013 H         1 UNK         0.0600 
    183 H183        5.2711   -8.9478  -43.3060 H         1 UNK         0.0600 
    184 H184        4.1685  -11.5045  -44.8945 H         1 UNK         0.3000 
    185 H185        5.9758  -13.3598  -43.6402 H         1 UNK         0.0600 
    186 H186        5.3122  -14.4503  -41.5701 H         1 UNK         0.0600 
    187 H187        3.6763  -14.7184  -42.1494 H         1 UNK         0.0600 
    188 H188        5.0276  -15.5928  -42.8731 H         1 UNK         0.0600 
    189 H189        3.2409  -13.9529  -44.7203 H         1 UNK         0.3000 
    190 H190       -0.7945  -21.0705  -48.1818 H         1 UNK         0.3000 
    191 H191       -0.6638  -22.7526  -50.4443 H         1 UNK         0.0600 
    192 H192       -2.7892  -20.8586  -49.3755 H         1 UNK         0.0600 
    193 H193       -2.9626  -21.6676  -50.9250 H         1 UNK         0.0600 
    194 H194       -1.6266  -20.5624  -50.6586 H         1 UNK         0.0600 
    195 H195       -2.9146  -22.8845  -47.6240 H         1 UNK         0.3000 
    196 H196       -4.4235  -25.1105  -48.4907 H         1 UNK         0.0600 
    197 H197       -5.0718  -25.2829  -46.0824 H         1 UNK         0.0600 
    198 H198       -5.1461  -23.6236  -46.6556 H         1 UNK         0.0600 
    199 H199       -3.7974  -24.1485  -45.6506 H         1 UNK         0.0600 
    200 H200       -1.4027  -24.9936  -46.5382 H         1 UNK         0.3000 
    201 H201       -1.1367  -27.8058  -46.1551 H         1 UNK         0.0600 
    202 H202        0.0751  -26.1331  -44.7865 H         1 UNK         0.0600 
    203 H203        0.9932  -25.6028  -46.1931 H         1 UNK         0.0600 
    204 H204        1.2142  -27.2275  -45.5566 H         1 UNK         0.0600 
    205 H205       -0.0966  -25.6618  -48.7956 H         1 UNK         0.3000 
    206 H206        1.2887  -27.7108  -50.3096 H         1 UNK         0.0600 
    207 H207        1.8805  -25.2846  -50.4257 H         1 UNK         0.0600 
    208 H208        1.4552  -25.9161  -52.0083 H         1 UNK         0.0600 
    209 H209        0.3027  -24.9268  -51.1238 H         1 UNK         0.0600 
    210 H210       -1.9620  -27.3332  -49.7141 H         1 UNK         0.3000 
    211 H211       -3.8247  -28.1914  -50.4562 H         1 UNK         0.0600 
    212 H212       -2.2700  -29.7811  -52.5571 H         1 UNK         0.0600 
    213 H213       -3.8868  -30.1164  -51.9595 H         1 UNK         0.0600 
    214 H214       -2.5105  -30.2848  -50.8837 H         1 UNK         0.0600 
    215 H215       -2.8305  -25.6718  -51.5243 H         1 UNK         0.3000 
    216 H216       -4.4373  -25.3597  -54.0129 H         1 UNK         0.0600 
    217 H217       -3.5915  -23.0038  -53.9009 H         1 UNK         0.0600 
    218 H218       -2.2661  -24.1549  -53.9609 H         1 UNK         0.0600 
    219 H219       -2.6927  -23.3856  -52.4391 H         1 UNK         0.0600 
    220 H220       -5.9620  -23.4041  -53.8430 H         1 UNK         0.3000 
    221 H221       -7.9109  -24.0302  -51.8021 H         1 UNK         0.0600 
    222 H222       -7.9424  -22.1585  -54.2116 H         1 UNK         0.0600 
    223 H223       -8.5915  -23.7906  -54.1251 H         1 UNK         0.0600 
    224 H224       -9.3445  -22.5056  -53.2000 H         1 UNK         0.0600 
    225 H225       -5.8488  -23.0516  -50.4255 H         1 UNK         0.3000 
    226 H226       -5.1485  -21.6448  -48.8485 H         1 UNK         0.0600 
    227 H227       -7.2100  -22.4690  -47.8113 H         1 UNK         0.0600 
    228 H228       -6.9574  -20.8048  -47.3239 H         1 UNK         0.0600 
    229 H229       -8.1681  -21.1927  -48.5482 H         1 UNK         0.0600 
    230 H230       -7.6845  -19.2834  -49.0584 H         1 UNK         0.3000 
    231 H231       -5.9344  -17.0859  -49.4247 H         1 UNK         0.0600 
    232 H232       -8.0643  -15.7872  -49.6287 H         1 UNK         0.0600 
    233 H233       -8.1227  -16.9073  -48.2773 H         1 UNK         0.0600 
    234 H234       -8.9738  -17.2865  -49.7760 H         1 UNK         0.0600 
    235 H235       -7.5710  -19.1226  -51.7782 H         1 UNK         0.3000 
    236 H236       -6.7305  -17.4253  -54.0779 H         1 UNK         0.0600 
    237 H237       -8.9727  -18.3405  -54.2956 H         1 UNK         0.0600 
    238 H238       -7.9186  -19.2201  -55.3928 H         1 UNK         0.0600 
    239 H239       -8.4296  -19.9579  -53.8780 H         1 UNK         0.0600 
    240 H240       -4.5386  -17.6157  -53.2993 H         1 UNK         0.3000 
    241 H241       -3.0570  -19.9780  -53.0414 H         1 UNK         0.0600 
    242 H242       -1.7565  -21.2490  -54.5080 H         1 UNK         0.3800 
    243 H243       -1.8676  -21.0485  -56.2332 H         1 UNK         0.3800 
    244 H244       -1.9699  -17.2614  -53.9673 H         1 UNK         0.0800 
    245 H245       -2.4491  -17.5852  -52.3263 H         1 UNK         0.0800 
    246 H246       -0.1953  -16.9491  -51.3002 H         1 UNK         0.0800 
    247 H247       -0.8422  -18.3725  -50.5203 H         1 UNK         0.0800 
@<TRIPOS>BOND
     1    1    2 1    
     2    1  127 1    
     3    1  128 1    
     4    1  129 1    
     5    2    3 2    
     6    2    4 am   BACKBONE|DICT|INTERRES
     7    4    5 1    
     8    4  130 1    
     9    5    6 1    
    10    5   65 1    
    11    5  131 1    
    12    6    7 1    
    13    6  132 1    
    14    6  133 1    
    15    7    8 1    
    16    8    9 1    
    17    8  134 1    
    18    8  135 1    
    19    9   10 ar   
    20    9   14 ar   
    21   10   11 ar   
    22   10  136 1    
    23   11   12 ar   
    24   11  126 1    
    25   12   13 ar   
    26   12  137 1    
    27   13   14 ar   
    28   13   15 1    
    29   14  138 1    
    30   15   16 1    
    31   15  139 1    
    32   15  140 1    
    33   16   17 1    
    34   17   18 1    
    35   17  141 1    
    36   17  142 1    
    37   18   19 1    
    38   18   67 1    
    39   18  143 1    
    40   19   20 am   BACKBONE|DICT|INTERRES
    41   19  144 1    
    42   20   21 2    
    43   20   22 1    
    44   22   23 1    
    45   22   24 1    
    46   22  145 1    
    47   23  146 1    
    48   23  147 1    
    49   23  148 1    
    50   24   25 am   BACKBONE|DICT|INTERRES
    51   24  149 1    
    52   25   26 2    
    53   25   27 1    
    54   27   28 1    
    55   27   29 1    
    56   27  150 1    
    57   28  151 1    
    58   28  152 1    
    59   28  153 1    
    60   29   30 am   BACKBONE|DICT|INTERRES
    61   29  154 1    
    62   30   31 2    
    63   30   32 1    
    64   32   33 1    
    65   32   34 1    
    66   32  155 1    
    67   33  156 1    
    68   33  157 1    
    69   33  158 1    
    70   34   35 am   BACKBONE|DICT|INTERRES
    71   34  159 1    
    72   35   36 2    
    73   35   37 1    
    74   37   38 1    
    75   37   39 1    
    76   37  160 1    
    77   38  161 1    
    78   38  162 1    
    79   38  163 1    
    80   39   40 am   BACKBONE|DICT|INTERRES
    81   39  164 1    
    82   40   41 2    
    83   40   42 1    
    84   42   43 1    
    85   42   44 1    
    86   42  165 1    
    87   43  166 1    
    88   43  167 1    
    89   43  168 1    
    90   44   45 am   BACKBONE|DICT|INTERRES
    91   44  169 1    
    92   45   46 2    
    93   45   47 1    
    94   47   48 1    
    95   47   49 1    
    96   47  170 1    
    97   48  171 1    
    98   48  172 1    
    99   48  173 1    
   100   49   50 am   BACKBONE|DICT|INTERRES
   101   49  174 1    
   102   50   51 2    
   103   50   52 1    
   104   52   53 1    
   105   52   54 1    
   106   52  175 1    
   107   53  176 1    
   108   53  177 1    
   109   53  178 1    
   110   54   55 am   BACKBONE|DICT|INTERRES
   111   54  179 1    
   112   55   56 2    
   113   55   57 1    
   114   57   58 1    
   115   57   59 1    
   116   57  180 1    
   117   58  181 1    
   118   58  182 1    
   119   58  183 1    
   120   59   60 am   BACKBONE|DICT|INTERRES
   121   59  184 1    
   122   60   61 2    
   123   60   62 1    
   124   62   63 1    
   125   62   64 1    
   126   62  185 1    
   127   63  186 1    
   128   63  187 1    
   129   63  188 1    
   130   64   65 am   BACKBONE|DICT|INTERRES
   131   64  189 1    
   132   65   66 2    
   133   67   68 2    
   134   67   69 am   BACKBONE|DICT|INTERRES
   135   69   70 1    
   136   69  190 1    
   137   70   71 1    
   138   70   72 1    
   139   70  191 1    
   140   71  192 1    
   141   71  193 1    
   142   71  194 1    
   143   72   73 2    
   144   72   74 am   BACKBONE|DICT|INTERRES
   145   74   75 1    
   146   74  195 1    
   147   75   76 1    
   148   75   77 1    
   149   75  196 1    
   150   76  197 1    
   151   76  198 1    
   152   76  199 1    
   153   77   78 2    
   154   77   79 am   BACKBONE|DICT|INTERRES
   155   79   80 1    
   156   79  200 1    
   157   80   81 1    
   158   80   82 1    
   159   80  201 1    
   160   81  202 1    
   161   81  203 1    
   162   81  204 1    
   163   82   83 2    
   164   82   84 am   BACKBONE|DICT|INTERRES
   165   84   85 1    
   166   84  205 1    
   167   85   86 1    
   168   85   87 1    
   169   85  206 1    
   170   86  207 1    
   171   86  208 1    
   172   86  209 1    
   173   87   88 2    
   174   87   89 am   BACKBONE|DICT|INTERRES
   175   89   90 1    
   176   89  210 1    
   177   90   91 1    
   178   90   92 1    
   179   90  211 1    
   180   91  212 1    
   181   91  213 1    
   182   91  214 1    
   183   92   93 2    
   184   92   94 am   BACKBONE|DICT|INTERRES
   185   94   95 1    
   186   94  215 1    
   187   95   96 1    
   188   95   97 1    
   189   95  216 1    
   190   96  217 1    
   191   96  218 1    
   192   96  219 1    
   193   97   98 2    
   194   97   99 am   BACKBONE|DICT|INTERRES
   195   99  100 1    
   196   99  220 1    
   197  100  101 1    
   198  100  102 1    
   199  100  221 1    
   200  101  222 1    
   201  101  223 1    
   202  101  224 1    
   203  102  103 2    
   204  102  104 am   BACKBONE|DICT|INTERRES
   205  104  105 1    
   206  104  225 1    
   207  105  106 1    
   208  105  107 1    
   209  105  226 1    
   210  106  227 1    
   211  106  228 1    
   212  106  229 1    
   213  107  108 2    
   214  107  109 am   BACKBONE|DICT|INTERRES
   215  109  110 1    
   216  109  230 1    
   217  110  111 1    
   218  110  112 1    
   219  110  231 1    
   220  111  232 1    
   221  111  233 1    
   222  111  234 1    
   223  112  113 2    
   224  112  114 am   BACKBONE|DICT|INTERRES
   225  114  115 1    
   226  114  235 1    
   227  115  116 1    
   228  115  117 1    
   229  115  236 1    
   230  116  237 1    
   231  116  238 1    
   232  116  239 1    
   233  117  118 2    
   234  117  119 am   BACKBONE|DICT|INTERRES
   235  119  120 1    
   236  119  240 1    
   237  120  121 1    
   238  120  124 1    
   239  120  241 1    
   240  121  122 am   BACKBONE|DICT|INTERRES
   241  121  123 2    
   242  122  242 1    
   243  122  243 1    
   244  124  125 1    
   245  124  244 1    
   246  124  245 1    
   247  125  126 1    
   248  126  246 1    
   249  126  247 1    
@<TRIPOS>SUBSTRUCTURE
     1 UNK         1 GROUP             0       ****    0 ROOT    
