@<TRIPOS>MOLECULE
3R540
247   249    1
SMALL
USER_CHARGES


@<TRIPOS>ATOM
      1 CA          6.7891  -14.5876  -49.7487 C.3       0 UNK        -0.1800 
      2 C           6.1360  -14.1766  -48.4364 C.2       0 UNK         0.5000 
      3 O           6.7211  -14.3756  -47.3715 O.2       0 UNK        -0.5000 
      4 N           4.9255  -13.6123  -48.5101 N.am      1 UNK        -0.5000 
      5 CA          4.1662  -13.1115  -47.3614 C.3       1 UNK         0.1400 
      6 C6          2.6631  -12.9363  -47.6890 C.3       23 UNK        -0.0398 
      7 S7          1.8341  -14.5281  -47.9992 S.3       23 UNK        -0.2404 
      8 C8          1.7423  -14.5404  -49.8119 C.3       23 UNK        -0.0205 
      9 C9          1.1610  -15.8469  -50.3253 C.ar      23 UNK        -0.0193 
     10 C10        -0.1429  -15.8944  -50.8250 C.ar      23 UNK        -0.1150 
     11 C11        -0.6592  -17.0825  -51.3513 C.ar      23 UNK        -0.0193 
     12 C12         0.1331  -18.2341  -51.3560 C.ar      23 UNK        -0.1150 
     13 C13         1.4298  -18.2050  -50.8320 C.ar      23 UNK        -0.0193 
     14 C14         1.9399  -17.0070  -50.3249 C.ar      23 UNK        -0.1150 
     15 C15         2.2877  -19.4614  -50.8212 C.3       23 UNK        -0.0205 
     16 S16         2.1857  -20.3333  -49.2257 S.3       23 UNK        -0.2404 
     17 C17         0.4571  -20.9026  -49.2668 C.3       23 UNK        -0.0398 
     18 CA          0.1874  -22.0781  -48.3017 C.3       11 UNK         0.1400 
     19 N           0.2810  -21.6999  -46.8869 N.am      11 UNK        -0.5000 
     20 C           0.2193  -22.5716  -45.8687 C.2       10 UNK         0.5000 
     21 O           0.1581  -23.7921  -46.0184 O.2       10 UNK        -0.5000 
     22 CA          0.1521  -21.9877  -44.4461 C.3       10 UNK         0.1400 
     23 CB          1.5517  -21.6206  -43.9317 C.3       10 UNK        -0.1800 
     24 N          -0.7365  -20.8282  -44.3589 N.am      10 UNK        -0.5000 
     25 C          -2.0604  -20.8708  -44.5684 C.2       9 UNK         0.5000 
     26 O          -2.6794  -21.9101  -44.7911 O.2       9 UNK        -0.5000 
     27 CA         -2.8151  -19.5280  -44.5848 C.3       9 UNK         0.1400 
     28 CB         -3.1733  -19.0804  -43.1609 C.3       9 UNK        -0.1800 
     29 N          -2.0657  -18.4713  -45.2649 N.am      9 UNK        -0.5000 
     30 C          -1.7354  -18.4927  -46.5646 C.2       8 UNK         0.5000 
     31 O          -2.0831  -19.3798  -47.3433 O.2       8 UNK        -0.5000 
     32 CA         -0.8227  -17.3600  -47.0636 C.3       8 UNK         0.1400 
     33 CB         -1.6509  -16.1221  -47.4411 C.3       8 UNK        -0.1800 
     34 N           0.1898  -17.0042  -46.0674 N.am      8 UNK        -0.5000 
     35 C           1.2160  -17.7975  -45.7281 C.2       7 UNK         0.5000 
     36 O           1.4209  -18.8983  -46.2379 O.2       7 UNK        -0.5000 
     37 CA          2.1264  -17.3112  -44.5831 C.3       7 UNK         0.1400 
     38 CB          3.1440  -16.2721  -45.0756 C.3       7 UNK        -0.1800 
     39 N           1.3711  -16.7525  -43.4611 N.am      7 UNK        -0.5000 
     40 C           0.5539  -17.4640  -42.6728 C.2       6 UNK         0.5000 
     41 O           0.3985  -18.6795  -42.7756 O.2       6 UNK        -0.5000 
     42 CA         -0.2588  -16.6868  -41.6189 C.3       6 UNK         0.1400 
     43 CB          0.5145  -16.6104  -40.2942 C.3       6 UNK        -0.1800 
     44 N          -0.6343  -15.3320  -42.0290 N.am      6 UNK        -0.5000 
     45 C          -1.3238  -14.9974  -43.1295 C.2       5 UNK         0.5000 
     46 O          -1.7251  -15.8244  -43.9490 O.2       5 UNK        -0.5000 
     47 CA         -1.6135  -13.4976  -43.3629 C.3       5 UNK         0.1400 
     48 CB         -3.1227  -13.2547  -43.5260 C.3       5 UNK        -0.1800 
     49 N          -1.1086  -12.6191  -42.3007 N.am      5 UNK        -0.5000 
     50 C           0.1729  -12.2738  -42.1216 C.2       4 UNK         0.5000 
     51 O           1.0908  -12.6650  -42.8454 O.2       4 UNK        -0.5000 
     52 CA          0.4638  -11.4177  -40.8726 C.3       4 UNK         0.1400 
     53 CB          0.5042  -12.3073  -39.6186 C.3       4 UNK        -0.1800 
     54 N           1.7254  -10.6830  -40.9572 N.am      4 UNK        -0.5000 
     55 C           1.9685   -9.6513  -41.7745 C.2       3 UNK         0.5000 
     56 O           1.1324   -9.1824  -42.5496 O.2       3 UNK        -0.5000 
     57 CA          3.3725   -9.0096  -41.7131 C.3       3 UNK         0.1400 
     58 CB          4.2106   -9.4162  -40.4783 C.3       3 UNK        -0.1800 
     59 N           4.1191   -9.2338  -42.9547 N.am      3 UNK        -0.5000 
     60 C           4.4778  -10.4173  -43.4691 C.2       2 UNK         0.5000 
     61 O           4.2993  -11.5036  -42.9114 O.2       2 UNK        -0.5000 
     62 CA          5.1607  -10.3870  -44.8415 C.3       2 UNK         0.1400 
     63 CB          6.6913  -10.3069  -44.7043 C.3       2 UNK        -0.1800 
     64 N           4.7780  -11.6060  -45.5408 N.am      2 UNK        -0.5000 
     65 C           4.7584  -11.7792  -46.8638 C.2       1 UNK         0.5000 
     66 O           5.1390  -10.9310  -47.6752 O.2       1 UNK        -0.5000 
     67 C          -1.1703  -22.7306  -48.6279 C.2       11 UNK         0.5000 
     68 O          -1.1910  -23.7703  -49.2839 O.2       11 UNK        -0.5000 
     69 N          -2.2717  -22.1384  -48.1441 N.am      12 UNK        -0.5000 
     70 CA         -3.6274  -22.6696  -48.2972 C.3       12 UNK         0.1400 
     71 CB         -4.6503  -21.6540  -47.7687 C.3       12 UNK        -0.1800 
     72 C          -3.8077  -24.0411  -47.6224 C.2       12 UNK         0.5000 
     73 O          -4.3982  -24.9377  -48.2224 O.2       12 UNK        -0.5000 
     74 N          -3.2566  -24.2025  -46.4114 N.am      13 UNK        -0.5000 
     75 CA         -3.2263  -25.4665  -45.6743 C.3       13 UNK         0.1400 
     76 CB         -2.6753  -25.2329  -44.2600 C.3       13 UNK        -0.1800 
     77 C          -2.4255  -26.5586  -46.4070 C.2       13 UNK         0.5000 
     78 O          -2.9121  -27.6832  -46.5304 O.2       13 UNK        -0.5000 
     79 N          -1.2442  -26.1989  -46.9313 N.am      14 UNK        -0.5000 
     80 CA         -0.3992  -27.0678  -47.7571 C.3       14 UNK         0.1400 
     81 CB          0.9498  -26.3795  -48.0130 C.3       14 UNK        -0.1800 
     82 C          -1.0673  -27.4741  -49.0863 C.2       14 UNK         0.5000 
     83 O          -0.8748  -28.5997  -49.5462 O.2       14 UNK        -0.5000 
     84 N          -1.8789  -26.5697  -49.6490 N.am      15 UNK        -0.5000 
     85 CA         -2.7122  -26.7818  -50.8330 C.3       15 UNK         0.1400 
     86 CB         -2.9655  -25.4225  -51.5082 C.3       15 UNK        -0.1800 
     87 C          -4.0379  -27.5199  -50.5335 C.2       15 UNK         0.5000 
     88 O          -4.8768  -27.6190  -51.4286 O.2       15 UNK        -0.5000 
     89 N          -4.2147  -28.0226  -49.3015 N.am      16 UNK        -0.5000 
     90 CA         -5.3603  -28.7943  -48.8077 C.3       16 UNK         0.1400 
     91 CB         -5.4896  -30.1376  -49.5571 C.3       16 UNK        -0.1800 
     92 C          -6.6696  -27.9794  -48.7789 C.2       16 UNK         0.5000 
     93 O          -7.7208  -28.4729  -49.1907 O.2       16 UNK        -0.5000 
     94 N          -6.5664  -26.7404  -48.2794 N.am      17 UNK        -0.5000 
     95 CA         -7.6251  -25.7403  -48.1008 C.3       17 UNK         0.1400 
     96 CB         -8.7854  -26.2755  -47.2350 C.3       17 UNK        -0.1800 
     97 C          -8.1004  -25.0894  -49.4155 C.2       17 UNK         0.5000 
     98 O          -9.1420  -24.4302  -49.4257 O.2       17 UNK        -0.5000 
     99 N          -7.3178  -25.2434  -50.4910 N.am      18 UNK        -0.5000 
    100 CA        -7.4725  -24.4995  -51.7395 C.3       18 UNK         0.1400 
    101 CB        -6.7988  -25.2873  -52.8737 C.3       18 UNK        -0.1800 
    102 C         -6.8711  -23.0851  -51.6151 C.2       18 UNK         0.5000 
    103 O         -6.1915  -22.7771  -50.6340 O.2       18 UNK        -0.5000 
    104 N         -7.1096  -22.2503  -52.6339 N.am      19 UNK        -0.5000 
    105 CA        -6.6570  -20.8559  -52.6982 C.3       19 UNK         0.1400 
    106 CB        -7.4387  -20.1398  -53.8103 C.3       19 UNK        -0.1800 
    107 C         -5.1373  -20.6761  -52.9067 C.2       19 UNK         0.5000 
    108 O         -4.6565  -19.5460  -52.8258 O.2       19 UNK        -0.5000 
    109 N         -4.4146  -21.7698  -53.1981 N.am      20 UNK        -0.5000 
    110 CA        -2.9629  -21.8372  -53.4173 C.3       20 UNK         0.1400 
    111 CB        -2.2025  -21.5826  -52.1004 C.3       20 UNK        -0.1800 
    112 C         -2.4892  -20.9373  -54.5794 C.2       20 UNK         0.5000 
    113 O         -1.4560  -20.2755  -54.4772 O.2       20 UNK        -0.5000 
    114 N         -3.2890  -20.9307  -55.6562 N.am      21 UNK        -0.5000 
    115 CA        -3.1367  -20.1762  -56.9069 C.3       21 UNK         0.1400 
    116 CB        -1.7950  -20.4965  -57.5991 C.3       21 UNK        -0.1800 
    117 C         -3.3825  -18.6556  -56.7916 C.2       21 UNK         0.5000 
    118 O         -3.2828  -17.9632  -57.8065 O.2       21 UNK        -0.5000 
    119 N         -3.7289  -18.1550  -55.5990 N.am      22 UNK        -0.5000 
    120 CA        -4.1485  -16.7624  -55.3795 C.3       22 UNK         0.1400 
    121 C         -5.6238  -16.5154  -55.8047 C.2       22 UNK         0.5000 
    122 N         -6.0002  -15.2672  -56.0490 N.am      22 UNK        -0.7600 
    123 O         -6.4386  -17.4309  -55.8985 O.2       22 UNK        -0.5000 
    124 C124       -3.9004  -16.3083  -53.9197 C.3       23 UNK        -0.0398 
    125 S125       -2.1202  -16.2461  -53.5278 S.3       23 UNK        -0.2404 
    126 C126       -2.0655  -17.1094  -51.9288 C.3       23 UNK        -0.0205 
    127 H127        7.7313  -14.0559  -49.8815 H         1 UNK         0.0600 
    128 H128        6.1511  -14.3690  -50.6055 H         1 UNK         0.0600 
    129 H129        6.9973  -15.6575  -49.7451 H         1 UNK         0.0600 
    130 H130        4.5172  -13.4353  -49.4151 H         1 UNK         0.3000 
    131 H131        4.2555  -13.8426  -46.5549 H         1 UNK         0.0600 
    132 H132        2.1422  -12.4708  -46.8499 H         1 UNK         0.0800 
    133 H133        2.5213  -12.2675  -48.5399 H         1 UNK         0.0800 
    134 H134        2.7384  -14.4034  -50.2334 H         1 UNK         0.0800 
    135 H135        1.1419  -13.6940  -50.1490 H         1 UNK         0.0800 
    136 H136       -0.7515  -15.0010  -50.8287 H         1 UNK         0.1150 
    137 H137       -0.2595  -19.1525  -51.7693 H         1 UNK         0.1150 
    138 H138        2.9447  -16.9765  -49.9269 H         1 UNK         0.1150 
    139 H139        1.9956  -20.1331  -51.6300 H         1 UNK         0.0800 
    140 H140        3.3287  -19.1955  -51.0102 H         1 UNK         0.0800 
    141 H141        0.2375  -21.2028  -50.2925 H         1 UNK         0.0800 
    142 H142       -0.1966  -20.0583  -49.0469 H         1 UNK         0.0800 
    143 H143        0.9509  -22.8383  -48.4814 H         1 UNK         0.0600 
    144 H144        0.3885  -20.7120  -46.6841 H         1 UNK         0.3000 
    145 H145       -0.2515  -22.7623  -43.7909 H         1 UNK         0.0600 
    146 H146        1.5137  -21.2803  -42.8968 H         1 UNK         0.0600 
    147 H147        2.2178  -22.4836  -43.9660 H         1 UNK         0.0600 
    148 H148        2.0088  -20.8303  -44.5264 H         1 UNK         0.0600 
    149 H149       -0.3067  -19.9433  -44.1080 H         1 UNK         0.3000 
    150 H150       -3.7462  -19.6748  -45.1355 H         1 UNK         0.0600 
    151 H151       -3.8367  -19.8030  -42.6844 H         1 UNK         0.0600 
    152 H152       -3.6853  -18.1178  -43.1632 H         1 UNK         0.0600 
    153 H153       -2.2882  -18.9903  -42.5330 H         1 UNK         0.0600 
    154 H154       -1.7800  -17.6718  -44.7081 H         1 UNK         0.3000 
    155 H155       -0.3089  -17.7098  -47.9621 H         1 UNK         0.0600 
    156 H156       -2.1949  -15.7190  -46.5867 H         1 UNK         0.0600 
    157 H157       -1.0201  -15.3295  -47.8413 H         1 UNK         0.0600 
    158 H158       -2.3836  -16.3683  -48.2106 H         1 UNK         0.0600 
    159 H159        0.0451  -16.1433  -45.5611 H         1 UNK         0.3000 
    160 H160        2.6819  -18.1786  -44.2198 H         1 UNK         0.0600 
    161 H161        2.6643  -15.3199  -45.3001 H         1 UNK         0.0600 
    162 H162        3.6507  -16.6109  -45.9806 H         1 UNK         0.0600 
    163 H163        3.9105  -16.0870  -44.3230 H         1 UNK         0.0600 
    164 H164        1.4387  -15.7562  -43.3107 H         1 UNK         0.3000 
    165 H165       -1.1826  -17.2391  -41.4413 H         1 UNK         0.0600 
    166 H166       -0.0875  -16.1492  -39.5109 H         1 UNK         0.0600 
    167 H167        0.7913  -17.6062  -39.9453 H         1 UNK         0.0600 
    168 H168        1.4329  -16.0310  -40.3972 H         1 UNK         0.0600 
    169 H169       -0.3433  -14.5840  -41.4191 H         1 UNK         0.3000 
    170 H170       -1.1240  -13.2229  -44.2996 H         1 UNK         0.0600 
    171 H171       -3.5303  -13.8454  -44.3476 H         1 UNK         0.0600 
    172 H172       -3.6731  -13.5242  -42.6237 H         1 UNK         0.0600 
    173 H173       -3.3324  -12.2083  -43.7485 H         1 UNK         0.0600 
    174 H174       -1.7995  -12.2769  -41.6477 H         1 UNK         0.3000 
    175 H175       -0.3432  -10.6905  -40.7596 H         1 UNK         0.0600 
    176 H176        1.2975  -13.0538  -39.6802 H         1 UNK         0.0600 
    177 H177        0.6725  -11.7138  -38.7196 H         1 UNK         0.0600 
    178 H178       -0.4374  -12.8397  -39.4789 H         1 UNK         0.0600 
    179 H179        2.4893  -11.0371  -40.4010 H         1 UNK         0.3000 
    180 H180        3.2061   -7.9333  -41.6468 H         1 UNK         0.0600 
    181 H181        4.4541  -10.4787  -40.4669 H         1 UNK         0.0600 
    182 H182        3.6803   -9.1875  -39.5530 H         1 UNK         0.0600 
    183 H183        5.1508   -8.8654  -40.4511 H         1 UNK         0.0600 
    184 H184        4.2970   -8.4027  -43.5016 H         1 UNK         0.3000 
    185 H185        4.7956   -9.5212  -45.3983 H         1 UNK         0.0600 
    186 H186        6.9883   -9.4077  -44.1634 H         1 UNK         0.0600 
    187 H187        7.0901  -11.1650  -44.1618 H         1 UNK         0.0600 
    188 H188        7.1758  -10.2736  -45.6802 H         1 UNK         0.0600 
    189 H189        4.4243  -12.3270  -44.9226 H         1 UNK         0.3000 
    190 H190       -2.1808  -21.2502  -47.6572 H         1 UNK         0.3000 
    191 H191       -3.8097  -22.8038  -49.3644 H         1 UNK         0.0600 
    192 H192       -4.5210  -21.4636  -46.7038 H         1 UNK         0.0600 
    193 H193       -5.6682  -22.0171  -47.9170 H         1 UNK         0.0600 
    194 H194       -4.5656  -20.7023  -48.2936 H         1 UNK         0.0600 
    195 H195       -2.8390  -23.3965  -45.9530 H         1 UNK         0.3000 
    196 H196       -4.2559  -25.8181  -45.5808 H         1 UNK         0.0600 
    197 H197       -2.6701  -26.1596  -43.6850 H         1 UNK         0.0600 
    198 H198       -3.2863  -24.5141  -43.7137 H         1 UNK         0.0600 
    199 H199       -1.6538  -24.8537  -44.2814 H         1 UNK         0.0600 
    200 H200       -0.8943  -25.2609  -46.7547 H         1 UNK         0.3000 
    201 H201       -0.2113  -27.9821  -47.1907 H         1 UNK         0.0600 
    202 H202        1.4610  -26.1543  -47.0769 H         1 UNK         0.0600 
    203 H203        0.8277  -25.4444  -48.5598 H         1 UNK         0.0600 
    204 H204        1.6103  -27.0194  -48.5993 H         1 UNK         0.0600 
    205 H205       -1.9199  -25.6423  -49.2378 H         1 UNK         0.3000 
    206 H206       -2.1556  -27.4030  -51.5373 H         1 UNK         0.0600 
    207 H207       -2.0326  -24.8846  -51.6772 H         1 UNK         0.0600 
    208 H208       -3.4358  -25.5526  -52.4825 H         1 UNK         0.0600 
    209 H209       -3.6151  -24.7865  -50.9058 H         1 UNK         0.0600 
    210 H210       -3.4906  -27.8499  -48.6146 H         1 UNK         0.3000 
    211 H211       -5.1342  -29.0287  -47.7666 H         1 UNK         0.0600 
    212 H212       -5.7741  -29.9975  -50.6003 H         1 UNK         0.0600 
    213 H213       -6.2490  -30.7695  -49.0952 H         1 UNK         0.0600 
    214 H214       -4.5514  -30.6920  -49.5364 H         1 UNK         0.0600 
    215 H215       -5.6338  -26.3876  -48.0780 H         1 UNK         0.3000 
    216 H216       -7.1578  -24.9318  -47.5369 H         1 UNK         0.0600 
    217 H217       -9.4599  -25.4686  -46.9463 H         1 UNK         0.0600 
    218 H218       -8.4159  -26.7309  -46.3163 H         1 UNK         0.0600 
    219 H219       -9.3810  -27.0188  -47.7651 H         1 UNK         0.0600 
    220 H220       -6.4675  -25.7786  -50.3868 H         1 UNK         0.3000 
    221 H221       -8.5357  -24.4025  -51.9690 H         1 UNK         0.0600 
    222 H222       -5.7201  -25.3428  -52.7372 H         1 UNK         0.0600 
    223 H223       -7.1799  -26.3076  -52.9255 H         1 UNK         0.0600 
    224 H224       -6.9836  -24.8250  -53.8437 H         1 UNK         0.0600 
    225 H225       -7.6674  -22.5736  -53.4114 H         1 UNK         0.3000 
    226 H226       -6.9049  -20.3770  -51.7487 H         1 UNK         0.0600 
    227 H227       -8.5144  -20.2104  -53.6482 H         1 UNK         0.0600 
    228 H228       -7.1885  -19.0786  -53.8409 H         1 UNK         0.0600 
    229 H229       -7.2165  -20.5569  -54.7933 H         1 UNK         0.0600 
    230 H230       -4.9100  -22.6472  -53.2536 H         1 UNK         0.3000 
    231 H231       -2.7455  -22.8615  -53.7235 H         1 UNK         0.0600 
    232 H232       -1.1306  -21.7302  -52.2339 H         1 UNK         0.0600 
    233 H233       -2.5292  -22.2744  -51.3257 H         1 UNK         0.0600 
    234 H234       -2.3543  -20.5694  -51.7288 H         1 UNK         0.0600 
    235 H235       -4.1250  -21.4956  -55.6042 H         1 UNK         0.3000 
    236 H236       -3.9280  -20.5459  -57.5605 H         1 UNK         0.0600 
    237 H237       -1.7665  -20.0796  -58.6065 H         1 UNK         0.0600 
    238 H238       -0.9465  -20.0814  -57.0550 H         1 UNK         0.0600 
    239 H239       -1.6437  -21.5719  -57.6910 H         1 UNK         0.0600 
    240 H240       -3.8157  -18.7767  -54.8056 H         1 UNK         0.3000 
    241 H241       -3.5367  -16.1269  -56.0234 H         1 UNK         0.0600 
    242 H242       -5.3545  -14.4949  -55.9866 H         1 UNK         0.3800 
    243 H243       -6.9554  -15.0900  -56.3195 H         1 UNK         0.3800 
    244 H244       -4.2993  -15.3067  -53.7509 H         1 UNK         0.0800 
    245 H245       -4.4217  -16.9623  -53.2199 H         1 UNK         0.0800 
    246 H246       -2.4096  -18.1359  -52.0628 H         1 UNK         0.0800 
    247 H247       -2.7556  -16.6349  -51.2296 H         1 UNK         0.0800 
@<TRIPOS>BOND
     1    1    2 1    
     2    1  127 1    
     3    1  128 1    
     4    1  129 1    
     5    2    3 2    
     6    2    4 am   BACKBONE|DICT|INTERRES
     7    4    5 1    
     8    4  130 1    
     9    5    6 1    
    10    5   65 1    
    11    5  131 1    
    12    6    7 1    
    13    6  132 1    
    14    6  133 1    
    15    7    8 1    
    16    8    9 1    
    17    8  134 1    
    18    8  135 1    
    19    9   10 ar   
    20    9   14 ar   
    21   10   11 ar   
    22   10  136 1    
    23   11   12 ar   
    24   11  126 1    
    25   12   13 ar   
    26   12  137 1    
    27   13   14 ar   
    28   13   15 1    
    29   14  138 1    
    30   15   16 1    
    31   15  139 1    
    32   15  140 1    
    33   16   17 1    
    34   17   18 1    
    35   17  141 1    
    36   17  142 1    
    37   18   19 1    
    38   18   67 1    
    39   18  143 1    
    40   19   20 am   BACKBONE|DICT|INTERRES
    41   19  144 1    
    42   20   21 2    
    43   20   22 1    
    44   22   23 1    
    45   22   24 1    
    46   22  145 1    
    47   23  146 1    
    48   23  147 1    
    49   23  148 1    
    50   24   25 am   BACKBONE|DICT|INTERRES
    51   24  149 1    
    52   25   26 2    
    53   25   27 1    
    54   27   28 1    
    55   27   29 1    
    56   27  150 1    
    57   28  151 1    
    58   28  152 1    
    59   28  153 1    
    60   29   30 am   BACKBONE|DICT|INTERRES
    61   29  154 1    
    62   30   31 2    
    63   30   32 1    
    64   32   33 1    
    65   32   34 1    
    66   32  155 1    
    67   33  156 1    
    68   33  157 1    
    69   33  158 1    
    70   34   35 am   BACKBONE|DICT|INTERRES
    71   34  159 1    
    72   35   36 2    
    73   35   37 1    
    74   37   38 1    
    75   37   39 1    
    76   37  160 1    
    77   38  161 1    
    78   38  162 1    
    79   38  163 1    
    80   39   40 am   BACKBONE|DICT|INTERRES
    81   39  164 1    
    82   40   41 2    
    83   40   42 1    
    84   42   43 1    
    85   42   44 1    
    86   42  165 1    
    87   43  166 1    
    88   43  167 1    
    89   43  168 1    
    90   44   45 am   BACKBONE|DICT|INTERRES
    91   44  169 1    
    92   45   46 2    
    93   45   47 1    
    94   47   48 1    
    95   47   49 1    
    96   47  170 1    
    97   48  171 1    
    98   48  172 1    
    99   48  173 1    
   100   49   50 am   BACKBONE|DICT|INTERRES
   101   49  174 1    
   102   50   51 2    
   103   50   52 1    
   104   52   53 1    
   105   52   54 1    
   106   52  175 1    
   107   53  176 1    
   108   53  177 1    
   109   53  178 1    
   110   54   55 am   BACKBONE|DICT|INTERRES
   111   54  179 1    
   112   55   56 2    
   113   55   57 1    
   114   57   58 1    
   115   57   59 1    
   116   57  180 1    
   117   58  181 1    
   118   58  182 1    
   119   58  183 1    
   120   59   60 am   BACKBONE|DICT|INTERRES
   121   59  184 1    
   122   60   61 2    
   123   60   62 1    
   124   62   63 1    
   125   62   64 1    
   126   62  185 1    
   127   63  186 1    
   128   63  187 1    
   129   63  188 1    
   130   64   65 am   BACKBONE|DICT|INTERRES
   131   64  189 1    
   132   65   66 2    
   133   67   68 2    
   134   67   69 am   BACKBONE|DICT|INTERRES
   135   69   70 1    
   136   69  190 1    
   137   70   71 1    
   138   70   72 1    
   139   70  191 1    
   140   71  192 1    
   141   71  193 1    
   142   71  194 1    
   143   72   73 2    
   144   72   74 am   BACKBONE|DICT|INTERRES
   145   74   75 1    
   146   74  195 1    
   147   75   76 1    
   148   75   77 1    
   149   75  196 1    
   150   76  197 1    
   151   76  198 1    
   152   76  199 1    
   153   77   78 2    
   154   77   79 am   BACKBONE|DICT|INTERRES
   155   79   80 1    
   156   79  200 1    
   157   80   81 1    
   158   80   82 1    
   159   80  201 1    
   160   81  202 1    
   161   81  203 1    
   162   81  204 1    
   163   82   83 2    
   164   82   84 am   BACKBONE|DICT|INTERRES
   165   84   85 1    
   166   84  205 1    
   167   85   86 1    
   168   85   87 1    
   169   85  206 1    
   170   86  207 1    
   171   86  208 1    
   172   86  209 1    
   173   87   88 2    
   174   87   89 am   BACKBONE|DICT|INTERRES
   175   89   90 1    
   176   89  210 1    
   177   90   91 1    
   178   90   92 1    
   179   90  211 1    
   180   91  212 1    
   181   91  213 1    
   182   91  214 1    
   183   92   93 2    
   184   92   94 am   BACKBONE|DICT|INTERRES
   185   94   95 1    
   186   94  215 1    
   187   95   96 1    
   188   95   97 1    
   189   95  216 1    
   190   96  217 1    
   191   96  218 1    
   192   96  219 1    
   193   97   98 2    
   194   97   99 am   BACKBONE|DICT|INTERRES
   195   99  100 1    
   196   99  220 1    
   197  100  101 1    
   198  100  102 1    
   199  100  221 1    
   200  101  222 1    
   201  101  223 1    
   202  101  224 1    
   203  102  103 2    
   204  102  104 am   BACKBONE|DICT|INTERRES
   205  104  105 1    
   206  104  225 1    
   207  105  106 1    
   208  105  107 1    
   209  105  226 1    
   210  106  227 1    
   211  106  228 1    
   212  106  229 1    
   213  107  108 2    
   214  107  109 am   BACKBONE|DICT|INTERRES
   215  109  110 1    
   216  109  230 1    
   217  110  111 1    
   218  110  112 1    
   219  110  231 1    
   220  111  232 1    
   221  111  233 1    
   222  111  234 1    
   223  112  113 2    
   224  112  114 am   BACKBONE|DICT|INTERRES
   225  114  115 1    
   226  114  235 1    
   227  115  116 1    
   228  115  117 1    
   229  115  236 1    
   230  116  237 1    
   231  116  238 1    
   232  116  239 1    
   233  117  118 2    
   234  117  119 am   BACKBONE|DICT|INTERRES
   235  119  120 1    
   236  119  240 1    
   237  120  121 1    
   238  120  124 1    
   239  120  241 1    
   240  121  122 am   BACKBONE|DICT|INTERRES
   241  121  123 2    
   242  122  242 1    
   243  122  243 1    
   244  124  125 1    
   245  124  244 1    
   246  124  245 1    
   247  125  126 1    
   248  126  246 1    
   249  126  247 1    
@<TRIPOS>SUBSTRUCTURE
     1 UNK         1 GROUP             0       ****    0 ROOT    
