@<TRIPOS>MOLECULE
3R540
247   249    1
SMALL
USER_CHARGES


@<TRIPOS>ATOM
      1 CA          0.4060  -13.6524  -48.8495 C.3       0 UNK        -0.1800 
      2 C          -0.6330  -14.0208  -47.8016 C.2       0 UNK         0.5000 
      3 O          -0.2704  -14.3101  -46.6594 O.2       0 UNK        -0.5000 
      4 N          -1.9160  -14.0199  -48.1902 N.am      1 UNK        -0.5000 
      5 CA         -3.0496  -14.4207  -47.3499 C.3       1 UNK         0.1400 
      6 C6         -4.3743  -14.6316  -48.1397 C.3       23 UNK        -0.0398 
      7 S7         -4.2131  -15.4326  -49.7735 S.3       23 UNK        -0.2404 
      8 C8         -3.7619  -17.1491  -49.3431 C.3       23 UNK        -0.0205 
      9 C9         -2.4246  -17.6378  -49.9060 C.ar      23 UNK        -0.0193 
     10 C10        -1.5181  -16.8023  -50.5755 C.ar      23 UNK        -0.1150 
     11 C11        -0.3064  -17.3010  -51.0612 C.ar      23 UNK        -0.0193 
     12 C12         0.0168  -18.6431  -50.8533 C.ar      23 UNK        -0.1150 
     13 C13        -0.8661  -19.4854  -50.1756 C.ar      23 UNK        -0.0193 
     14 C14        -2.0866  -18.9813  -49.7205 C.ar      23 UNK        -0.1150 
     15 C15        -0.4982  -20.9360  -49.9252 C.3       23 UNK        -0.0205 
     16 S16         0.6093  -21.1000  -48.4896 S.3       23 UNK        -0.2404 
     17 C17         0.5874  -22.9121  -48.2692 C.3       23 UNK        -0.0398 
     18 CA         -0.1780  -23.4113  -47.0195 C.3       11 UNK         0.1400 
     19 N           0.4930  -23.0520  -45.7685 N.am      11 UNK        -0.5000 
     20 C           0.2558  -23.6448  -44.5908 C.2       10 UNK         0.5000 
     21 O          -0.5668  -24.5506  -44.4564 O.2       10 UNK        -0.5000 
     22 CA          1.0002  -23.1185  -43.3484 C.3       10 UNK         0.1400 
     23 CB          1.5094  -24.2589  -42.4445 C.3       10 UNK        -0.1800 
     24 N           2.0640  -22.1537  -43.6402 N.am      10 UNK        -0.5000 
     25 C           3.2377  -22.3513  -44.2571 C.2       9 UNK         0.5000 
     26 O           3.6121  -23.4378  -44.6983 O.2       9 UNK        -0.5000 
     27 CA          4.1386  -21.1112  -44.4341 C.3       9 UNK         0.1400 
     28 CB          4.0730  -20.6199  -45.8888 C.3       9 UNK        -0.1800 
     29 N           3.7790  -20.0028  -43.5436 N.am      9 UNK        -0.5000 
     30 C           3.9894  -19.9806  -42.2192 C.2       8 UNK         0.5000 
     31 O           4.6030  -20.8570  -41.6096 O.2       8 UNK        -0.5000 
     32 CA          3.3630  -18.8073  -41.4404 C.3       8 UNK         0.1400 
     33 CB          4.2517  -17.5569  -41.5201 C.3       8 UNK        -0.1800 
     34 N           2.0139  -18.4798  -41.9087 N.am      8 UNK        -0.5000 
     35 C           0.9474  -19.2867  -41.8000 C.2       7 UNK         0.5000 
     36 O           0.9708  -20.3779  -41.2331 O.2       7 UNK        -0.5000 
     37 CA         -0.3476  -18.8289  -42.4918 C.3       7 UNK         0.1400 
     38 CB         -1.1409  -17.8559  -41.6069 C.3       7 UNK        -0.1800 
     39 N          -0.0627  -18.2073  -43.7834 N.am      7 UNK        -0.5000 
     40 C           0.2184  -18.8864  -44.9038 C.2       6 UNK         0.5000 
     41 O           0.1655  -20.1141  -44.9901 O.2       6 UNK        -0.5000 
     42 CA          0.6207  -18.0560  -46.1359 C.3       6 UNK         0.1400 
     43 CB         -0.6093  -17.7837  -46.9967 C.3       6 UNK        -0.1800 
     44 N           1.2374  -16.7759  -45.8002 N.am      6 UNK        -0.5000 
     45 C           2.4501  -16.6373  -45.2505 C.2       5 UNK         0.5000 
     46 O           3.1960  -17.5793  -44.9886 O.2       5 UNK        -0.5000 
     47 CA          2.8543  -15.2067  -44.8604 C.3       5 UNK         0.1400 
     48 CB          3.4275  -14.4498  -46.0674 C.3       5 UNK        -0.1800 
     49 N           1.7178  -14.4634  -44.3189 N.am      5 UNK        -0.5000 
     50 C           1.0978  -14.7439  -43.1648 C.2       4 UNK         0.5000 
     51 O           1.4639  -15.6453  -42.4101 O.2       4 UNK        -0.5000 
     52 CA         -0.1772  -13.9410  -42.8328 C.3       4 UNK         0.1400 
     53 CB         -0.2809  -13.5873  -41.3354 C.3       4 UNK        -0.1800 
     54 N          -0.3661  -12.7611  -43.6839 N.am      4 UNK        -0.5000 
     55 C           0.3733  -11.6405  -43.7208 C.2       3 UNK         0.5000 
     56 O           1.3208  -11.4144  -42.9682 O.2       3 UNK        -0.5000 
     57 CA          0.0254  -10.6122  -44.8160 C.3       3 UNK         0.1400 
     58 CB          1.1006  -10.6265  -45.9146 C.3       3 UNK        -0.1800 
     59 N          -1.2774  -10.8557  -45.4372 N.am      3 UNK        -0.5000 
     60 C          -2.4606  -10.5865  -44.8694 C.2       2 UNK         0.5000 
     61 O          -2.5858  -10.0337  -43.7764 O.2       2 UNK        -0.5000 
     62 CA         -3.7132  -11.0295  -45.6466 C.3       2 UNK         0.1400 
     63 CB         -4.2997   -9.8505  -46.4379 C.3       2 UNK        -0.1800 
     64 N          -3.4556  -12.1402  -46.5682 N.am      2 UNK        -0.5000 
     65 C          -3.2656  -13.4163  -46.2001 C.2       1 UNK         0.5000 
     66 O          -3.2274  -13.7952  -45.0292 O.2       1 UNK        -0.5000 
     67 C          -1.6684  -23.0050  -47.0064 C.2       11 UNK         0.5000 
     68 O          -2.4995  -23.7310  -47.5554 O.2       11 UNK        -0.5000 
     69 N          -1.9865  -21.8923  -46.3242 N.am      12 UNK        -0.5000 
     70 CA         -3.3582  -21.4410  -46.0903 C.3       12 UNK         0.1400 
     71 CB         -3.3621  -20.0016  -45.5555 C.3       12 UNK        -0.1800 
     72 C          -4.1317  -22.3736  -45.1440 C.2       12 UNK         0.5000 
     73 O          -5.3180  -22.6146  -45.3640 O.2       12 UNK        -0.5000 
     74 N          -3.4411  -22.9092  -44.1291 N.am      13 UNK        -0.5000 
     75 CA         -3.9906  -23.9001  -43.2046 C.3       13 UNK         0.1400 
     76 CB         -3.0714  -24.0248  -41.9793 C.3       13 UNK        -0.1800 
     77 C          -4.1976  -25.2663  -43.8839 C.2       13 UNK         0.5000 
     78 O          -5.1982  -25.9326  -43.6169 O.2       13 UNK        -0.5000 
     79 N          -3.2521  -25.6490  -44.7526 N.am      14 UNK        -0.5000 
     80 CA         -3.2627  -26.9069  -45.4908 C.3       14 UNK         0.1400 
     81 CB         -1.8685  -27.1677  -46.0824 C.3       14 UNK        -0.1800 
     82 C          -4.3341  -26.9639  -46.5931 C.2       14 UNK         0.5000 
     83 O          -5.0576  -27.9589  -46.6647 O.2       14 UNK        -0.5000 
     84 N          -4.3971  -25.9360  -47.4538 N.am      15 UNK        -0.5000 
     85 CA         -5.1557  -26.0008  -48.7066 C.3       15 UNK         0.1400 
     86 CB         -4.3230  -26.7510  -49.7672 C.3       15 UNK        -0.1800 
     87 C          -5.6639  -24.6348  -49.2042 C.2       15 UNK         0.5000 
     88 O          -5.8549  -24.4738  -50.4124 O.2       15 UNK        -0.5000 
     89 N          -5.9029  -23.6854  -48.2862 N.am      16 UNK        -0.5000 
     90 CA         -6.5117  -22.3572  -48.4824 C.3       16 UNK         0.1400 
     91 CB         -7.9649  -22.4775  -48.9830 C.3       16 UNK        -0.1800 
     92 C          -5.6940  -21.3874  -49.3596 C.2       16 UNK         0.5000 
     93 O          -5.2881  -20.3306  -48.8782 O.2       16 UNK        -0.5000 
     94 N          -5.4724  -21.7661  -50.6198 N.am      17 UNK        -0.5000 
     95 CA         -4.6324  -21.0754  -51.5958 C.3       17 UNK         0.1400 
     96 CB         -5.5087  -20.5989  -52.7642 C.3       17 UNK        -0.1800 
     97 C          -3.5031  -21.9851  -52.1107 C.2       17 UNK         0.5000 
     98 O          -2.5345  -21.4708  -52.6673 O.2       17 UNK        -0.5000 
     99 N          -3.6462  -23.3128  -51.9486 N.am      18 UNK        -0.5000 
    100 CA        -2.6808  -24.3688  -52.2903 C.3       18 UNK         0.1400 
    101 CB        -1.5070  -24.3420  -51.2928 C.3       18 UNK        -0.1800 
    102 C         -2.1979  -24.3645  -53.7592 C.2       18 UNK         0.5000 
    103 O         -1.1029  -24.8517  -54.0445 O.2       18 UNK        -0.5000 
    104 N         -3.0188  -23.7981  -54.6570 N.am      19 UNK        -0.5000 
    105 CA        -2.7466  -23.5391  -56.0754 C.3       19 UNK         0.1400 
    106 CB        -2.6249  -24.8611  -56.8624 C.3       19 UNK        -0.1800 
    107 C         -1.5544  -22.5828  -56.3181 C.2       19 UNK         0.5000 
    108 O         -0.9391  -22.6370  -57.3845 O.2       19 UNK        -0.5000 
    109 N         -1.2528  -21.7099  -55.3426 N.am      20 UNK        -0.5000 
    110 CA        -0.1662  -20.7277  -55.4161 C.3       20 UNK         0.1400 
    111 CB         0.1262  -20.1934  -54.0065 C.3       20 UNK        -0.1800 
    112 C         -0.4581  -19.5637  -56.3842 C.2       20 UNK         0.5000 
    113 O          0.4838  -18.9417  -56.8768 O.2       20 UNK        -0.5000 
    114 N         -1.7507  -19.3055  -56.6430 N.am      21 UNK        -0.5000 
    115 CA        -2.2920  -18.2918  -57.5576 C.3       21 UNK         0.1400 
    116 CB        -1.9201  -18.6196  -59.0192 C.3       21 UNK        -0.1800 
    117 C         -1.9376  -16.8441  -57.1518 C.2       21 UNK         0.5000 
    118 O         -1.7315  -15.9889  -58.0152 O.2       21 UNK        -0.5000 
    119 N         -1.8855  -16.5961  -55.8372 N.am      22 UNK        -0.5000 
    120 CA        -1.5822  -15.2871  -55.2330 C.3       22 UNK         0.1400 
    121 C         -2.7289  -14.2371  -55.3384 C.2       22 UNK         0.5000 
    122 N         -3.9435  -14.6065  -55.7271 N.am      22 UNK        -0.7600 
    123 O         -2.5087  -13.0595  -55.0686 O.2       22 UNK        -0.5000 
    124 C124       -1.1191  -15.4373  -53.7625 C.3       23 UNK        -0.0398 
    125 S125        0.3986  -16.4373  -53.5994 S.3       23 UNK        -0.2404 
    126 C126        0.6618  -16.3889  -51.7990 C.3       23 UNK        -0.0205 
    127 H127       -0.0535  -13.4085  -49.8075 H         1 UNK         0.0600 
    128 H128        0.9863  -12.7910  -48.5209 H         1 UNK         0.0600 
    129 H129        1.0897  -14.4874  -49.0024 H         1 UNK         0.0600 
    130 H130       -2.1478  -13.7846  -49.1443 H         1 UNK         0.3000 
    131 H131       -2.7862  -15.3781  -46.8974 H         1 UNK         0.0600 
    132 H132       -4.8690  -13.6778  -48.3314 H         1 UNK         0.0800 
    133 H133       -5.0784  -15.2092  -47.5383 H         1 UNK         0.0800 
    134 H134       -4.5538  -17.8025  -49.7119 H         1 UNK         0.0800 
    135 H135       -3.7479  -17.2708  -48.2595 H         1 UNK         0.0800 
    136 H136       -1.7402  -15.7580  -50.7295 H         1 UNK         0.1150 
    137 H137        0.9583  -19.0325  -51.2141 H         1 UNK         0.1150 
    138 H138       -2.7651  -19.6333  -49.1887 H         1 UNK         0.1150 
    139 H139       -1.4015  -21.5264  -49.7632 H         1 UNK         0.0800 
    140 H140       -0.0109  -21.3471  -50.8100 H         1 UNK         0.0800 
    141 H141        1.6230  -23.2507  -48.2162 H         1 UNK         0.0800 
    142 H142        0.1815  -23.3842  -49.1637 H         1 UNK         0.0800 
    143 H143       -0.1630  -24.5015  -47.0753 H         1 UNK         0.0600 
    144 H144        1.1125  -22.2543  -45.7930 H         1 UNK         0.3000 
    145 H145        0.2534  -22.5645  -42.7787 H         1 UNK         0.0600 
    146 H146        2.0128  -23.8653  -41.5614 H         1 UNK         0.0600 
    147 H147        0.6836  -24.8799  -42.0955 H         1 UNK         0.0600 
    148 H148        2.2076  -24.9123  -42.9680 H         1 UNK         0.0600 
    149 H149        1.8637  -21.2094  -43.3422 H         1 UNK         0.3000 
    150 H150        5.1653  -21.4119  -44.2161 H         1 UNK         0.0600 
    151 H151        4.3737  -21.4055  -46.5832 H         1 UNK         0.0600 
    152 H152        4.7390  -19.7720  -46.0498 H         1 UNK         0.0600 
    153 H153        3.0640  -20.3096  -46.1624 H         1 UNK         0.0600 
    154 H154        3.3508  -19.1915  -43.9825 H         1 UNK         0.3000 
    155 H155        3.2897  -19.1047  -40.3922 H         1 UNK         0.0600 
    156 H156        4.3611  -17.2030  -42.5453 H         1 UNK         0.0600 
    157 H157        5.2512  -17.7637  -41.1359 H         1 UNK         0.0600 
    158 H158        3.8371  -16.7406  -40.9282 H         1 UNK         0.0600 
    159 H159        1.8914  -17.5627  -42.3264 H         1 UNK         0.3000 
    160 H160       -0.9697  -19.7114  -42.6576 H         1 UNK         0.0600 
    161 H161       -2.0623  -17.5397  -42.0962 H         1 UNK         0.0600 
    162 H162       -0.5667  -16.9629  -41.3629 H         1 UNK         0.0600 
    163 H163       -1.4195  -18.3300  -40.6650 H         1 UNK         0.0600 
    164 H164        0.0239  -17.2029  -43.7978 H         1 UNK         0.3000 
    165 H165        1.3326  -18.6408  -46.7213 H         1 UNK         0.0600 
    166 H166       -0.3437  -17.2341  -47.8992 H         1 UNK         0.0600 
    167 H167       -1.0584  -18.7257  -47.3034 H         1 UNK         0.0600 
    168 H168       -1.3654  -17.2122  -46.4587 H         1 UNK         0.0600 
    169 H169        0.6938  -15.9401  -45.9948 H         1 UNK         0.3000 
    170 H170        3.6254  -15.2685  -44.0898 H         1 UNK         0.0600 
    171 H171        4.2898  -14.9735  -46.4819 H         1 UNK         0.0600 
    172 H172        3.7586  -13.4504  -45.7843 H         1 UNK         0.0600 
    173 H173        2.6915  -14.3450  -46.8652 H         1 UNK         0.0600 
    174 H174        1.3021  -13.7666  -44.9206 H         1 UNK         0.3000 
    175 H175       -1.0110  -14.6044  -43.0670 H         1 UNK         0.0600 
    176 H176       -1.1874  -13.0193  -41.1263 H         1 UNK         0.0600 
    177 H177       -0.3159  -14.4887  -40.7227 H         1 UNK         0.0600 
    178 H178        0.5716  -12.9995  -40.9948 H         1 UNK         0.0600 
    179 H179       -1.1143  -12.8461  -44.3598 H         1 UNK         0.3000 
    180 H180        0.0158   -9.6230  -44.3535 H         1 UNK         0.0600 
    181 H181        1.1756  -11.6044  -46.3910 H         1 UNK         0.0600 
    182 H182        2.0825  -10.3878  -45.5038 H         1 UNK         0.0600 
    183 H183        0.8864   -9.8894  -46.6887 H         1 UNK         0.0600 
    184 H184       -1.2740  -11.3093  -46.3385 H         1 UNK         0.3000 
    185 H185       -4.4567  -11.3537  -44.9152 H         1 UNK         0.0600 
    186 H186       -3.6046   -9.4883  -47.1965 H         1 UNK         0.0600 
    187 H187       -5.2265  -10.1328  -46.9378 H         1 UNK         0.0600 
    188 H188       -4.5305   -9.0132  -45.7779 H         1 UNK         0.0600 
    189 H189       -3.4421  -11.9124  -47.5519 H         1 UNK         0.3000 
    190 H190       -1.2393  -21.3471  -45.9060 H         1 UNK         0.3000 
    191 H191       -3.8761  -21.4489  -47.0478 H         1 UNK         0.0600 
    192 H192       -3.0014  -19.3043  -46.3086 H         1 UNK         0.0600 
    193 H193       -2.7430  -19.8965  -44.6642 H         1 UNK         0.0600 
    194 H194       -4.3726  -19.6850  -45.2933 H         1 UNK         0.0600 
    195 H195       -2.4622  -22.6865  -44.0353 H         1 UNK         0.3000 
    196 H196       -4.9651  -23.5462  -42.8607 H         1 UNK         0.0600 
    197 H197       -3.4847  -24.7274  -41.2547 H         1 UNK         0.0600 
    198 H198       -2.9565  -23.0664  -41.4726 H         1 UNK         0.0600 
    199 H199       -2.0778  -24.3827  -42.2493 H         1 UNK         0.0600 
    200 H200       -2.4198  -25.0761  -44.8478 H         1 UNK         0.3000 
    201 H201       -3.4753  -27.7085  -44.7801 H         1 UNK         0.0600 
    202 H202       -1.1078  -27.1997  -45.3021 H         1 UNK         0.0600 
    203 H203       -1.5835  -26.3964  -46.7975 H         1 UNK         0.0600 
    204 H204       -1.8391  -28.1248  -46.6046 H         1 UNK         0.0600 
    205 H205       -3.7547  -25.1522  -47.3549 H         1 UNK         0.3000 
    206 H206       -6.0681  -26.5763  -48.5374 H         1 UNK         0.0600 
    207 H207       -4.1137  -27.7738  -49.4540 H         1 UNK         0.0600 
    208 H208       -4.8451  -26.8160  -50.7225 H         1 UNK         0.0600 
    209 H209       -3.3672  -26.2574  -49.9388 H         1 UNK         0.0600 
    210 H210       -5.6830  -23.9029  -47.3226 H         1 UNK         0.3000 
    211 H211       -6.5629  -21.9010  -47.4940 H         1 UNK         0.0600 
    212 H212       -8.0279  -22.9445  -49.9660 H         1 UNK         0.0600 
    213 H213       -8.4314  -21.4946  -49.0603 H         1 UNK         0.0600 
    214 H214       -8.5683  -23.0687  -48.2941 H         1 UNK         0.0600 
    215 H215       -5.8279  -22.6812  -50.8801 H         1 UNK         0.3000 
    216 H216       -4.1611  -20.2017  -51.1447 H         1 UNK         0.0600 
    217 H217       -4.9129  -20.0728  -53.5114 H         1 UNK         0.0600 
    218 H218       -6.2786  -19.9086  -52.4192 H         1 UNK         0.0600 
    219 H219       -6.0049  -21.4323  -53.2629 H         1 UNK         0.0600 
    220 H220       -4.4856  -23.6525  -51.4912 H         1 UNK         0.3000 
    221 H221       -3.2099  -25.3127  -52.1582 H         1 UNK         0.0600 
    222 H222       -0.8627  -23.4803  -51.4639 H         1 UNK         0.0600 
    223 H223       -1.8629  -24.3005  -50.2634 H         1 UNK         0.0600 
    224 H224       -0.8898  -25.2360  -51.3872 H         1 UNK         0.0600 
    225 H225       -3.8923  -23.4305  -54.3084 H         1 UNK         0.3000 
    226 H226       -3.6245  -23.0155  -56.4561 H         1 UNK         0.0600 
    227 H227       -3.4801  -25.5109  -56.6769 H         1 UNK         0.0600 
    228 H228       -2.5885  -24.6758  -57.9366 H         1 UNK         0.0600 
    229 H229       -1.7216  -25.4105  -56.5964 H         1 UNK         0.0600 
    230 H230       -1.7796  -21.7301  -54.4736 H         1 UNK         0.3000 
    231 H231        0.7295  -21.2385  -55.7756 H         1 UNK         0.0600 
    232 H232        0.3571  -21.0042  -53.3157 H         1 UNK         0.0600 
    233 H233       -0.7224  -19.6402  -53.6017 H         1 UNK         0.0600 
    234 H234        0.9824  -19.5180  -54.0139 H         1 UNK         0.0600 
    235 H235       -2.4345  -19.8791  -56.1707 H         1 UNK         0.3000 
    236 H236       -3.3775  -18.3640  -57.4773 H         1 UNK         0.0600 
    237 H237       -2.4439  -17.9617  -59.7137 H         1 UNK         0.0600 
    238 H238       -0.8516  -18.5027  -59.2020 H         1 UNK         0.0600 
    239 H239       -2.1938  -19.6432  -59.2752 H         1 UNK         0.0600 
    240 H240       -2.0438  -17.3578  -55.1950 H         1 UNK         0.3000 
    241 H241       -0.7471  -14.8607  -55.7926 H         1 UNK         0.0600 
    242 H242       -4.6738  -13.9150  -55.7958 H         1 UNK         0.3800 
    243 H243       -4.1411  -15.5675  -55.9535 H         1 UNK         0.3800 
    244 H244       -0.9207  -14.4604  -53.3178 H         1 UNK         0.0800 
    245 H245       -1.9137  -15.8928  -53.1708 H         1 UNK         0.0800 
    246 H246        0.5728  -15.3627  -51.4407 H         1 UNK         0.0800 
    247 H247        1.6869  -16.6956  -51.5862 H         1 UNK         0.0800 
@<TRIPOS>BOND
     1    1    2 1    
     2    1  127 1    
     3    1  128 1    
     4    1  129 1    
     5    2    3 2    
     6    2    4 am   BACKBONE|DICT|INTERRES
     7    4    5 1    
     8    4  130 1    
     9    5    6 1    
    10    5   65 1    
    11    5  131 1    
    12    6    7 1    
    13    6  132 1    
    14    6  133 1    
    15    7    8 1    
    16    8    9 1    
    17    8  134 1    
    18    8  135 1    
    19    9   10 ar   
    20    9   14 ar   
    21   10   11 ar   
    22   10  136 1    
    23   11   12 ar   
    24   11  126 1    
    25   12   13 ar   
    26   12  137 1    
    27   13   14 ar   
    28   13   15 1    
    29   14  138 1    
    30   15   16 1    
    31   15  139 1    
    32   15  140 1    
    33   16   17 1    
    34   17   18 1    
    35   17  141 1    
    36   17  142 1    
    37   18   19 1    
    38   18   67 1    
    39   18  143 1    
    40   19   20 am   BACKBONE|DICT|INTERRES
    41   19  144 1    
    42   20   21 2    
    43   20   22 1    
    44   22   23 1    
    45   22   24 1    
    46   22  145 1    
    47   23  146 1    
    48   23  147 1    
    49   23  148 1    
    50   24   25 am   BACKBONE|DICT|INTERRES
    51   24  149 1    
    52   25   26 2    
    53   25   27 1    
    54   27   28 1    
    55   27   29 1    
    56   27  150 1    
    57   28  151 1    
    58   28  152 1    
    59   28  153 1    
    60   29   30 am   BACKBONE|DICT|INTERRES
    61   29  154 1    
    62   30   31 2    
    63   30   32 1    
    64   32   33 1    
    65   32   34 1    
    66   32  155 1    
    67   33  156 1    
    68   33  157 1    
    69   33  158 1    
    70   34   35 am   BACKBONE|DICT|INTERRES
    71   34  159 1    
    72   35   36 2    
    73   35   37 1    
    74   37   38 1    
    75   37   39 1    
    76   37  160 1    
    77   38  161 1    
    78   38  162 1    
    79   38  163 1    
    80   39   40 am   BACKBONE|DICT|INTERRES
    81   39  164 1    
    82   40   41 2    
    83   40   42 1    
    84   42   43 1    
    85   42   44 1    
    86   42  165 1    
    87   43  166 1    
    88   43  167 1    
    89   43  168 1    
    90   44   45 am   BACKBONE|DICT|INTERRES
    91   44  169 1    
    92   45   46 2    
    93   45   47 1    
    94   47   48 1    
    95   47   49 1    
    96   47  170 1    
    97   48  171 1    
    98   48  172 1    
    99   48  173 1    
   100   49   50 am   BACKBONE|DICT|INTERRES
   101   49  174 1    
   102   50   51 2    
   103   50   52 1    
   104   52   53 1    
   105   52   54 1    
   106   52  175 1    
   107   53  176 1    
   108   53  177 1    
   109   53  178 1    
   110   54   55 am   BACKBONE|DICT|INTERRES
   111   54  179 1    
   112   55   56 2    
   113   55   57 1    
   114   57   58 1    
   115   57   59 1    
   116   57  180 1    
   117   58  181 1    
   118   58  182 1    
   119   58  183 1    
   120   59   60 am   BACKBONE|DICT|INTERRES
   121   59  184 1    
   122   60   61 2    
   123   60   62 1    
   124   62   63 1    
   125   62   64 1    
   126   62  185 1    
   127   63  186 1    
   128   63  187 1    
   129   63  188 1    
   130   64   65 am   BACKBONE|DICT|INTERRES
   131   64  189 1    
   132   65   66 2    
   133   67   68 2    
   134   67   69 am   BACKBONE|DICT|INTERRES
   135   69   70 1    
   136   69  190 1    
   137   70   71 1    
   138   70   72 1    
   139   70  191 1    
   140   71  192 1    
   141   71  193 1    
   142   71  194 1    
   143   72   73 2    
   144   72   74 am   BACKBONE|DICT|INTERRES
   145   74   75 1    
   146   74  195 1    
   147   75   76 1    
   148   75   77 1    
   149   75  196 1    
   150   76  197 1    
   151   76  198 1    
   152   76  199 1    
   153   77   78 2    
   154   77   79 am   BACKBONE|DICT|INTERRES
   155   79   80 1    
   156   79  200 1    
   157   80   81 1    
   158   80   82 1    
   159   80  201 1    
   160   81  202 1    
   161   81  203 1    
   162   81  204 1    
   163   82   83 2    
   164   82   84 am   BACKBONE|DICT|INTERRES
   165   84   85 1    
   166   84  205 1    
   167   85   86 1    
   168   85   87 1    
   169   85  206 1    
   170   86  207 1    
   171   86  208 1    
   172   86  209 1    
   173   87   88 2    
   174   87   89 am   BACKBONE|DICT|INTERRES
   175   89   90 1    
   176   89  210 1    
   177   90   91 1    
   178   90   92 1    
   179   90  211 1    
   180   91  212 1    
   181   91  213 1    
   182   91  214 1    
   183   92   93 2    
   184   92   94 am   BACKBONE|DICT|INTERRES
   185   94   95 1    
   186   94  215 1    
   187   95   96 1    
   188   95   97 1    
   189   95  216 1    
   190   96  217 1    
   191   96  218 1    
   192   96  219 1    
   193   97   98 2    
   194   97   99 am   BACKBONE|DICT|INTERRES
   195   99  100 1    
   196   99  220 1    
   197  100  101 1    
   198  100  102 1    
   199  100  221 1    
   200  101  222 1    
   201  101  223 1    
   202  101  224 1    
   203  102  103 2    
   204  102  104 am   BACKBONE|DICT|INTERRES
   205  104  105 1    
   206  104  225 1    
   207  105  106 1    
   208  105  107 1    
   209  105  226 1    
   210  106  227 1    
   211  106  228 1    
   212  106  229 1    
   213  107  108 2    
   214  107  109 am   BACKBONE|DICT|INTERRES
   215  109  110 1    
   216  109  230 1    
   217  110  111 1    
   218  110  112 1    
   219  110  231 1    
   220  111  232 1    
   221  111  233 1    
   222  111  234 1    
   223  112  113 2    
   224  112  114 am   BACKBONE|DICT|INTERRES
   225  114  115 1    
   226  114  235 1    
   227  115  116 1    
   228  115  117 1    
   229  115  236 1    
   230  116  237 1    
   231  116  238 1    
   232  116  239 1    
   233  117  118 2    
   234  117  119 am   BACKBONE|DICT|INTERRES
   235  119  120 1    
   236  119  240 1    
   237  120  121 1    
   238  120  124 1    
   239  120  241 1    
   240  121  122 am   BACKBONE|DICT|INTERRES
   241  121  123 2    
   242  122  242 1    
   243  122  243 1    
   244  124  125 1    
   245  124  244 1    
   246  124  245 1    
   247  125  126 1    
   248  126  246 1    
   249  126  247 1    
@<TRIPOS>SUBSTRUCTURE
     1 UNK         1 GROUP             0       ****    0 ROOT    
