@<TRIPOS>MOLECULE
3R540
247   249    1
SMALL
USER_CHARGES


@<TRIPOS>ATOM
      1 CA          2.6975  -11.2950  -52.3211 C.3       0 UNK        -0.1800 
      2 C           3.1529  -12.5250  -51.5483 C.2       0 UNK         0.5000 
      3 O           3.8049  -13.3999  -52.1186 O.2       0 UNK        -0.5000 
      4 N           2.8161  -12.5907  -50.2566 N.am      1 UNK        -0.5000 
      5 CA          3.1231  -13.7124  -49.3632 C.3       1 UNK         0.1400 
      6 C6          2.1039  -14.8845  -49.4658 C.3       23 UNK        -0.0398 
      7 S7          0.3466  -14.3901  -49.3624 S.3       23 UNK        -0.2404 
      8 C8         -0.4740  -15.9663  -48.9478 C.3       23 UNK        -0.0205 
      9 C9         -0.1753  -17.0700  -49.9534 C.ar      23 UNK        -0.0193 
     10 C10        -0.6734  -16.9839  -51.2557 C.ar      23 UNK        -0.1150 
     11 C11        -0.3618  -17.9630  -52.2019 C.ar      23 UNK        -0.0193 
     12 C12         0.4348  -19.0475  -51.8281 C.ar      23 UNK        -0.1150 
     13 C13         0.9120  -19.1727  -50.5193 C.ar      23 UNK        -0.0193 
     14 C14         0.6092  -18.1697  -49.5888 C.ar      23 UNK        -0.1150 
     15 C15         1.8068  -20.3620  -50.1674 C.3       23 UNK        -0.0205 
     16 S16         1.6493  -20.9723  -48.4542 S.3       23 UNK        -0.2404 
     17 C17        -0.0100  -21.7328  -48.4488 C.3       23 UNK        -0.0398 
     18 CA         -0.1221  -22.8335  -47.3640 C.3       11 UNK         0.1400 
     19 N          -0.0354  -22.3029  -45.9985 N.am      11 UNK        -0.5000 
     20 C           0.1059  -23.0526  -44.8960 C.2       10 UNK         0.5000 
     21 O           0.1630  -24.2822  -44.9121 O.2       10 UNK        -0.5000 
     22 CA          0.1572  -22.3154  -43.5447 C.3       10 UNK         0.1400 
     23 CB          1.5129  -21.6223  -43.3411 C.3       10 UNK        -0.1800 
     24 N          -0.9245  -21.3438  -43.3877 N.am      10 UNK        -0.5000 
     25 C          -2.2258  -21.6611  -43.3319 C.2       9 UNK         0.5000 
     26 O          -2.6523  -22.8154  -43.3710 O.2       9 UNK        -0.5000 
     27 CA         -3.2250  -20.4888  -43.2856 C.3       9 UNK         0.1400 
     28 CB         -3.3415  -19.9125  -41.8667 C.3       9 UNK        -0.1800 
     29 N          -2.8909  -19.4216  -44.2308 N.am      9 UNK        -0.5000 
     30 C          -2.8002  -19.6023  -45.5565 C.2       8 UNK         0.5000 
     31 O          -3.0158  -20.6750  -46.1146 O.2       8 UNK        -0.5000 
     32 CA         -2.3279  -18.4092  -46.3994 C.3       8 UNK         0.1400 
     33 CB         -3.4769  -17.4121  -46.6182 C.3       8 UNK        -0.1800 
     34 N          -1.1690  -17.7404  -45.8078 N.am      8 UNK        -0.5000 
     35 C           0.0135  -18.3349  -45.5889 C.2       7 UNK         0.5000 
     36 O           0.2548  -19.4968  -45.9037 O.2       7 UNK        -0.5000 
     37 CA          1.0885  -17.5319  -44.8397 C.3       7 UNK         0.1400 
     38 CB          1.8099  -16.5536  -45.7717 C.3       7 UNK        -0.1800 
     39 N           0.5469  -16.8117  -43.6921 N.am      7 UNK        -0.5000 
     40 C           0.0088  -17.3997  -42.6156 C.2       6 UNK         0.5000 
     41 O          -0.0508  -18.6194  -42.4562 O.2       6 UNK        -0.5000 
     42 CA         -0.6007  -16.4619  -41.5620 C.3       6 UNK         0.1400 
     43 CB          0.4877  -15.8893  -40.6411 C.3       6 UNK        -0.1800 
     44 N          -1.3432  -15.3653  -42.1823 N.am      6 UNK        -0.5000 
     45 C          -2.5219  -15.5078  -42.8030 C.2       5 UNK         0.5000 
     46 O          -3.1212  -16.5800  -42.8989 O.2       5 UNK        -0.5000 
     47 CA         -3.1096  -14.2405  -43.4522 C.3       5 UNK         0.1400 
     48 CB         -3.7787  -13.3468  -42.3971 C.3       5 UNK        -0.1800 
     49 N          -2.1095  -13.4624  -44.1879 N.am      5 UNK        -0.5000 
     50 C          -1.5021  -13.8951  -45.3007 C.2       4 UNK         0.5000 
     51 O          -1.7204  -14.9888  -45.8126 O.2       4 UNK        -0.5000 
     52 CA         -0.4521  -12.9778  -45.9434 C.3       4 UNK         0.1400 
     53 CB         -1.1192  -11.9674  -46.8876 C.3       4 UNK        -0.1800 
     54 N           0.4218  -12.2653  -45.0138 N.am      4 UNK        -0.5000 
     55 C           1.1537  -12.8101  -44.0339 C.2       3 UNK         0.5000 
     56 O           1.0183  -13.9647  -43.6248 O.2       3 UNK        -0.5000 
     57 CA          2.2782  -11.9146  -43.4784 C.3       3 UNK         0.1400 
     58 CB          2.8424  -12.4401  -42.1463 C.3       3 UNK        -0.1800 
     59 N           3.3667  -11.8284  -44.4535 N.am      3 UNK        -0.5000 
     60 C           3.3384  -11.1303  -45.5979 C.2       2 UNK         0.5000 
     61 O           2.4342  -10.3456  -45.8934 O.2       2 UNK        -0.5000 
     62 CA          4.4888  -11.3574  -46.6013 C.3       2 UNK         0.1400 
     63 CB          5.7020  -12.1109  -46.0098 C.3       2 UNK        -0.1800 
     64 N           4.0266  -12.0202  -47.8286 N.am      2 UNK        -0.5000 
     65 C           3.4120  -13.2117  -47.9320 C.2       1 UNK         0.5000 
     66 O           3.1121  -13.9085  -46.9642 O.2       1 UNK        -0.5000 
     67 C          -1.3781  -23.7022  -47.5744 C.2       11 UNK         0.5000 
     68 O          -1.2832  -24.7263  -48.2512 O.2       11 UNK        -0.5000 
     69 N          -2.5095  -23.3157  -46.9676 N.am      12 UNK        -0.5000 
     70 CA         -3.7523  -24.0865  -46.9617 C.3       12 UNK         0.1400 
     71 CB         -4.9006  -23.2298  -46.4065 C.3       12 UNK        -0.1800 
     72 C          -3.6260  -25.3951  -46.1638 C.2       12 UNK         0.5000 
     73 O          -4.0544  -26.4398  -46.6536 O.2       12 UNK        -0.5000 
     74 N          -3.0209  -25.3248  -44.9681 N.am      13 UNK        -0.5000 
     75 CA         -2.7806  -26.4748  -44.0915 C.3       13 UNK         0.1400 
     76 CB         -2.2781  -25.9883  -42.7239 C.3       13 UNK        -0.1800 
     77 C          -1.8017  -27.4966  -44.6976 C.2       13 UNK         0.5000 
     78 O          -2.0276  -28.7015  -44.5796 O.2       13 UNK        -0.5000 
     79 N          -0.7505  -26.9966  -45.3598 N.am      14 UNK        -0.5000 
     80 CA          0.2285  -27.7982  -46.0948 C.3       14 UNK         0.1400 
     81 CB          1.4755  -26.9363  -46.3485 C.3       14 UNK        -0.1800 
     82 C          -0.3098  -28.3504  -47.4302 C.2       14 UNK         0.5000 
     83 O           0.2834  -29.2840  -47.9716 O.2       14 UNK        -0.5000 
     84 N          -1.3900  -27.7437  -47.9482 N.am      15 UNK        -0.5000 
     85 CA         -1.9723  -27.9340  -49.2824 C.3       15 UNK         0.1400 
     86 CB         -2.5861  -29.3418  -49.4244 C.3       15 UNK        -0.1800 
     87 C          -0.9653  -27.5868  -50.4012 C.2       15 UNK         0.5000 
     88 O          -0.8902  -28.2779  -51.4189 O.2       15 UNK        -0.5000 
     89 N          -0.1821  -26.5281  -50.1619 N.am      16 UNK        -0.5000 
     90 CA          0.9270  -26.0899  -51.0051 C.3       16 UNK         0.1400 
     91 CB          1.9416  -25.3419  -50.1253 C.3       16 UNK        -0.1800 
     92 C           0.4760  -25.1943  -52.1701 C.2       16 UNK         0.5000 
     93 O           1.1867  -25.1088  -53.1725 O.2       16 UNK        -0.5000 
     94 N          -0.6758  -24.5316  -52.0184 N.am      17 UNK        -0.5000 
     95 CA         -1.2315  -23.5722  -52.9654 C.3       17 UNK         0.1400 
     96 CB         -0.4482  -22.2479  -52.8813 C.3       17 UNK        -0.1800 
     97 C          -2.7173  -23.3477  -52.6520 C.2       17 UNK         0.5000 
     98 O          -3.2399  -23.9098  -51.6859 O.2       17 UNK        -0.5000 
     99 N          -3.3590  -22.4944  -53.4605 N.am      18 UNK        -0.5000 
    100 CA        -4.7511  -22.0629  -53.3040 C.3       18 UNK         0.1400 
    101 CB        -5.2289  -21.4746  -54.6409 C.3       18 UNK        -0.1800 
    102 C         -4.9650  -21.0645  -52.1421 C.2       18 UNK         0.5000 
    103 O         -6.1128  -20.7547  -51.8185 O.2       18 UNK        -0.5000 
    104 N         -3.8663  -20.5898  -51.5347 N.am      19 UNK        -0.5000 
    105 CA        -3.7880  -19.7452  -50.3434 C.3       19 UNK         0.1400 
    106 CB        -4.2340  -20.5559  -49.1100 C.3       19 UNK        -0.1800 
    107 C         -4.5372  -18.4106  -50.5193 C.2       19 UNK         0.5000 
    108 O         -4.0972  -17.5656  -51.2984 O.2       19 UNK        -0.5000 
    109 N         -5.6664  -18.2401  -49.8206 N.am      20 UNK        -0.5000 
    110 CA        -6.5073  -17.0424  -49.8666 C.3       20 UNK         0.1400 
    111 CB        -7.6191  -17.1772  -48.8152 C.3       20 UNK        -0.1800 
    112 C         -7.1061  -16.7437  -51.2571 C.2       20 UNK         0.5000 
    113 O         -7.4407  -15.5901  -51.5290 O.2       20 UNK        -0.5000 
    114 N         -7.2236  -17.7707  -52.1112 N.am      21 UNK        -0.5000 
    115 CA        -7.7085  -17.6387  -53.4836 C.3       21 UNK         0.1400 
    116 CB        -8.3157  -18.9733  -53.9357 C.3       21 UNK        -0.1800 
    117 C         -6.6305  -17.1499  -54.4729 C.2       21 UNK         0.5000 
    118 O         -7.0022  -16.6044  -55.5133 O.2       21 UNK        -0.5000 
    119 N         -5.3393  -17.3308  -54.1529 N.am      22 UNK        -0.5000 
    120 CA        -4.2123  -16.7844  -54.9340 C.3       22 UNK         0.1400 
    121 C         -3.5797  -15.5183  -54.2921 C.2       22 UNK         0.5000 
    122 N         -3.6300  -15.3426  -52.9778 N.am      22 UNK        -0.7600 
    123 O         -3.0510  -14.6688  -55.0039 O.2       22 UNK        -0.5000 
    124 C124       -3.1435  -17.8512  -55.2997 C.3       23 UNK        -0.0398 
    125 S125       -2.4141  -18.7379  -53.8803 S.3       23 UNK        -0.2404 
    126 C126       -0.8590  -17.8288  -53.6329 C.3       23 UNK        -0.0205 
    127 H127        2.1344  -10.6055  -51.6915 H         1 UNK         0.0600 
    128 H128        2.0604  -11.5910  -53.1545 H         1 UNK         0.0600 
    129 H129        3.5600  -10.7625  -52.7219 H         1 UNK         0.0600 
    130 H130        2.2585  -11.8542  -49.8461 H         1 UNK         0.3000 
    131 H131        4.0860  -14.1246  -49.6725 H         1 UNK         0.0600 
    132 H132        2.3118  -15.6489  -48.7162 H         1 UNK         0.0800 
    133 H133        2.2377  -15.3818  -50.4274 H         1 UNK         0.0800 
    134 H134       -0.1770  -16.2676  -47.9453 H         1 UNK         0.0800 
    135 H135       -1.5510  -15.8001  -48.9083 H         1 UNK         0.0800 
    136 H136       -1.2843  -16.1386  -51.5387 H         1 UNK         0.1150 
    137 H137        0.6959  -19.7887  -52.5687 H         1 UNK         0.1150 
    138 H138        0.9971  -18.2358  -48.5827 H         1 UNK         0.1150 
    139 H139        1.6272  -21.1939  -50.8496 H         1 UNK         0.0800 
    140 H140        2.8423  -20.0589  -50.3248 H         1 UNK         0.0800 
    141 H141       -0.1960  -22.1510  -49.4396 H         1 UNK         0.0800 
    142 H142       -0.7583  -20.9537  -48.2923 H         1 UNK         0.0800 
    143 H143        0.7299  -23.5049  -47.4905 H         1 UNK         0.0600 
    144 H144       -0.0346  -21.2875  -45.9106 H         1 UNK         0.3000 
    145 H145        0.0437  -23.0640  -42.7579 H         1 UNK         0.0600 
    146 H146        1.5750  -21.1615  -42.3551 H         1 UNK         0.0600 
    147 H147        2.3320  -22.3382  -43.4193 H         1 UNK         0.0600 
    148 H148        1.6865  -20.8435  -44.0836 H         1 UNK         0.0600 
    149 H149       -0.6572  -20.3664  -43.3291 H         1 UNK         0.3000 
    150 H150       -4.2033  -20.8816  -43.5701 H         1 UNK         0.0600 
    151 H151       -4.1037  -19.1345  -41.8193 H         1 UNK         0.0600 
    152 H152       -2.4014  -19.4789  -41.5264 H         1 UNK         0.0600 
    153 H153       -3.6225  -20.6881  -41.1533 H         1 UNK         0.0600 
    154 H154       -2.7085  -18.5033  -43.8430 H         1 UNK         0.3000 
    155 H155       -2.0235  -18.7930  -47.3755 H         1 UNK         0.0600 
    156 H156       -4.3698  -17.9090  -46.9978 H         1 UNK         0.0600 
    157 H157       -3.7544  -16.9096  -45.6910 H         1 UNK         0.0600 
    158 H158       -3.2032  -16.6477  -47.3445 H         1 UNK         0.0600 
    159 H159       -1.2930  -16.7601  -45.5650 H         1 UNK         0.3000 
    160 H160        1.8279  -18.2436  -44.4665 H         1 UNK         0.0600 
    161 H161        2.6552  -16.0850  -45.2674 H         1 UNK         0.0600 
    162 H162        1.1483  -15.7570  -46.1093 H         1 UNK         0.0600 
    163 H163        2.1987  -17.0628  -46.6540 H         1 UNK         0.0600 
    164 H164        0.5885  -15.7956  -43.7246 H         1 UNK         0.3000 
    165 H165       -1.2919  -17.0465  -40.9512 H         1 UNK         0.0600 
    166 H166        0.0539  -15.2676  -39.8578 H         1 UNK         0.0600 
    167 H167        1.0430  -16.6899  -40.1509 H         1 UNK         0.0600 
    168 H168        1.2065  -15.2814  -41.1920 H         1 UNK         0.0600 
    169 H169       -0.8776  -14.4697  -42.2248 H         1 UNK         0.3000 
    170 H170       -3.8770  -14.5593  -44.1610 H         1 UNK         0.0600 
    171 H171       -3.0572  -12.9646  -41.6739 H         1 UNK         0.0600 
    172 H172       -4.2737  -12.4933  -42.8606 H         1 UNK         0.0600 
    173 H173       -4.5380  -13.8999  -41.8427 H         1 UNK         0.0600 
    174 H174       -1.8623  -12.5552  -43.8207 H         1 UNK         0.3000 
    175 H175        0.1995  -13.6148  -46.5422 H         1 UNK         0.0600 
    176 H176       -0.3742  -11.4070  -47.4530 H         1 UNK         0.0600 
    177 H177       -1.7370  -11.2533  -46.3421 H         1 UNK         0.0600 
    178 H178       -1.7594  -12.4734  -47.6118 H         1 UNK         0.0600 
    179 H179        0.6857  -11.3292  -45.2989 H         1 UNK         0.3000 
    180 H180        1.8686  -10.9175  -43.3044 H         1 UNK         0.0600 
    181 H181        3.2958  -13.4259  -42.2586 H         1 UNK         0.0600 
    182 H182        2.0551  -12.5248  -41.3962 H         1 UNK         0.0600 
    183 H183        3.6007  -11.7665  -41.7470 H         1 UNK         0.0600 
    184 H184        4.1243  -12.4831  -44.3251 H         1 UNK         0.3000 
    185 H185        4.8326  -10.3646  -46.8951 H         1 UNK         0.0600 
    186 H186        5.4578  -13.1358  -45.7283 H         1 UNK         0.0600 
    187 H187        6.5178  -12.1565  -46.7313 H         1 UNK         0.0600 
    188 H188        6.0881  -11.6035  -45.1248 H         1 UNK         0.0600 
    189 H189        4.2184  -11.5210  -48.6858 H         1 UNK         0.3000 
    190 H190       -2.5300  -22.4259  -46.4735 H         1 UNK         0.3000 
    191 H191       -3.9919  -24.3452  -47.9955 H         1 UNK         0.0600 
    192 H192       -5.0667  -22.3450  -47.0193 H         1 UNK         0.0600 
    193 H193       -5.8354  -23.7914  -46.3895 H         1 UNK         0.0600 
    194 H194       -4.6983  -22.8957  -45.3882 H         1 UNK         0.0600 
    195 H195       -2.7228  -24.4198  -44.6170 H         1 UNK         0.3000 
    196 H196       -3.7351  -26.9828  -43.9394 H         1 UNK         0.0600 
    197 H197       -2.0901  -26.8281  -42.0538 H         1 UNK         0.0600 
    198 H198       -3.0143  -25.3461  -42.2404 H         1 UNK         0.0600 
    199 H199       -1.3494  -25.4237  -42.8136 H         1 UNK         0.0600 
    200 H200       -0.5957  -25.9913  -45.3445 H         1 UNK         0.3000 
    201 H201        0.5185  -28.6497  -45.4759 H         1 UNK         0.0600 
    202 H202        1.9122  -26.5893  -45.4119 H         1 UNK         0.0600 
    203 H203        1.2389  -26.0589  -46.9518 H         1 UNK         0.0600 
    204 H204        2.2446  -27.5014  -46.8766 H         1 UNK         0.0600 
    205 H205       -1.7870  -26.9798  -47.4175 H         1 UNK         0.3000 
    206 H206       -2.7833  -27.2090  -49.3660 H         1 UNK         0.0600 
    207 H207       -3.2898  -29.5460  -48.6173 H         1 UNK         0.0600 
    208 H208       -3.1332  -29.4351  -50.3631 H         1 UNK         0.0600 
    209 H209       -1.8246  -30.1218  -49.4117 H         1 UNK         0.0600 
    210 H210       -0.3786  -25.9722  -49.3334 H         1 UNK         0.3000 
    211 H211        1.4215  -26.9669  -51.4283 H         1 UNK         0.0600 
    212 H212        1.5041  -24.4498  -49.6757 H         1 UNK         0.0600 
    213 H213        2.8060  -25.0237  -50.7094 H         1 UNK         0.0600 
    214 H214        2.3107  -25.9781  -49.3208 H         1 UNK         0.0600 
    215 H215       -1.2487  -24.6982  -51.2000 H         1 UNK         0.3000 
    216 H216       -1.1577  -23.9827  -53.9745 H         1 UNK         0.0600 
    217 H217       -0.7942  -21.5292  -53.6247 H         1 UNK         0.0600 
    218 H218        0.6166  -22.3957  -53.0605 H         1 UNK         0.0600 
    219 H219       -0.5613  -21.7882  -51.8994 H         1 UNK         0.0600 
    220 H220       -2.8517  -22.0729  -54.2256 H         1 UNK         0.3000 
    221 H221       -5.3548  -22.9468  -53.0880 H         1 UNK         0.0600 
    222 H222       -4.8179  -20.4807  -54.8185 H         1 UNK         0.0600 
    223 H223       -4.9473  -22.1103  -55.4806 H         1 UNK         0.0600 
    224 H224       -6.3143  -21.3960  -54.6610 H         1 UNK         0.0600 
    225 H225       -2.9783  -20.8396  -51.9426 H         1 UNK         0.3000 
    226 H226       -2.7367  -19.4840  -50.2093 H         1 UNK         0.0600 
    227 H227       -3.5470  -21.3808  -48.9211 H         1 UNK         0.0600 
    228 H228       -4.2482  -19.9366  -48.2165 H         1 UNK         0.0600 
    229 H229       -5.2313  -20.9804  -49.2273 H         1 UNK         0.0600 
    230 H230       -5.9901  -18.9982  -49.2381 H         1 UNK         0.3000 
    231 H231       -5.8814  -16.1899  -49.5946 H         1 UNK         0.0600 
    232 H232       -8.2629  -18.0337  -49.0195 H         1 UNK         0.0600 
    233 H233       -8.2510  -16.2882  -48.7976 H         1 UNK         0.0600 
    234 H234       -7.2038  -17.2984  -47.8145 H         1 UNK         0.0600 
    235 H235       -6.9196  -18.6927  -51.8191 H         1 UNK         0.3000 
    236 H236       -8.5113  -16.8983  -53.5004 H         1 UNK         0.0600 
    237 H237       -9.1732  -19.2430  -53.3190 H         1 UNK         0.0600 
    238 H238       -8.6608  -18.9219  -54.9691 H         1 UNK         0.0600 
    239 H239       -7.5922  -19.7814  -53.8679 H         1 UNK         0.0600 
    240 H240       -5.0974  -17.7387  -53.2591 H         1 UNK         0.3000 
    241 H241       -4.5944  -16.4344  -55.8947 H         1 UNK         0.0600 
    242 H242       -3.2360  -14.5072  -52.5781 H         1 UNK         0.3800 
    243 H243       -3.9406  -16.0949  -52.3668 H         1 UNK         0.3800 
    244 H244       -3.6028  -18.6003  -55.9453 H         1 UNK         0.0800 
    245 H245       -2.3473  -17.4077  -55.9000 H         1 UNK         0.0800 
    246 H246       -0.9977  -16.7739  -53.8712 H         1 UNK         0.0800 
    247 H247       -0.1086  -18.2031  -54.3305 H         1 UNK         0.0800 
@<TRIPOS>BOND
     1    1    2 1    
     2    1  127 1    
     3    1  128 1    
     4    1  129 1    
     5    2    3 2    
     6    2    4 am   BACKBONE|DICT|INTERRES
     7    4    5 1    
     8    4  130 1    
     9    5    6 1    
    10    5   65 1    
    11    5  131 1    
    12    6    7 1    
    13    6  132 1    
    14    6  133 1    
    15    7    8 1    
    16    8    9 1    
    17    8  134 1    
    18    8  135 1    
    19    9   10 ar   
    20    9   14 ar   
    21   10   11 ar   
    22   10  136 1    
    23   11   12 ar   
    24   11  126 1    
    25   12   13 ar   
    26   12  137 1    
    27   13   14 ar   
    28   13   15 1    
    29   14  138 1    
    30   15   16 1    
    31   15  139 1    
    32   15  140 1    
    33   16   17 1    
    34   17   18 1    
    35   17  141 1    
    36   17  142 1    
    37   18   19 1    
    38   18   67 1    
    39   18  143 1    
    40   19   20 am   BACKBONE|DICT|INTERRES
    41   19  144 1    
    42   20   21 2    
    43   20   22 1    
    44   22   23 1    
    45   22   24 1    
    46   22  145 1    
    47   23  146 1    
    48   23  147 1    
    49   23  148 1    
    50   24   25 am   BACKBONE|DICT|INTERRES
    51   24  149 1    
    52   25   26 2    
    53   25   27 1    
    54   27   28 1    
    55   27   29 1    
    56   27  150 1    
    57   28  151 1    
    58   28  152 1    
    59   28  153 1    
    60   29   30 am   BACKBONE|DICT|INTERRES
    61   29  154 1    
    62   30   31 2    
    63   30   32 1    
    64   32   33 1    
    65   32   34 1    
    66   32  155 1    
    67   33  156 1    
    68   33  157 1    
    69   33  158 1    
    70   34   35 am   BACKBONE|DICT|INTERRES
    71   34  159 1    
    72   35   36 2    
    73   35   37 1    
    74   37   38 1    
    75   37   39 1    
    76   37  160 1    
    77   38  161 1    
    78   38  162 1    
    79   38  163 1    
    80   39   40 am   BACKBONE|DICT|INTERRES
    81   39  164 1    
    82   40   41 2    
    83   40   42 1    
    84   42   43 1    
    85   42   44 1    
    86   42  165 1    
    87   43  166 1    
    88   43  167 1    
    89   43  168 1    
    90   44   45 am   BACKBONE|DICT|INTERRES
    91   44  169 1    
    92   45   46 2    
    93   45   47 1    
    94   47   48 1    
    95   47   49 1    
    96   47  170 1    
    97   48  171 1    
    98   48  172 1    
    99   48  173 1    
   100   49   50 am   BACKBONE|DICT|INTERRES
   101   49  174 1    
   102   50   51 2    
   103   50   52 1    
   104   52   53 1    
   105   52   54 1    
   106   52  175 1    
   107   53  176 1    
   108   53  177 1    
   109   53  178 1    
   110   54   55 am   BACKBONE|DICT|INTERRES
   111   54  179 1    
   112   55   56 2    
   113   55   57 1    
   114   57   58 1    
   115   57   59 1    
   116   57  180 1    
   117   58  181 1    
   118   58  182 1    
   119   58  183 1    
   120   59   60 am   BACKBONE|DICT|INTERRES
   121   59  184 1    
   122   60   61 2    
   123   60   62 1    
   124   62   63 1    
   125   62   64 1    
   126   62  185 1    
   127   63  186 1    
   128   63  187 1    
   129   63  188 1    
   130   64   65 am   BACKBONE|DICT|INTERRES
   131   64  189 1    
   132   65   66 2    
   133   67   68 2    
   134   67   69 am   BACKBONE|DICT|INTERRES
   135   69   70 1    
   136   69  190 1    
   137   70   71 1    
   138   70   72 1    
   139   70  191 1    
   140   71  192 1    
   141   71  193 1    
   142   71  194 1    
   143   72   73 2    
   144   72   74 am   BACKBONE|DICT|INTERRES
   145   74   75 1    
   146   74  195 1    
   147   75   76 1    
   148   75   77 1    
   149   75  196 1    
   150   76  197 1    
   151   76  198 1    
   152   76  199 1    
   153   77   78 2    
   154   77   79 am   BACKBONE|DICT|INTERRES
   155   79   80 1    
   156   79  200 1    
   157   80   81 1    
   158   80   82 1    
   159   80  201 1    
   160   81  202 1    
   161   81  203 1    
   162   81  204 1    
   163   82   83 2    
   164   82   84 am   BACKBONE|DICT|INTERRES
   165   84   85 1    
   166   84  205 1    
   167   85   86 1    
   168   85   87 1    
   169   85  206 1    
   170   86  207 1    
   171   86  208 1    
   172   86  209 1    
   173   87   88 2    
   174   87   89 am   BACKBONE|DICT|INTERRES
   175   89   90 1    
   176   89  210 1    
   177   90   91 1    
   178   90   92 1    
   179   90  211 1    
   180   91  212 1    
   181   91  213 1    
   182   91  214 1    
   183   92   93 2    
   184   92   94 am   BACKBONE|DICT|INTERRES
   185   94   95 1    
   186   94  215 1    
   187   95   96 1    
   188   95   97 1    
   189   95  216 1    
   190   96  217 1    
   191   96  218 1    
   192   96  219 1    
   193   97   98 2    
   194   97   99 am   BACKBONE|DICT|INTERRES
   195   99  100 1    
   196   99  220 1    
   197  100  101 1    
   198  100  102 1    
   199  100  221 1    
   200  101  222 1    
   201  101  223 1    
   202  101  224 1    
   203  102  103 2    
   204  102  104 am   BACKBONE|DICT|INTERRES
   205  104  105 1    
   206  104  225 1    
   207  105  106 1    
   208  105  107 1    
   209  105  226 1    
   210  106  227 1    
   211  106  228 1    
   212  106  229 1    
   213  107  108 2    
   214  107  109 am   BACKBONE|DICT|INTERRES
   215  109  110 1    
   216  109  230 1    
   217  110  111 1    
   218  110  112 1    
   219  110  231 1    
   220  111  232 1    
   221  111  233 1    
   222  111  234 1    
   223  112  113 2    
   224  112  114 am   BACKBONE|DICT|INTERRES
   225  114  115 1    
   226  114  235 1    
   227  115  116 1    
   228  115  117 1    
   229  115  236 1    
   230  116  237 1    
   231  116  238 1    
   232  116  239 1    
   233  117  118 2    
   234  117  119 am   BACKBONE|DICT|INTERRES
   235  119  120 1    
   236  119  240 1    
   237  120  121 1    
   238  120  124 1    
   239  120  241 1    
   240  121  122 am   BACKBONE|DICT|INTERRES
   241  121  123 2    
   242  122  242 1    
   243  122  243 1    
   244  124  125 1    
   245  124  244 1    
   246  124  245 1    
   247  125  126 1    
   248  126  246 1    
   249  126  247 1    
@<TRIPOS>SUBSTRUCTURE
     1 UNK         1 GROUP             0       ****    0 ROOT    
