@<TRIPOS>MOLECULE
3R540
247   249    1
SMALL
USER_CHARGES


@<TRIPOS>ATOM
      1 CA          5.0177  -13.3690  -52.2881 C.3       0 UNK        -0.1800 
      2 C           4.7243  -13.1591  -50.8093 C.2       0 UNK         0.5000 
      3 O           3.5611  -12.9897  -50.4462 O.2       0 UNK        -0.5000 
      4 N           5.7785  -13.1802  -49.9777 N.am      1 UNK        -0.5000 
      5 CA          5.7961  -13.0125  -48.5156 C.3       1 UNK         0.1400 
      6 C6          5.6376  -14.3571  -47.7358 C.3       23 UNK        -0.0398 
      7 S7          3.9997  -15.1690  -47.7747 S.3       23 UNK        -0.2404 
      8 C8          4.1737  -16.3622  -49.1434 C.3       23 UNK        -0.0205 
      9 C9          2.8295  -16.8544  -49.6763 C.ar      23 UNK        -0.0193 
     10 C10         1.7782  -15.9606  -49.9060 C.ar      23 UNK        -0.1150 
     11 C11         0.5551  -16.3984  -50.4181 C.ar      23 UNK        -0.0193 
     12 C12         0.3957  -17.7568  -50.7142 C.ar      23 UNK        -0.1150 
     13 C13         1.4349  -18.6694  -50.5098 C.ar      23 UNK        -0.0193 
     14 C14         2.6525  -18.2048  -49.9917 C.ar      23 UNK        -0.1150 
     15 C15         1.2011  -20.1319  -50.9023 C.3       23 UNK        -0.0205 
     16 S16         2.3223  -21.3557  -50.1367 S.3       23 UNK        -0.2404 
     17 C17         1.8944  -21.1550  -48.3758 C.3       23 UNK        -0.0398 
     18 CA          1.1170  -22.3356  -47.7496 C.3       11 UNK         0.1400 
     19 N           0.9525  -22.1249  -46.3102 N.am      11 UNK        -0.5000 
     20 C           0.4452  -23.0119  -45.4450 C.2       10 UNK         0.5000 
     21 O           0.1110  -24.1550  -45.7532 O.2       10 UNK        -0.5000 
     22 CA          0.2352  -22.5209  -44.0016 C.3       10 UNK         0.1400 
     23 CB          1.5488  -22.5899  -43.2090 C.3       10 UNK        -0.1800 
     24 N          -0.3087  -21.1620  -43.9421 N.am      10 UNK        -0.5000 
     25 C          -1.5191  -20.8072  -44.3980 C.2       9 UNK         0.5000 
     26 O          -2.3219  -21.6041  -44.8795 O.2       9 UNK        -0.5000 
     27 CA         -1.8793  -19.3107  -44.3548 C.3       9 UNK         0.1400 
     28 CB         -2.3077  -18.8838  -42.9437 C.3       9 UNK        -0.1800 
     29 N          -0.7865  -18.4571  -44.8166 N.am      9 UNK        -0.5000 
     30 C          -0.2847  -18.4742  -46.0595 C.2       8 UNK         0.5000 
     31 O          -0.7179  -19.1825  -46.9677 O.2       8 UNK        -0.5000 
     32 CA          0.9460  -17.5899  -46.3102 C.3       8 UNK         0.1400 
     33 CB          0.5292  -16.1337  -46.5445 C.3       8 UNK        -0.1800 
     34 N           1.8936  -17.6553  -45.1992 N.am      8 UNK        -0.5000 
     35 C           2.6127  -18.7408  -44.8818 C.2       7 UNK         0.5000 
     36 O           2.5670  -19.8000  -45.5064 O.2       7 UNK        -0.5000 
     37 CA          3.4963  -18.6378  -43.6259 C.3       7 UNK         0.1400 
     38 CB          4.8030  -17.8957  -43.9460 C.3       7 UNK        -0.1800 
     39 N           2.8161  -17.9676  -42.5168 N.am      7 UNK        -0.5000 
     40 C           1.7220  -18.4350  -41.8972 C.2       6 UNK         0.5000 
     41 O           1.2034  -19.5198  -42.1531 O.2       6 UNK        -0.5000 
     42 CA          1.0661  -17.5125  -40.8520 C.3       6 UNK         0.1400 
     43 CB          1.6475  -17.7797  -39.4561 C.3       6 UNK        -0.1800 
     44 N           1.2079  -16.0904  -41.1741 N.am      6 UNK        -0.5000 
     45 C           0.7092  -15.5047  -42.2709 C.2       5 UNK         0.5000 
     46 O           0.0470  -16.1014  -43.1240 O.2       5 UNK        -0.5000 
     47 CA          1.1010  -14.0312  -42.4728 C.3       5 UNK         0.1400 
     48 CB          2.5252  -13.9467  -43.0460 C.3       5 UNK        -0.1800 
     49 N           0.1801  -13.3144  -43.3562 N.am      5 UNK        -0.5000 
     50 C          -1.0656  -12.9533  -43.0114 C.2       4 UNK         0.5000 
     51 O          -1.5581  -13.2060  -41.9102 O.2       4 UNK        -0.5000 
     52 CA         -1.8994  -12.1392  -44.0238 C.3       4 UNK         0.1400 
     53 CB         -2.1638  -10.7228  -43.4861 C.3       4 UNK        -0.1800 
     54 N          -1.2607  -12.0180  -45.3334 N.am      4 UNK        -0.5000 
     55 C          -1.4340  -12.8670  -46.3524 C.2       3 UNK         0.5000 
     56 O          -2.2079  -13.8244  -46.3232 O.2       3 UNK        -0.5000 
     57 CA         -0.6045  -12.6156  -47.6274 C.3       3 UNK         0.1400 
     58 CB         -1.4940  -12.0570  -48.7484 C.3       3 UNK        -0.1800 
     59 N           0.5676  -11.7457  -47.4645 N.am      3 UNK        -0.5000 
     60 C           1.6267  -12.0428  -46.7023 C.2       2 UNK         0.5000 
     61 O           1.6583  -12.9982  -45.9275 O.2       2 UNK        -0.5000 
     62 CA          2.8674  -11.1550  -46.8322 C.3       2 UNK         0.1400 
     63 CB          3.1705  -10.4022  -45.5270 C.3       2 UNK        -0.1800 
     64 N           3.9609  -12.0582  -47.1591 N.am      2 UNK        -0.5000 
     65 C           4.9341  -11.8140  -48.0388 C.2       1 UNK         0.5000 
     66 O           5.1641  -10.6926  -48.4990 O.2       1 UNK        -0.5000 
     67 C          -0.2402  -22.5969  -48.4409 C.2       11 UNK         0.5000 
     68 O          -0.3667  -23.5630  -49.1943 O.2       11 UNK        -0.5000 
     69 N          -1.2459  -21.7674  -48.1317 N.am      12 UNK        -0.5000 
     70 CA         -2.6162  -21.9217  -48.6151 C.3       12 UNK         0.1400 
     71 CB         -3.4302  -20.6827  -48.2359 C.3       12 UNK        -0.1800 
     72 C          -3.2964  -23.2013  -48.0984 C.2       12 UNK         0.5000 
     73 O          -3.9869  -23.8639  -48.8707 O.2       12 UNK        -0.5000 
     74 N          -3.0670  -23.5506  -46.8247 N.am      13 UNK        -0.5000 
     75 CA         -3.5517  -24.7829  -46.2003 C.3       13 UNK         0.1400 
     76 CB         -3.2990  -24.7411  -44.6864 C.3       13 UNK        -0.1800 
     77 C          -2.9354  -26.0476  -46.8237 C.2       13 UNK         0.5000 
     78 O          -3.6552  -27.0219  -47.0407 O.2       13 UNK        -0.5000 
     79 N          -1.6377  -25.9991  -47.1583 N.am      14 UNK        -0.5000 
     80 CA         -0.9290  -27.0522  -47.8925 C.3       14 UNK         0.1400 
     81 CB          0.5780  -26.7551  -47.8948 C.3       14 UNK        -0.1800 
     82 C          -1.4574  -27.2385  -49.3298 C.2       14 UNK         0.5000 
     83 O          -1.4802  -28.3639  -49.8285 O.2       14 UNK        -0.5000 
     84 N          -1.9213  -26.1428  -49.9455 N.am      15 UNK        -0.5000 
     85 CA         -2.6254  -26.1235  -51.2295 C.3       15 UNK         0.1400 
     86 CB         -2.4149  -24.7478  -51.8865 C.3       15 UNK        -0.1800 
     87 C          -4.1320  -26.4459  -51.1037 C.2       15 UNK         0.5000 
     88 O          -4.8386  -26.3924  -52.1108 O.2       15 UNK        -0.5000 
     89 N          -4.6155  -26.7299  -49.8825 N.am      16 UNK        -0.5000 
     90 CA         -6.0063  -27.0201  -49.5053 C.3       16 UNK         0.1400 
     91 CB         -6.4440  -28.3784  -50.0907 C.3       16 UNK        -0.1800 
     92 C          -6.9963  -25.8835  -49.8465 C.2       16 UNK         0.5000 
     93 O          -8.1839  -26.1435  -50.0458 O.2       16 UNK        -0.5000 
     94 N          -6.4773  -24.6499  -49.9463 N.am      17 UNK        -0.5000 
     95 CA         -7.1263  -23.4275  -50.4307 C.3       17 UNK         0.1400 
     96 CB         -8.2205  -22.9626  -49.4495 C.3       17 UNK        -0.1800 
     97 C          -7.6323  -23.5107  -51.8904 C.2       17 UNK         0.5000 
     98 O          -8.4146  -22.6556  -52.3076 O.2       17 UNK        -0.5000 
     99 N          -7.1709  -24.5129  -52.6553 N.am      18 UNK        -0.5000 
    100 CA        -7.5180  -24.7123  -54.0644 C.3       18 UNK         0.1400 
    101 CB        -7.2793  -26.1826  -54.4404 C.3       18 UNK        -0.1800 
    102 C         -6.7267  -23.7773  -54.9971 C.2       18 UNK         0.5000 
    103 O         -7.1540  -23.5428  -56.1284 O.2       18 UNK        -0.5000 
    104 N         -5.6027  -23.2516  -54.5002 N.am      19 UNK        -0.5000 
    105 CA        -4.7882  -22.2235  -55.1268 C.3       19 UNK         0.1400 
    106 CB        -3.5268  -22.8645  -55.7262 C.3       19 UNK        -0.1800 
    107 C         -4.4229  -21.1936  -54.0510 C.2       19 UNK         0.5000 
    108 O         -4.2783  -21.5567  -52.8788 O.2       19 UNK        -0.5000 
    109 N         -4.2717  -19.9351  -54.4808 N.am      20 UNK        -0.5000 
    110 CA        -3.8841  -18.7415  -53.7199 C.3       20 UNK         0.1400 
    111 CB        -2.4778  -18.9051  -53.1146 C.3       20 UNK        -0.1800 
    112 C         -4.9154  -18.2897  -52.6646 C.2       20 UNK         0.5000 
    113 O         -5.3705  -17.1473  -52.7245 O.2       20 UNK        -0.5000 
    114 N         -5.2709  -19.1907  -51.7368 N.am      21 UNK        -0.5000 
    115 CA        -6.2345  -19.0194  -50.6397 C.3       21 UNK         0.1400 
    116 CB        -7.6690  -18.9030  -51.1944 C.3       21 UNK        -0.1800 
    117 C         -5.8685  -17.8820  -49.6555 C.2       21 UNK         0.5000 
    118 O         -6.7547  -17.2178  -49.1141 O.2       21 UNK        -0.5000 
    119 N         -4.5615  -17.6803  -49.4536 N.am      22 UNK        -0.5000 
    120 CA        -3.9613  -16.6958  -48.5378 C.3       22 UNK         0.1400 
    121 C         -4.1385  -17.0540  -47.0286 C.2       22 UNK         0.5000 
    122 N         -3.6710  -16.2162  -46.1129 N.am      22 UNK        -0.7600 
    123 O         -4.6979  -18.0845  -46.6618 O.2       22 UNK        -0.5000 
    124 C124       -2.4753  -16.4316  -48.9028 C.3       23 UNK        -0.0398 
    125 S125       -2.2527  -15.9725  -50.6551 S.3       23 UNK        -0.2404 
    126 C126       -0.5339  -15.3610  -50.6947 C.3       23 UNK        -0.0205 
    127 H127        6.0816  -13.5154  -52.4761 H         1 UNK         0.0600 
    128 H128        4.6863  -12.5041  -52.8627 H         1 UNK         0.0600 
    129 H129        4.4844  -14.2469  -52.6531 H         1 UNK         0.0600 
    130 H130        6.6939  -13.2974  -50.3883 H         1 UNK         0.3000 
    131 H131        6.8162  -12.6858  -48.3073 H         1 UNK         0.0600 
    132 H132        5.8904  -14.1939  -46.6869 H         1 UNK         0.0800 
    133 H133        6.3812  -15.0703  -48.0938 H         1 UNK         0.0800 
    134 H134        4.7220  -15.9071  -49.9670 H         1 UNK         0.0800 
    135 H135        4.7782  -17.1999  -48.7929 H         1 UNK         0.0800 
    136 H136        1.9172  -14.9102  -49.6927 H         1 UNK         0.1150 
    137 H137       -0.5361  -18.1116  -51.1253 H         1 UNK         0.1150 
    138 H138        3.4758  -18.8878  -49.8428 H         1 UNK         0.1150 
    139 H139        0.1742  -20.4144  -50.6635 H         1 UNK         0.0800 
    140 H140        1.2966  -20.2126  -51.9857 H         1 UNK         0.0800 
    141 H141        1.3469  -20.2242  -48.2317 H         1 UNK         0.0800 
    142 H142        2.8372  -21.0234  -47.8438 H         1 UNK         0.0800 
    143 H143        1.7208  -23.2371  -47.8732 H         1 UNK         0.0600 
    144 H144        1.2507  -21.2215  -45.9554 H         1 UNK         0.3000 
    145 H145       -0.4835  -23.1893  -43.5239 H         1 UNK         0.0600 
    146 H146        1.9712  -23.5950  -43.2380 H         1 UNK         0.0600 
    147 H147        2.2975  -21.9055  -43.6092 H         1 UNK         0.0600 
    148 H148        1.3894  -22.3346  -42.1612 H         1 UNK         0.0600 
    149 H149        0.2775  -20.4585  -43.4999 H         1 UNK         0.3000 
    150 H150       -2.7250  -19.1548  -45.0271 H         1 UNK         0.0600 
    151 H151       -2.5843  -17.8295  -42.9167 H         1 UNK         0.0600 
    152 H152       -1.5120  -19.0401  -42.2159 H         1 UNK         0.0600 
    153 H153       -3.1733  -19.4577  -42.6110 H         1 UNK         0.0600 
    154 H154       -0.3932  -17.8051  -44.1455 H         1 UNK         0.3000 
    155 H155        1.4519  -17.9485  -47.2087 H         1 UNK         0.0600 
    156 H156       -0.0237  -16.0425  -47.4759 H         1 UNK         0.0600 
    157 H157        1.3971  -15.4844  -46.6273 H         1 UNK         0.0600 
    158 H158       -0.1009  -15.7470  -45.7435 H         1 UNK         0.0600 
    159 H159        1.9422  -16.8435  -44.6023 H         1 UNK         0.3000 
    160 H160        3.7452  -19.6523  -43.3074 H         1 UNK         0.0600 
    161 H161        5.3381  -18.3838  -44.7617 H         1 UNK         0.0600 
    162 H162        5.4699  -17.8811  -43.0839 H         1 UNK         0.0600 
    163 H163        4.6193  -16.8632  -44.2470 H         1 UNK         0.0600 
    164 H164        3.1787  -17.0694  -42.2356 H         1 UNK         0.3000 
    165 H165       -0.0003  -17.7439  -40.8280 H         1 UNK         0.0600 
    166 H166        1.1352  -17.1901  -38.6956 H         1 UNK         0.0600 
    167 H167        1.5350  -18.8296  -39.1815 H         1 UNK         0.0600 
    168 H168        2.7106  -17.5402  -39.4087 H         1 UNK         0.0600 
    169 H169        1.7477  -15.5361  -40.5249 H         1 UNK         0.3000 
    170 H170        1.0915  -13.5344  -41.5003 H         1 UNK         0.0600 
    171 H171        2.8188  -12.9123  -43.2216 H         1 UNK         0.0600 
    172 H172        3.2544  -14.3746  -42.3575 H         1 UNK         0.0600 
    173 H173        2.6135  -14.4861  -43.9900 H         1 UNK         0.0600 
    174 H174        0.5146  -13.1311  -44.2967 H         1 UNK         0.3000 
    175 H175       -2.8617  -12.6442  -44.1311 H         1 UNK         0.0600 
    176 H176       -1.2360  -10.1686  -43.3388 H         1 UNK         0.0600 
    177 H177       -2.7912  -10.1520  -44.1710 H         1 UNK         0.0600 
    178 H178       -2.6820  -10.7565  -42.5268 H         1 UNK         0.0600 
    179 H179       -0.6006  -11.2635  -45.4489 H         1 UNK         0.3000 
    180 H180       -0.2314  -13.5905  -47.9424 H         1 UNK         0.0600 
    181 H181       -0.9439  -11.9740  -49.6860 H         1 UNK         0.0600 
    182 H182       -1.8831  -11.0696  -48.4971 H         1 UNK         0.0600 
    183 H183       -2.3481  -12.7103  -48.9337 H         1 UNK         0.0600 
    184 H184        0.6098  -10.9367  -48.0675 H         1 UNK         0.3000 
    185 H185        2.7116  -10.4362  -47.6396 H         1 UNK         0.0600 
    186 H186        3.3479  -11.0871  -44.6976 H         1 UNK         0.0600 
    187 H187        4.0545   -9.7735  -45.6341 H         1 UNK         0.0600 
    188 H188        2.3394   -9.7535  -45.2484 H         1 UNK         0.0600 
    189 H189        3.7978  -13.0179  -46.8745 H         1 UNK         0.3000 
    190 H190       -1.0635  -20.9658  -47.5325 H         1 UNK         0.3000 
    191 H191       -2.5805  -21.9811  -49.7050 H         1 UNK         0.0600 
    192 H192       -3.4922  -20.5573  -47.1546 H         1 UNK         0.0600 
    193 H193       -4.4487  -20.7489  -48.6175 H         1 UNK         0.0600 
    194 H194       -2.9764  -19.7821  -48.6468 H         1 UNK         0.0600 
    195 H195       -2.5525  -22.9095  -46.2260 H         1 UNK         0.3000 
    196 H196       -4.6310  -24.8302  -46.3597 H         1 UNK         0.0600 
    197 H197       -3.6813  -25.6405  -44.2020 H         1 UNK         0.0600 
    198 H198       -3.7980  -23.8878  -44.2269 H         1 UNK         0.0600 
    199 H199       -2.2362  -24.6716  -44.4566 H         1 UNK         0.0600 
    200 H200       -1.0926  -25.1848  -46.8883 H         1 UNK         0.3000 
    201 H201       -1.0868  -27.9923  -47.3601 H         1 UNK         0.0600 
    202 H202        0.9677  -26.6888  -46.8789 H         1 UNK         0.0600 
    203 H203        0.8047  -25.8168  -48.4007 H         1 UNK         0.0600 
    204 H204        1.1307  -27.5449  -48.4049 H         1 UNK         0.0600 
    205 H205       -1.8186  -25.2503  -49.4770 H         1 UNK         0.3000 
    206 H206       -2.1880  -26.8795  -51.8843 H         1 UNK         0.0600 
    207 H207       -2.8487  -24.7202  -52.8865 H         1 UNK         0.0600 
    208 H208       -2.8778  -23.9470  -51.3100 H         1 UNK         0.0600 
    209 H209       -1.3545  -24.5155  -51.9870 H         1 UNK         0.0600 
    210 H210       -3.9653  -26.7193  -49.1062 H         1 UNK         0.3000 
    211 H211       -6.0165  -27.1092  -48.4186 H         1 UNK         0.0600 
    212 H212       -6.5234  -28.3432  -51.1778 H         1 UNK         0.0600 
    213 H213       -7.4170  -28.6795  -49.7011 H         1 UNK         0.0600 
    214 H214       -5.7357  -29.1652  -49.8312 H         1 UNK         0.0600 
    215 H215       -5.4949  -24.5365  -49.7013 H         1 UNK         0.3000 
    216 H216       -6.3461  -22.6647  -50.4347 H         1 UNK         0.0600 
    217 H217       -8.5998  -21.9771  -49.7226 H         1 UNK         0.0600 
    218 H218       -7.8318  -22.8879  -48.4339 H         1 UNK         0.0600 
    219 H219       -9.0689  -23.6472  -49.4357 H         1 UNK         0.0600 
    220 H220       -6.5076  -25.1717  -52.2603 H         1 UNK         0.3000 
    221 H221       -8.5801  -24.4964  -54.1982 H         1 UNK         0.0600 
    222 H222       -6.2223  -26.4454  -54.3910 H         1 UNK         0.0600 
    223 H223       -7.8239  -26.8544  -53.7764 H         1 UNK         0.0600 
    224 H224       -7.6179  -26.3836  -55.4574 H         1 UNK         0.0600 
    225 H225       -5.3562  -23.4558  -53.5409 H         1 UNK         0.3000 
    226 H226       -5.3520  -21.7220  -55.9164 H         1 UNK         0.0600 
    227 H227       -3.7843  -23.6109  -56.4779 H         1 UNK         0.0600 
    228 H228       -2.9006  -22.1152  -56.2119 H         1 UNK         0.0600 
    229 H229       -2.9214  -23.3537  -54.9624 H         1 UNK         0.0600 
    230 H230       -4.4448  -19.7589  -55.4608 H         1 UNK         0.3000 
    231 H231       -3.8212  -17.9399  -54.4578 H         1 UNK         0.0600 
    232 H232       -2.4645  -19.5990  -52.2735 H         1 UNK         0.0600 
    233 H233       -1.7662  -19.2659  -53.8572 H         1 UNK         0.0600 
    234 H234       -2.1082  -17.9445  -52.7612 H         1 UNK         0.0600 
    235 H235       -4.8628  -20.1175  -51.8359 H         1 UNK         0.3000 
    236 H236       -6.1929  -19.9405  -50.0576 H         1 UNK         0.0600 
    237 H237       -7.8123  -17.9786  -51.7544 H         1 UNK         0.0600 
    238 H238       -7.9032  -19.7372  -51.8562 H         1 UNK         0.0600 
    239 H239       -8.4036  -18.9159  -50.3886 H         1 UNK         0.0600 
    240 H240       -3.9108  -18.2564  -49.9634 H         1 UNK         0.3000 
    241 H241       -4.5066  -15.7615  -48.6835 H         1 UNK         0.0600 
    242 H242       -3.7977  -16.4543  -45.1437 H         1 UNK         0.3800 
    243 H243       -3.1933  -15.3457  -46.3415 H         1 UNK         0.3800 
    244 H244       -2.0830  -15.6155  -48.2980 H         1 UNK         0.0800 
    245 H245       -1.8635  -17.3095  -48.6889 H         1 UNK         0.0800 
    246 H246       -0.4475  -14.5318  -49.9953 H         1 UNK         0.0800 
    247 H247       -0.3495  -14.9407  -51.6839 H         1 UNK         0.0800 
@<TRIPOS>BOND
     1    1    2 1    
     2    1  127 1    
     3    1  128 1    
     4    1  129 1    
     5    2    3 2    
     6    2    4 am   BACKBONE|DICT|INTERRES
     7    4    5 1    
     8    4  130 1    
     9    5    6 1    
    10    5   65 1    
    11    5  131 1    
    12    6    7 1    
    13    6  132 1    
    14    6  133 1    
    15    7    8 1    
    16    8    9 1    
    17    8  134 1    
    18    8  135 1    
    19    9   10 ar   
    20    9   14 ar   
    21   10   11 ar   
    22   10  136 1    
    23   11   12 ar   
    24   11  126 1    
    25   12   13 ar   
    26   12  137 1    
    27   13   14 ar   
    28   13   15 1    
    29   14  138 1    
    30   15   16 1    
    31   15  139 1    
    32   15  140 1    
    33   16   17 1    
    34   17   18 1    
    35   17  141 1    
    36   17  142 1    
    37   18   19 1    
    38   18   67 1    
    39   18  143 1    
    40   19   20 am   BACKBONE|DICT|INTERRES
    41   19  144 1    
    42   20   21 2    
    43   20   22 1    
    44   22   23 1    
    45   22   24 1    
    46   22  145 1    
    47   23  146 1    
    48   23  147 1    
    49   23  148 1    
    50   24   25 am   BACKBONE|DICT|INTERRES
    51   24  149 1    
    52   25   26 2    
    53   25   27 1    
    54   27   28 1    
    55   27   29 1    
    56   27  150 1    
    57   28  151 1    
    58   28  152 1    
    59   28  153 1    
    60   29   30 am   BACKBONE|DICT|INTERRES
    61   29  154 1    
    62   30   31 2    
    63   30   32 1    
    64   32   33 1    
    65   32   34 1    
    66   32  155 1    
    67   33  156 1    
    68   33  157 1    
    69   33  158 1    
    70   34   35 am   BACKBONE|DICT|INTERRES
    71   34  159 1    
    72   35   36 2    
    73   35   37 1    
    74   37   38 1    
    75   37   39 1    
    76   37  160 1    
    77   38  161 1    
    78   38  162 1    
    79   38  163 1    
    80   39   40 am   BACKBONE|DICT|INTERRES
    81   39  164 1    
    82   40   41 2    
    83   40   42 1    
    84   42   43 1    
    85   42   44 1    
    86   42  165 1    
    87   43  166 1    
    88   43  167 1    
    89   43  168 1    
    90   44   45 am   BACKBONE|DICT|INTERRES
    91   44  169 1    
    92   45   46 2    
    93   45   47 1    
    94   47   48 1    
    95   47   49 1    
    96   47  170 1    
    97   48  171 1    
    98   48  172 1    
    99   48  173 1    
   100   49   50 am   BACKBONE|DICT|INTERRES
   101   49  174 1    
   102   50   51 2    
   103   50   52 1    
   104   52   53 1    
   105   52   54 1    
   106   52  175 1    
   107   53  176 1    
   108   53  177 1    
   109   53  178 1    
   110   54   55 am   BACKBONE|DICT|INTERRES
   111   54  179 1    
   112   55   56 2    
   113   55   57 1    
   114   57   58 1    
   115   57   59 1    
   116   57  180 1    
   117   58  181 1    
   118   58  182 1    
   119   58  183 1    
   120   59   60 am   BACKBONE|DICT|INTERRES
   121   59  184 1    
   122   60   61 2    
   123   60   62 1    
   124   62   63 1    
   125   62   64 1    
   126   62  185 1    
   127   63  186 1    
   128   63  187 1    
   129   63  188 1    
   130   64   65 am   BACKBONE|DICT|INTERRES
   131   64  189 1    
   132   65   66 2    
   133   67   68 2    
   134   67   69 am   BACKBONE|DICT|INTERRES
   135   69   70 1    
   136   69  190 1    
   137   70   71 1    
   138   70   72 1    
   139   70  191 1    
   140   71  192 1    
   141   71  193 1    
   142   71  194 1    
   143   72   73 2    
   144   72   74 am   BACKBONE|DICT|INTERRES
   145   74   75 1    
   146   74  195 1    
   147   75   76 1    
   148   75   77 1    
   149   75  196 1    
   150   76  197 1    
   151   76  198 1    
   152   76  199 1    
   153   77   78 2    
   154   77   79 am   BACKBONE|DICT|INTERRES
   155   79   80 1    
   156   79  200 1    
   157   80   81 1    
   158   80   82 1    
   159   80  201 1    
   160   81  202 1    
   161   81  203 1    
   162   81  204 1    
   163   82   83 2    
   164   82   84 am   BACKBONE|DICT|INTERRES
   165   84   85 1    
   166   84  205 1    
   167   85   86 1    
   168   85   87 1    
   169   85  206 1    
   170   86  207 1    
   171   86  208 1    
   172   86  209 1    
   173   87   88 2    
   174   87   89 am   BACKBONE|DICT|INTERRES
   175   89   90 1    
   176   89  210 1    
   177   90   91 1    
   178   90   92 1    
   179   90  211 1    
   180   91  212 1    
   181   91  213 1    
   182   91  214 1    
   183   92   93 2    
   184   92   94 am   BACKBONE|DICT|INTERRES
   185   94   95 1    
   186   94  215 1    
   187   95   96 1    
   188   95   97 1    
   189   95  216 1    
   190   96  217 1    
   191   96  218 1    
   192   96  219 1    
   193   97   98 2    
   194   97   99 am   BACKBONE|DICT|INTERRES
   195   99  100 1    
   196   99  220 1    
   197  100  101 1    
   198  100  102 1    
   199  100  221 1    
   200  101  222 1    
   201  101  223 1    
   202  101  224 1    
   203  102  103 2    
   204  102  104 am   BACKBONE|DICT|INTERRES
   205  104  105 1    
   206  104  225 1    
   207  105  106 1    
   208  105  107 1    
   209  105  226 1    
   210  106  227 1    
   211  106  228 1    
   212  106  229 1    
   213  107  108 2    
   214  107  109 am   BACKBONE|DICT|INTERRES
   215  109  110 1    
   216  109  230 1    
   217  110  111 1    
   218  110  112 1    
   219  110  231 1    
   220  111  232 1    
   221  111  233 1    
   222  111  234 1    
   223  112  113 2    
   224  112  114 am   BACKBONE|DICT|INTERRES
   225  114  115 1    
   226  114  235 1    
   227  115  116 1    
   228  115  117 1    
   229  115  236 1    
   230  116  237 1    
   231  116  238 1    
   232  116  239 1    
   233  117  118 2    
   234  117  119 am   BACKBONE|DICT|INTERRES
   235  119  120 1    
   236  119  240 1    
   237  120  121 1    
   238  120  124 1    
   239  120  241 1    
   240  121  122 am   BACKBONE|DICT|INTERRES
   241  121  123 2    
   242  122  242 1    
   243  122  243 1    
   244  124  125 1    
   245  124  244 1    
   246  124  245 1    
   247  125  126 1    
   248  126  246 1    
   249  126  247 1    
@<TRIPOS>SUBSTRUCTURE
     1 UNK         1 GROUP             0       ****    0 ROOT    
