@<TRIPOS>MOLECULE
3R540
247   249    1
SMALL
USER_CHARGES


@<TRIPOS>ATOM
      1 CA          6.1358  -15.6334  -49.6223 C.3       0 UNK        -0.1800 
      2 C           5.4473  -15.7580  -48.2703 C.2       0 UNK         0.5000 
      3 O           6.0215  -16.3231  -47.3396 O.2       0 UNK        -0.5000 
      4 N           4.2197  -15.2374  -48.1631 N.am      1 UNK        -0.5000 
      5 CA          3.4163  -15.2266  -46.9387 C.3       1 UNK         0.1400 
      6 C6          1.9214  -14.9387  -47.2290 C.3       23 UNK        -0.0398 
      7 S7          1.1293  -16.2921  -48.1573 S.3       23 UNK        -0.2404 
      8 C8          1.1343  -15.6148  -49.8468 C.3       23 UNK        -0.0205 
      9 C9          0.7509  -16.6727  -50.8688 C.ar      23 UNK        -0.0193 
     10 C10        -0.3918  -16.5234  -51.6586 C.ar      23 UNK        -0.1150 
     11 C11        -0.7284  -17.4915  -52.6097 C.ar      23 UNK        -0.0193 
     12 C12         0.0723  -18.6309  -52.7465 C.ar      23 UNK        -0.1150 
     13 C13         1.2195  -18.7896  -51.9627 C.ar      23 UNK        -0.0193 
     14 C14         1.5623  -17.7957  -51.0429 C.ar      23 UNK        -0.1150 
     15 C15         2.1141  -20.0098  -52.1340 C.3       23 UNK        -0.0205 
     16 S16         1.5327  -21.4515  -51.1839 S.3       23 UNK        -0.2404 
     17 C17         1.8210  -20.9322  -49.4544 C.3       23 UNK        -0.0398 
     18 CA          0.7684  -21.4670  -48.4556 C.3       11 UNK         0.1400 
     19 N           1.1319  -21.1394  -47.0754 N.am      11 UNK        -0.5000 
     20 C           0.5583  -21.6473  -45.9788 C.2       10 UNK         0.5000 
     21 O          -0.3922  -22.4262  -46.0116 O.2       10 UNK        -0.5000 
     22 CA          1.1308  -21.2129  -44.6172 C.3       10 UNK         0.1400 
     23 CB          2.5883  -21.6772  -44.4351 C.3       10 UNK        -0.1800 
     24 N           0.9912  -19.7833  -44.3287 N.am      10 UNK        -0.5000 
     25 C           1.5314  -18.7345  -44.9673 C.2       9 UNK         0.5000 
     26 O           2.2290  -18.8171  -45.9784 O.2       9 UNK        -0.5000 
     27 CA          1.2754  -17.3582  -44.3308 C.3       9 UNK         0.1400 
     28 CB         -0.1791  -16.9109  -44.5453 C.3       9 UNK        -0.1800 
     29 N           1.5810  -17.3586  -42.9036 N.am      9 UNK        -0.5000 
     30 C           2.7996  -17.5218  -42.3707 C.2       8 UNK         0.5000 
     31 O           3.8305  -17.5924  -43.0404 O.2       8 UNK        -0.5000 
     32 CA          2.8763  -17.6544  -40.8379 C.3       8 UNK         0.1400 
     33 CB          3.0098  -16.2840  -40.1609 C.3       8 UNK        -0.1800 
     34 N           1.6938  -18.3240  -40.3001 N.am      8 UNK        -0.5000 
     35 C           1.5782  -19.6468  -40.1303 C.2       7 UNK         0.5000 
     36 O           2.4775  -20.4508  -40.3773 O.2       7 UNK        -0.5000 
     37 CA          0.2311  -20.1638  -39.5873 C.3       7 UNK         0.1400 
     38 CB          0.2910  -20.3132  -38.0595 C.3       7 UNK        -0.1800 
     39 N          -0.9090  -19.3133  -39.9376 N.am      7 UNK        -0.5000 
     40 C          -1.3894  -19.1707  -41.1792 C.2       6 UNK         0.5000 
     41 O          -0.9070  -19.7229  -42.1682 O.2       6 UNK        -0.5000 
     42 CA         -2.5826  -18.2125  -41.3518 C.3       6 UNK         0.1400 
     43 CB         -3.8954  -18.9147  -40.9724 C.3       6 UNK        -0.1800 
     44 N          -2.4810  -16.9465  -40.6150 N.am      6 UNK        -0.5000 
     45 C          -1.4517  -16.0907  -40.6718 C.2       5 UNK         0.5000 
     46 O          -0.3744  -16.3467  -41.2071 O.2       5 UNK        -0.5000 
     47 CA         -1.6565  -14.7016  -40.0438 C.3       5 UNK         0.1400 
     48 CB         -0.6671  -14.4699  -38.8911 C.3       5 UNK        -0.1800 
     49 N          -1.4837  -13.6481  -41.0466 N.am      5 UNK        -0.5000 
     50 C          -2.2803  -13.4668  -42.1103 C.2       4 UNK         0.5000 
     51 O          -3.2889  -14.1413  -42.3238 O.2       4 UNK        -0.5000 
     52 CA         -1.9259  -12.3323  -43.0917 C.3       4 UNK         0.1400 
     53 CB         -2.9589  -11.1977  -42.9913 C.3       4 UNK        -0.1800 
     54 N          -0.5914  -11.7599  -42.8956 N.am      4 UNK        -0.5000 
     55 C           0.5422  -12.2651  -43.3986 C.2       3 UNK         0.5000 
     56 O           0.5941  -13.3229  -44.0303 O.2       3 UNK        -0.5000 
     57 CA          1.8073  -11.3958  -43.2233 C.3       3 UNK         0.1400 
     58 CB          1.9226  -10.7608  -41.8184 C.3       3 UNK        -0.1800 
     59 N           3.0357  -12.1034  -43.5990 N.am      3 UNK        -0.5000 
     60 C           3.6304  -13.1125  -42.9496 C.2       2 UNK         0.5000 
     61 O           3.2572  -13.5530  -41.8629 O.2       2 UNK        -0.5000 
     62 CA          4.8316  -13.7504  -43.6733 C.3       2 UNK         0.1400 
     63 CB          5.7431  -14.5581  -42.7337 C.3       2 UNK        -0.1800 
     64 N           4.3638  -14.6191  -44.7522 N.am      2 UNK        -0.5000 
     65 C           3.9818  -14.1826  -45.9587 C.2       1 UNK         0.5000 
     66 O           4.0481  -13.0007  -46.3077 O.2       1 UNK        -0.5000 
     67 C          -0.6661  -21.0073  -48.7848 C.2       11 UNK         0.5000 
     68 O          -1.4590  -21.8114  -49.2763 O.2       11 UNK        -0.5000 
     69 N          -0.9986  -19.7509  -48.4529 N.am      12 UNK        -0.5000 
     70 CA         -2.3390  -19.1881  -48.6397 C.3       12 UNK         0.1400 
     71 CB         -2.3136  -17.6799  -48.3589 C.3       12 UNK        -0.1800 
     72 C          -3.4042  -19.8861  -47.7723 C.2       12 UNK         0.5000 
     73 O          -4.5203  -20.1064  -48.2425 O.2       12 UNK        -0.5000 
     74 N          -3.0241  -20.2716  -46.5448 N.am      13 UNK        -0.5000 
     75 CA         -3.8596  -21.0361  -45.6139 C.3       13 UNK         0.1400 
     76 CB         -3.2057  -21.0355  -44.2259 C.3       13 UNK        -0.1800 
     77 C          -4.1309  -22.4738  -46.0990 C.2       13 UNK         0.5000 
     78 O          -5.2205  -22.9985  -45.8711 O.2       13 UNK        -0.5000 
     79 N          -3.1610  -23.0559  -46.8158 N.am      14 UNK        -0.5000 
     80 CA         -3.2598  -24.3322  -47.5254 C.3       14 UNK         0.1400 
     81 CB         -1.8527  -24.9458  -47.6345 C.3       14 UNK        -0.1800 
     82 C          -3.9279  -24.2020  -48.9130 C.2       14 UNK         0.5000 
     83 O          -3.8025  -25.1151  -49.7289 O.2       14 UNK        -0.5000 
     84 N          -4.6074  -23.0759  -49.1748 N.am      15 UNK        -0.5000 
     85 CA         -5.3424  -22.7402  -50.3954 C.3       15 UNK         0.1400 
     86 CB         -6.5414  -23.6915  -50.5972 C.3       15 UNK        -0.1800 
     87 C          -4.4295  -22.6474  -51.6338 C.2       15 UNK         0.5000 
     88 O          -4.7565  -23.2050  -52.6838 O.2       15 UNK        -0.5000 
     89 N          -3.2986  -21.9468  -51.4712 N.am      16 UNK        -0.5000 
     90 CA         -2.1947  -21.7933  -52.4270 C.3       16 UNK         0.1400 
     91 CB         -2.6671  -21.1331  -53.7379 C.3       16 UNK        -0.1800 
     92 C          -1.4417  -23.1194  -52.6513 C.2       16 UNK         0.5000 
     93 O          -0.9889  -23.3918  -53.7627 O.2       16 UNK        -0.5000 
     94 N          -1.3475  -23.9255  -51.5822 N.am      17 UNK        -0.5000 
     95 CA         -0.8796  -25.3147  -51.5620 C.3       17 UNK         0.1400 
     96 CB          0.6335  -25.3930  -51.8518 C.3       17 UNK        -0.1800 
     97 C          -1.7379  -26.2056  -52.4867 C.2       17 UNK         0.5000 
     98 O          -1.2079  -26.9023  -53.3544 O.2       17 UNK        -0.5000 
     99 N          -3.0607  -26.1307  -52.2767 N.am      18 UNK        -0.5000 
    100 CA        -4.1351  -26.7741  -53.0352 C.3       18 UNK         0.1400 
    101 CB        -4.1092  -28.3019  -52.8218 C.3       18 UNK        -0.1800 
    102 C         -4.1387  -26.3649  -54.5235 C.2       18 UNK         0.5000 
    103 O         -4.0800  -27.2255  -55.4046 O.2       18 UNK        -0.5000 
    104 N         -4.2126  -25.0523  -54.7749 N.am      19 UNK        -0.5000 
    105 CA        -4.2509  -24.4556  -56.1090 C.3       19 UNK         0.1400 
    106 CB        -2.8463  -23.9856  -56.5264 C.3       19 UNK        -0.1800 
    107 C         -5.3136  -23.3457  -56.1546 C.2       19 UNK         0.5000 
    108 O         -5.0102  -22.1952  -56.4753 O.2       19 UNK        -0.5000 
    109 N         -6.5563  -23.7340  -55.8351 N.am      20 UNK        -0.5000 
    110 CA        -7.7934  -22.9592  -55.9898 C.3       20 UNK         0.1400 
    111 CB        -8.0935  -22.7220  -57.4856 C.3       20 UNK        -0.1800 
    112 C         -7.8532  -21.6601  -55.1586 C.2       20 UNK         0.5000 
    113 O         -8.4555  -20.6793  -55.6006 O.2       20 UNK        -0.5000 
    114 N         -7.2443  -21.6769  -53.9627 N.am      21 UNK        -0.5000 
    115 CA        -7.3019  -20.6190  -52.9429 C.3       21 UNK         0.1400 
    116 CB        -8.7055  -20.5678  -52.3047 C.3       21 UNK        -0.1800 
    117 C         -6.8124  -19.2436  -53.4397 C.2       21 UNK         0.5000 
    118 O         -7.4025  -18.2165  -53.1008 O.2       21 UNK        -0.5000 
    119 N         -5.7498  -19.2674  -54.2537 N.am      22 UNK        -0.5000 
    120 CA        -5.1485  -18.1109  -54.9404 C.3       22 UNK         0.1400 
    121 C         -6.0032  -17.5467  -56.1188 C.2       22 UNK         0.5000 
    122 N         -7.0904  -18.1865  -56.5355 N.am      22 UNK        -0.7600 
    123 O         -5.6566  -16.5194  -56.6959 O.2       22 UNK        -0.5000 
    124 C124       -4.6618  -16.9821  -53.9808 C.3       23 UNK        -0.0398 
    125 S125       -3.5067  -17.5445  -52.6800 S.3       23 UNK        -0.2404 
    126 C126       -1.9210  -17.2675  -53.5262 C.3       23 UNK        -0.0205 
    127 H127        5.5058  -15.1261  -50.3535 H         1 UNK         0.0600 
    128 H128        6.3787  -16.6221  -50.0118 H         1 UNK         0.0600 
    129 H129        7.0623  -15.0683  -49.5210 H         1 UNK         0.0600 
    130 H130        3.8213  -14.7494  -48.9506 H         1 UNK         0.3000 
    131 H131        3.4933  -16.2144  -46.4792 H         1 UNK         0.0600 
    132 H132        1.8000  -13.9975  -47.7683 H         1 UNK         0.0800 
    133 H133        1.3650  -14.8191  -46.2976 H         1 UNK         0.0800 
    134 H134        0.4529  -14.7639  -49.8918 H         1 UNK         0.0800 
    135 H135        2.1258  -15.2361  -50.0944 H         1 UNK         0.0800 
    136 H136       -1.0136  -15.6460  -51.5479 H         1 UNK         0.1150 
    137 H137       -0.1802  -19.3830  -53.4798 H         1 UNK         0.1150 
    138 H138        2.4597  -17.8961  -50.4486 H         1 UNK         0.1150 
    139 H139        2.1548  -20.2824  -53.1896 H         1 UNK         0.0800 
    140 H140        3.1397  -19.7765  -51.8436 H         1 UNK         0.0800 
    141 H141        1.8740  -19.8480  -49.3833 H         1 UNK         0.0800 
    142 H142        2.8099  -21.2942  -49.1700 H         1 UNK         0.0800 
    143 H143        0.7743  -22.5567  -48.5317 H         1 UNK         0.0600 
    144 H144        1.8394  -20.4231  -46.9350 H         1 UNK         0.3000 
    145 H145        0.5356  -21.7201  -43.8559 H         1 UNK         0.0600 
    146 H146        2.6758  -22.7538  -44.5861 H         1 UNK         0.0600 
    147 H147        3.2671  -21.1927  -45.1374 H         1 UNK         0.0600 
    148 H148        2.9430  -21.4603  -43.4271 H         1 UNK         0.0600 
    149 H149        0.4045  -19.5877  -43.5203 H         1 UNK         0.3000 
    150 H150        1.9313  -16.6314  -44.8071 H         1 UNK         0.0600 
    151 H151       -0.3533  -15.9224  -44.1196 H         1 UNK         0.0600 
    152 H152       -0.8883  -17.5994  -44.0865 H         1 UNK         0.0600 
    153 H153       -0.4170  -16.8529  -45.6068 H         1 UNK         0.0600 
    154 H154        0.7990  -17.1973  -42.2729 H         1 UNK         0.3000 
    155 H155        3.7683  -18.2358  -40.5949 H         1 UNK         0.0600 
    156 H156        3.9404  -15.7957  -40.4467 H         1 UNK         0.0600 
    157 H157        3.0170  -16.3773  -39.0749 H         1 UNK         0.0600 
    158 H158        2.1904  -15.6188  -40.4347 H         1 UNK         0.0600 
    159 H159        0.8829  -17.7397  -40.1417 H         1 UNK         0.3000 
    160 H160        0.0614  -21.1520  -40.0203 H         1 UNK         0.0600 
    161 H161        1.1146  -20.9639  -37.7624 H         1 UNK         0.0600 
    162 H162       -0.6265  -20.7545  -37.6696 H         1 UNK         0.0600 
    163 H163        0.4382  -19.3514  -37.5665 H         1 UNK         0.0600 
    164 H164       -1.3533  -18.8075  -39.1853 H         1 UNK         0.3000 
    165 H165       -2.6356  -17.9560  -42.4113 H         1 UNK         0.0600 
    166 H166       -4.7594  -18.3040  -41.2354 H         1 UNK         0.0600 
    167 H167       -4.0010  -19.8651  -41.4966 H         1 UNK         0.0600 
    168 H168       -3.9453  -19.1243  -39.9033 H         1 UNK         0.0600 
    169 H169       -3.3238  -16.6454  -40.1473 H         1 UNK         0.3000 
    170 H170       -2.6709  -14.6333  -39.6455 H         1 UNK         0.0600 
    171 H171       -0.8495  -13.5128  -38.4021 H         1 UNK         0.0600 
    172 H172       -0.7630  -15.2466  -38.1312 H         1 UNK         0.0600 
    173 H173        0.3667  -14.4759  -39.2384 H         1 UNK         0.0600 
    174 H174       -0.6565  -13.0764  -40.9678 H         1 UNK         0.3000 
    175 H175       -1.9841  -12.7509  -44.0989 H         1 UNK         0.0600 
    176 H176       -2.9533  -10.7344  -42.0039 H         1 UNK         0.0600 
    177 H177       -2.7635  -10.4195  -43.7294 H         1 UNK         0.0600 
    178 H178       -3.9686  -11.5680  -43.1741 H         1 UNK         0.0600 
    179 H179       -0.5522  -10.8840  -42.3946 H         1 UNK         0.3000 
    180 H180        1.7125  -10.5812  -43.9427 H         1 UNK         0.0600 
    181 H181        2.8741  -10.2428  -41.6977 H         1 UNK         0.0600 
    182 H182        1.8453  -11.5053  -41.0254 H         1 UNK         0.0600 
    183 H183        1.1379  -10.0229  -41.6502 H         1 UNK         0.0600 
    184 H184        3.3832  -11.8965  -44.5281 H         1 UNK         0.3000 
    185 H185        5.4361  -12.9424  -44.0915 H         1 UNK         0.0600 
    186 H186        5.2368  -15.4323  -42.3285 H         1 UNK         0.0600 
    187 H187        6.6345  -14.9051  -43.2564 H         1 UNK         0.0600 
    188 H188        6.0755  -13.9493  -41.8920 H         1 UNK         0.0600 
    189 H189        4.2775  -15.6005  -44.5228 H         1 UNK         0.3000 
    190 H190       -0.2965  -19.1431  -48.0561 H         1 UNK         0.3000 
    191 H191       -2.6188  -19.3292  -49.6863 H         1 UNK         0.0600 
    192 H192       -1.9879  -17.4619  -47.3419 H         1 UNK         0.0600 
    193 H193       -3.3040  -17.2418  -48.4892 H         1 UNK         0.0600 
    194 H194       -1.6437  -17.1653  -49.0467 H         1 UNK         0.0600 
    195 H195       -2.0782  -20.0802  -46.2521 H         1 UNK         0.3000 
    196 H196       -4.8233  -20.5286  -45.5336 H         1 UNK         0.0600 
    197 H197       -3.8261  -21.5633  -43.5008 H         1 UNK         0.0600 
    198 H198       -3.0724  -20.0178  -43.8615 H         1 UNK         0.0600 
    199 H199       -2.2286  -21.5187  -44.2341 H         1 UNK         0.0600 
    200 H200       -2.2732  -22.5739  -46.9032 H         1 UNK         0.3000 
    201 H201       -3.8778  -25.0143  -46.9385 H         1 UNK         0.0600 
    202 H202       -1.3940  -25.0532  -46.6515 H         1 UNK         0.0600 
    203 H203       -1.1910  -24.3303  -48.2442 H         1 UNK         0.0600 
    204 H204       -1.8870  -25.9393  -48.0829 H         1 UNK         0.0600 
    205 H205       -4.6156  -22.3583  -48.4615 H         1 UNK         0.3000 
    206 H206       -5.7410  -21.7395  -50.2280 H         1 UNK         0.0600 
    207 H207       -7.1648  -23.3682  -51.4308 H         1 UNK         0.0600 
    208 H208       -6.2215  -24.7120  -50.8094 H         1 UNK         0.0600 
    209 H209       -7.1760  -23.7172  -49.7114 H         1 UNK         0.0600 
    210 H210       -3.0844  -21.6141  -50.5380 H         1 UNK         0.3000 
    211 H211       -1.4805  -21.1138  -51.9608 H         1 UNK         0.0600 
    212 H212       -3.3603  -21.7650  -54.2892 H         1 UNK         0.0600 
    213 H213       -1.8265  -20.9198  -54.3983 H         1 UNK         0.0600 
    214 H214       -3.1695  -20.1917  -53.5385 H         1 UNK         0.0600 
    215 H215       -1.7215  -23.5729  -50.7107 H         1 UNK         0.3000 
    216 H216       -1.0377  -25.6808  -50.5470 H         1 UNK         0.0600 
    217 H217        0.9996  -26.4131  -51.7314 H         1 UNK         0.0600 
    218 H218        1.1976  -24.7613  -51.1654 H         1 UNK         0.0600 
    219 H219        0.8722  -25.0786  -52.8679 H         1 UNK         0.0600 
    220 H220       -3.3733  -25.5661  -51.4898 H         1 UNK         0.3000 
    221 H221       -5.0693  -26.4009  -52.6129 H         1 UNK         0.0600 
    222 H222       -3.2085  -28.7562  -53.2357 H         1 UNK         0.0600 
    223 H223       -4.1532  -28.5511  -51.7616 H         1 UNK         0.0600 
    224 H224       -4.9653  -28.7770  -53.3023 H         1 UNK         0.0600 
    225 H225       -4.2979  -24.4010  -53.9951 H         1 UNK         0.3000 
    226 H226       -4.5733  -25.2020  -56.8379 H         1 UNK         0.0600 
    227 H227       -2.1236  -24.7995  -56.4674 H         1 UNK         0.0600 
    228 H228       -2.8477  -23.6233  -57.5548 H         1 UNK         0.0600 
    229 H229       -2.4857  -23.1743  -55.8972 H         1 UNK         0.0600 
    230 H230       -6.6816  -24.6922  -55.5395 H         1 UNK         0.3000 
    231 H231       -8.5915  -23.5913  -55.5978 H         1 UNK         0.0600 
    232 H232       -7.3698  -22.0445  -57.9403 H         1 UNK         0.0600 
    233 H233       -8.0756  -23.6571  -58.0453 H         1 UNK         0.0600 
    234 H234       -9.0827  -22.2840  -57.6241 H         1 UNK         0.0600 
    235 H235       -6.7054  -22.4985  -53.7180 H         1 UNK         0.3000 
    236 H236       -6.6037  -20.9001  -52.1604 H         1 UNK         0.0600 
    237 H237       -9.4619  -20.2403  -53.0188 H         1 UNK         0.0600 
    238 H238       -9.0029  -21.5458  -51.9263 H         1 UNK         0.0600 
    239 H239       -8.7288  -19.8758  -51.4620 H         1 UNK         0.0600 
    240 H240       -5.3723  -20.1685  -54.5117 H         1 UNK         0.3000 
    241 H241       -4.2597  -18.5131  -55.4274 H         1 UNK         0.0600 
    242 H242       -7.6166  -17.8069  -57.3063 H         1 UNK         0.3800 
    243 H243       -7.4165  -19.0339  -56.0826 H         1 UNK         0.3800 
    244 H244       -4.1759  -16.1861  -54.5470 H         1 UNK         0.0800 
    245 H245       -5.5111  -16.5044  -53.4918 H         1 UNK         0.0800 
    246 H246       -1.8838  -16.2454  -53.9060 H         1 UNK         0.0800 
    247 H247       -1.8617  -17.9216  -54.3974 H         1 UNK         0.0800 
@<TRIPOS>BOND
     1    1    2 1    
     2    1  127 1    
     3    1  128 1    
     4    1  129 1    
     5    2    3 2    
     6    2    4 am   BACKBONE|DICT|INTERRES
     7    4    5 1    
     8    4  130 1    
     9    5    6 1    
    10    5   65 1    
    11    5  131 1    
    12    6    7 1    
    13    6  132 1    
    14    6  133 1    
    15    7    8 1    
    16    8    9 1    
    17    8  134 1    
    18    8  135 1    
    19    9   10 ar   
    20    9   14 ar   
    21   10   11 ar   
    22   10  136 1    
    23   11   12 ar   
    24   11  126 1    
    25   12   13 ar   
    26   12  137 1    
    27   13   14 ar   
    28   13   15 1    
    29   14  138 1    
    30   15   16 1    
    31   15  139 1    
    32   15  140 1    
    33   16   17 1    
    34   17   18 1    
    35   17  141 1    
    36   17  142 1    
    37   18   19 1    
    38   18   67 1    
    39   18  143 1    
    40   19   20 am   BACKBONE|DICT|INTERRES
    41   19  144 1    
    42   20   21 2    
    43   20   22 1    
    44   22   23 1    
    45   22   24 1    
    46   22  145 1    
    47   23  146 1    
    48   23  147 1    
    49   23  148 1    
    50   24   25 am   BACKBONE|DICT|INTERRES
    51   24  149 1    
    52   25   26 2    
    53   25   27 1    
    54   27   28 1    
    55   27   29 1    
    56   27  150 1    
    57   28  151 1    
    58   28  152 1    
    59   28  153 1    
    60   29   30 am   BACKBONE|DICT|INTERRES
    61   29  154 1    
    62   30   31 2    
    63   30   32 1    
    64   32   33 1    
    65   32   34 1    
    66   32  155 1    
    67   33  156 1    
    68   33  157 1    
    69   33  158 1    
    70   34   35 am   BACKBONE|DICT|INTERRES
    71   34  159 1    
    72   35   36 2    
    73   35   37 1    
    74   37   38 1    
    75   37   39 1    
    76   37  160 1    
    77   38  161 1    
    78   38  162 1    
    79   38  163 1    
    80   39   40 am   BACKBONE|DICT|INTERRES
    81   39  164 1    
    82   40   41 2    
    83   40   42 1    
    84   42   43 1    
    85   42   44 1    
    86   42  165 1    
    87   43  166 1    
    88   43  167 1    
    89   43  168 1    
    90   44   45 am   BACKBONE|DICT|INTERRES
    91   44  169 1    
    92   45   46 2    
    93   45   47 1    
    94   47   48 1    
    95   47   49 1    
    96   47  170 1    
    97   48  171 1    
    98   48  172 1    
    99   48  173 1    
   100   49   50 am   BACKBONE|DICT|INTERRES
   101   49  174 1    
   102   50   51 2    
   103   50   52 1    
   104   52   53 1    
   105   52   54 1    
   106   52  175 1    
   107   53  176 1    
   108   53  177 1    
   109   53  178 1    
   110   54   55 am   BACKBONE|DICT|INTERRES
   111   54  179 1    
   112   55   56 2    
   113   55   57 1    
   114   57   58 1    
   115   57   59 1    
   116   57  180 1    
   117   58  181 1    
   118   58  182 1    
   119   58  183 1    
   120   59   60 am   BACKBONE|DICT|INTERRES
   121   59  184 1    
   122   60   61 2    
   123   60   62 1    
   124   62   63 1    
   125   62   64 1    
   126   62  185 1    
   127   63  186 1    
   128   63  187 1    
   129   63  188 1    
   130   64   65 am   BACKBONE|DICT|INTERRES
   131   64  189 1    
   132   65   66 2    
   133   67   68 2    
   134   67   69 am   BACKBONE|DICT|INTERRES
   135   69   70 1    
   136   69  190 1    
   137   70   71 1    
   138   70   72 1    
   139   70  191 1    
   140   71  192 1    
   141   71  193 1    
   142   71  194 1    
   143   72   73 2    
   144   72   74 am   BACKBONE|DICT|INTERRES
   145   74   75 1    
   146   74  195 1    
   147   75   76 1    
   148   75   77 1    
   149   75  196 1    
   150   76  197 1    
   151   76  198 1    
   152   76  199 1    
   153   77   78 2    
   154   77   79 am   BACKBONE|DICT|INTERRES
   155   79   80 1    
   156   79  200 1    
   157   80   81 1    
   158   80   82 1    
   159   80  201 1    
   160   81  202 1    
   161   81  203 1    
   162   81  204 1    
   163   82   83 2    
   164   82   84 am   BACKBONE|DICT|INTERRES
   165   84   85 1    
   166   84  205 1    
   167   85   86 1    
   168   85   87 1    
   169   85  206 1    
   170   86  207 1    
   171   86  208 1    
   172   86  209 1    
   173   87   88 2    
   174   87   89 am   BACKBONE|DICT|INTERRES
   175   89   90 1    
   176   89  210 1    
   177   90   91 1    
   178   90   92 1    
   179   90  211 1    
   180   91  212 1    
   181   91  213 1    
   182   91  214 1    
   183   92   93 2    
   184   92   94 am   BACKBONE|DICT|INTERRES
   185   94   95 1    
   186   94  215 1    
   187   95   96 1    
   188   95   97 1    
   189   95  216 1    
   190   96  217 1    
   191   96  218 1    
   192   96  219 1    
   193   97   98 2    
   194   97   99 am   BACKBONE|DICT|INTERRES
   195   99  100 1    
   196   99  220 1    
   197  100  101 1    
   198  100  102 1    
   199  100  221 1    
   200  101  222 1    
   201  101  223 1    
   202  101  224 1    
   203  102  103 2    
   204  102  104 am   BACKBONE|DICT|INTERRES
   205  104  105 1    
   206  104  225 1    
   207  105  106 1    
   208  105  107 1    
   209  105  226 1    
   210  106  227 1    
   211  106  228 1    
   212  106  229 1    
   213  107  108 2    
   214  107  109 am   BACKBONE|DICT|INTERRES
   215  109  110 1    
   216  109  230 1    
   217  110  111 1    
   218  110  112 1    
   219  110  231 1    
   220  111  232 1    
   221  111  233 1    
   222  111  234 1    
   223  112  113 2    
   224  112  114 am   BACKBONE|DICT|INTERRES
   225  114  115 1    
   226  114  235 1    
   227  115  116 1    
   228  115  117 1    
   229  115  236 1    
   230  116  237 1    
   231  116  238 1    
   232  116  239 1    
   233  117  118 2    
   234  117  119 am   BACKBONE|DICT|INTERRES
   235  119  120 1    
   236  119  240 1    
   237  120  121 1    
   238  120  124 1    
   239  120  241 1    
   240  121  122 am   BACKBONE|DICT|INTERRES
   241  121  123 2    
   242  122  242 1    
   243  122  243 1    
   244  124  125 1    
   245  124  244 1    
   246  124  245 1    
   247  125  126 1    
   248  126  246 1    
   249  126  247 1    
@<TRIPOS>SUBSTRUCTURE
     1 UNK         1 GROUP             0       ****    0 ROOT    
