@<TRIPOS>MOLECULE
3R540
247   249    1
SMALL
USER_CHARGES


@<TRIPOS>ATOM
      1 CA         -1.4450  -18.0677  -45.4111 C.3       0 UNK        -0.1800 
      2 C          -0.8254  -16.8986  -46.1541 C.2       0 UNK         0.5000 
      3 O          -0.4914  -15.8905  -45.5305 O.2       0 UNK        -0.5000 
      4 N          -0.6606  -17.0478  -47.4730 N.am      1 UNK        -0.5000 
      5 CA         -0.2582  -16.0252  -48.4426 C.3       1 UNK         0.1400 
      6 C6          0.9775  -15.1845  -48.0097 C.3       23 UNK        -0.0398 
      7 S7          2.0225  -14.7171  -49.4290 S.3       23 UNK        -0.2404 
      8 C8          3.3895  -15.9157  -49.2882 C.3       23 UNK        -0.0205 
      9 C9          2.9039  -17.3551  -49.3881 C.ar      23 UNK        -0.0193 
     10 C10         2.5611  -17.8991  -50.6289 C.ar      23 UNK        -0.1150 
     11 C11         2.0978  -19.2146  -50.7224 C.ar      23 UNK        -0.0193 
     12 C12         1.9819  -19.9878  -49.5644 C.ar      23 UNK        -0.1150 
     13 C13         2.3222  -19.4561  -48.3173 C.ar      23 UNK        -0.0193 
     14 C14         2.7898  -18.1423  -48.2382 C.ar      23 UNK        -0.1150 
     15 C15         2.1576  -20.2830  -47.0508 C.3       23 UNK        -0.0205 
     16 S16         3.7150  -21.0697  -46.5277 S.3       23 UNK        -0.2404 
     17 C17         3.8524  -22.4577  -47.7057 C.3       23 UNK        -0.0398 
     18 CA          3.7139  -23.8490  -47.0384 C.3       11 UNK         0.1400 
     19 N           2.4534  -24.0063  -46.3036 N.am      11 UNK        -0.5000 
     20 C           2.1939  -24.9696  -45.4110 C.2       10 UNK         0.5000 
     21 O           3.0502  -25.7608  -45.0123 O.2       10 UNK        -0.5000 
     22 CA          0.7360  -25.0913  -44.9017 C.3       10 UNK         0.1400 
     23 CB          0.6300  -25.9083  -43.6016 C.3       10 UNK        -0.1800 
     24 N           0.0377  -23.8165  -44.7047 N.am      10 UNK        -0.5000 
     25 C          -0.3878  -22.9813  -45.6605 C.2       9 UNK         0.5000 
     26 O          -0.1844  -23.1717  -46.8586 O.2       9 UNK        -0.5000 
     27 CA         -1.1597  -21.7241  -45.2202 C.3       9 UNK         0.1400 
     28 CB         -2.6467  -21.8466  -45.5830 C.3       9 UNK        -0.1800 
     29 N          -1.0518  -21.4206  -43.7909 N.am      9 UNK        -0.5000 
     30 C           0.0311  -20.8982  -43.2041 C.2       8 UNK         0.5000 
     31 O           1.0746  -20.6377  -43.8029 O.2       8 UNK        -0.5000 
     32 CA         -0.0917  -20.5690  -41.7075 C.3       8 UNK         0.1400 
     33 CB          1.1181  -21.0893  -40.9148 C.3       8 UNK        -0.1800 
     34 N          -0.1841  -19.1232  -41.5455 N.am      8 UNK        -0.5000 
     35 C          -1.2706  -18.3831  -41.7895 C.2       7 UNK         0.5000 
     36 O          -2.3768  -18.8640  -42.0363 O.2       7 UNK        -0.5000 
     37 CA         -1.0913  -16.8516  -41.8033 C.3       7 UNK         0.1400 
     38 CB         -1.0666  -16.2720  -40.3769 C.3       7 UNK        -0.1800 
     39 N           0.0557  -16.3871  -42.5963 N.am      7 UNK        -0.5000 
     40 C           1.3689  -16.5599  -42.3787 C.2       6 UNK         0.5000 
     41 O           1.8360  -17.1712  -41.4171 O.2       6 UNK        -0.5000 
     42 CA          2.3254  -15.9511  -43.4164 C.3       6 UNK         0.1400 
     43 CB          2.6803  -16.9801  -44.5008 C.3       6 UNK        -0.1800 
     44 N           1.7560  -14.7534  -44.0383 N.am      6 UNK        -0.5000 
     45 C           1.9187  -13.5172  -43.5479 C.2       5 UNK         0.5000 
     46 O           2.5967  -13.2612  -42.5517 O.2       5 UNK        -0.5000 
     47 CA          1.2243  -12.3635  -44.2920 C.3       5 UNK         0.1400 
     48 CB          2.1536  -11.7863  -45.3711 C.3       5 UNK        -0.1800 
     49 N          -0.0445  -12.7322  -44.9156 N.am      5 UNK        -0.5000 
     50 C          -1.1910  -12.9801  -44.2666 C.2       4 UNK         0.5000 
     51 O          -1.2803  -13.0311  -43.0391 O.2       4 UNK        -0.5000 
     52 CA         -2.4447  -13.1891  -45.1487 C.3       4 UNK         0.1400 
     53 CB         -3.7553  -12.8005  -44.4341 C.3       4 UNK        -0.1800 
     54 N          -2.3398  -12.5372  -46.4633 N.am      4 UNK        -0.5000 
     55 C          -2.2295  -11.2214  -46.7178 C.2       3 UNK         0.5000 
     56 O          -2.3009  -10.3533  -45.8475 O.2       3 UNK        -0.5000 
     57 CA         -1.9363  -10.7910  -48.1720 C.3       3 UNK         0.1400 
     58 CB         -0.6353   -9.9727  -48.2417 C.3       3 UNK        -0.1800 
     59 N          -1.8063  -11.9245  -49.0885 N.am      3 UNK        -0.5000 
     60 C          -2.8058  -12.4637  -49.7971 C.2       2 UNK         0.5000 
     61 O          -3.9573  -12.0287  -49.8031 O.2       2 UNK        -0.5000 
     62 CA         -2.4591  -13.7216  -50.6193 C.3       2 UNK         0.1400 
     63 CB         -2.0511  -13.3312  -52.0478 C.3       2 UNK        -0.1800 
     64 N          -1.3975  -14.5488  -50.0350 N.am      2 UNK        -0.5000 
     65 C          -1.4599  -15.1404  -48.8350 C.2       1 UNK         0.5000 
     66 O          -2.4030  -14.9841  -48.0566 O.2       1 UNK        -0.5000 
     67 C           3.8507  -24.9566  -48.1046 C.2       11 UNK         0.5000 
     68 O           4.9423  -25.4924  -48.2983 O.2       11 UNK        -0.5000 
     69 N           2.7227  -25.2827  -48.7501 N.am      12 UNK        -0.5000 
     70 CA          2.5472  -26.3434  -49.7380 C.3       12 UNK         0.1400 
     71 CB          3.3553  -26.0711  -51.0237 C.3       12 UNK        -0.1800 
     72 C           1.0489  -26.4628  -50.0425 C.2       12 UNK         0.5000 
     73 O           0.4603  -27.5268  -49.8486 O.2       12 UNK        -0.5000 
     74 N           0.4478  -25.3428  -50.4661 N.am      13 UNK        -0.5000 
     75 CA         -0.9761  -25.2012  -50.7672 C.3       13 UNK         0.1400 
     76 CB         -1.1454  -24.0759  -51.8045 C.3       13 UNK        -0.1800 
     77 C          -1.7856  -24.9550  -49.4791 C.2       13 UNK         0.5000 
     78 O          -2.3052  -23.8564  -49.2752 O.2       13 UNK        -0.5000 
     79 N          -1.8469  -25.9823  -48.6195 N.am      14 UNK        -0.5000 
     80 CA         -2.5311  -25.9821  -47.3243 C.3       14 UNK         0.1400 
     81 CB         -2.4223  -27.3772  -46.6924 C.3       14 UNK        -0.1800 
     82 C          -4.0011  -25.5335  -47.4254 C.2       14 UNK         0.5000 
     83 O          -4.7282  -26.0122  -48.2989 O.2       14 UNK        -0.5000 
     84 N          -4.3807  -24.5833  -46.5602 N.am      15 UNK        -0.5000 
     85 CA         -5.6291  -23.8063  -46.5204 C.3       15 UNK         0.1400 
     86 CB         -6.8598  -24.7120  -46.3266 C.3       15 UNK        -0.1800 
     87 C          -5.8176  -22.8531  -47.7202 C.2       15 UNK         0.5000 
     88 O          -6.1655  -21.6894  -47.5204 O.2       15 UNK        -0.5000 
     89 N          -5.5716  -23.3540  -48.9353 N.am      16 UNK        -0.5000 
     90 CA         -5.7446  -22.6695  -50.2147 C.3       16 UNK         0.1400 
     91 CB         -5.4660  -23.6742  -51.3410 C.3       16 UNK        -0.1800 
     92 C          -4.8869  -21.4001  -50.3744 C.2       16 UNK         0.5000 
     93 O          -5.3735  -20.4113  -50.9252 O.2       16 UNK        -0.5000 
     94 N          -3.6498  -21.4185  -49.8574 N.am      17 UNK        -0.5000 
     95 CA         -2.7089  -20.2966  -49.9139 C.3       17 UNK         0.1400 
     96 CB         -1.3756  -20.7002  -49.2738 C.3       17 UNK        -0.1800 
     97 C          -3.2231  -19.0061  -49.2533 C.2       17 UNK         0.5000 
     98 O          -2.9066  -17.9209  -49.7364 O.2       17 UNK        -0.5000 
     99 N          -4.0260  -19.1356  -48.1867 N.am      18 UNK        -0.5000 
    100 CA        -4.6593  -18.0099  -47.4902 C.3       18 UNK         0.1400 
    101 CB        -5.2099  -18.4919  -46.1397 C.3       18 UNK        -0.1800 
    102 C         -5.7691  -17.3293  -48.3177 C.2       18 UNK         0.5000 
    103 O         -6.0959  -16.1722  -48.0560 O.2       18 UNK        -0.5000 
    104 N         -6.3093  -18.0459  -49.3124 N.am      19 UNK        -0.5000 
    105 CA        -7.2616  -17.5428  -50.3022 C.3       19 UNK         0.1400 
    106 CB        -8.3169  -18.6321  -50.5638 C.3       19 UNK        -0.1800 
    107 C         -6.5559  -17.1175  -51.6083 C.2       19 UNK         0.5000 
    108 O         -7.2372  -16.8771  -52.6052 O.2       19 UNK        -0.5000 
    109 N         -5.2133  -17.0530  -51.5895 N.am      20 UNK        -0.5000 
    110 CA        -4.2996  -16.7441  -52.6966 C.3       20 UNK         0.1400 
    111 CB        -4.6232  -15.3738  -53.3298 C.3       20 UNK        -0.1800 
    112 C         -4.2044  -17.8549  -53.7635 C.2       20 UNK         0.5000 
    113 O         -3.5592  -17.6470  -54.7927 O.2       20 UNK        -0.5000 
    114 N         -4.8107  -19.0228  -53.5143 N.am      21 UNK        -0.5000 
    115 CA        -4.8520  -20.1611  -54.4294 C.3       21 UNK         0.1400 
    116 CB        -6.1881  -20.9032  -54.2480 C.3       21 UNK        -0.1800 
    117 C         -3.6139  -21.0606  -54.2501 C.2       21 UNK         0.5000 
    118 O         -3.7392  -22.2491  -53.9549 O.2       21 UNK        -0.5000 
    119 N         -2.4312  -20.4638  -54.4359 N.am      22 UNK        -0.5000 
    120 CA        -1.1242  -21.1409  -54.4096 C.3       22 UNK         0.1400 
    121 C         -0.8595  -22.0894  -55.6182 C.2       22 UNK         0.5000 
    122 N         -1.6273  -22.0306  -56.6999 N.am      22 UNK        -0.7600 
    123 O          0.0624  -22.8987  -55.5703 O.2       22 UNK        -0.5000 
    124 C124        0.0326  -20.1213  -54.2576 C.3       23 UNK        -0.0398 
    125 S125        0.0678  -19.3305  -52.6119 S.3       23 UNK        -0.2404 
    126 C126        1.7420  -19.8052  -52.0762 C.3       23 UNK        -0.0205 
    127 H127       -1.8551  -18.8084  -46.0964 H         1 UNK         0.0600 
    128 H128       -2.2522  -17.7188  -44.7677 H         1 UNK         0.0600 
    129 H129       -0.6900  -18.5463  -44.7903 H         1 UNK         0.0600 
    130 H130       -0.9830  -17.9016  -47.9015 H         1 UNK         0.3000 
    131 H131        0.0061  -16.6032  -49.3301 H         1 UNK         0.0600 
    132 H132        0.6807  -14.2816  -47.4746 H         1 UNK         0.0800 
    133 H133        1.5944  -15.7410  -47.3045 H         1 UNK         0.0800 
    134 H134        3.9185  -15.7513  -48.3481 H         1 UNK         0.0800 
    135 H135        4.1127  -15.7220  -50.0816 H         1 UNK         0.0800 
    136 H136        2.6467  -17.2952  -51.5214 H         1 UNK         0.1150 
    137 H137        1.6121  -21.0004  -49.6355 H         1 UNK         0.1150 
    138 H138        3.0557  -17.7309  -47.2761 H         1 UNK         0.1150 
    139 H139        1.3894  -21.0422  -47.1918 H         1 UNK         0.0800 
    140 H140        1.8026  -19.6408  -46.2436 H         1 UNK         0.0800 
    141 H141        4.8247  -22.3722  -48.1943 H         1 UNK         0.0800 
    142 H142        3.1117  -22.3412  -48.4961 H         1 UNK         0.0800 
    143 H143        4.5364  -23.9666  -46.3295 H         1 UNK         0.0600 
    144 H144        1.6777  -23.4157  -46.5848 H         1 UNK         0.3000 
    145 H145        0.1993  -25.6443  -45.6747 H         1 UNK         0.0600 
    146 H146        1.0496  -26.9074  -43.7259 H         1 UNK         0.0600 
    147 H147       -0.4096  -26.0356  -43.2988 H         1 UNK         0.0600 
    148 H148        1.1631  -25.4259  -42.7814 H         1 UNK         0.0600 
    149 H149       -0.1414  -23.5558  -43.7467 H         1 UNK         0.3000 
    150 H150       -0.7383  -20.8920  -45.7858 H         1 UNK         0.0600 
    151 H151       -3.1444  -22.5919  -44.9633 H         1 UNK         0.0600 
    152 H152       -2.7835  -22.1335  -46.6265 H         1 UNK         0.0600 
    153 H153       -3.1641  -20.8994  -45.4381 H         1 UNK         0.0600 
    154 H154       -1.8841  -21.5622  -43.2358 H         1 UNK         0.3000 
    155 H155       -0.9918  -21.0367  -41.3028 H         1 UNK         0.0600 
    156 H156        1.0067  -20.8853  -39.8498 H         1 UNK         0.0600 
    157 H157        2.0492  -20.6274  -41.2467 H         1 UNK         0.0600 
    158 H158        1.2261  -22.1684  -41.0308 H         1 UNK         0.0600 
    159 H159        0.6887  -18.6240  -41.3925 H         1 UNK         0.3000 
    160 H160       -1.9700  -16.4405  -42.3030 H         1 UNK         0.0600 
    161 H161       -0.2234  -16.6458  -39.7958 H         1 UNK         0.0600 
    162 H162       -1.9760  -16.5358  -39.8358 H         1 UNK         0.0600 
    163 H163       -1.0042  -15.1838  -40.3976 H         1 UNK         0.0600 
    164 H164       -0.1952  -15.9123  -43.4559 H         1 UNK         0.3000 
    165 H165        3.2513  -15.6917  -42.8983 H         1 UNK         0.0600 
    166 H166        3.1398  -17.8668  -44.0616 H         1 UNK         0.0600 
    167 H167        1.8032  -17.3133  -45.0529 H         1 UNK         0.0600 
    168 H168        3.3920  -16.5649  -45.2141 H         1 UNK         0.0600 
    169 H169        1.1190  -14.8990  -44.8139 H         1 UNK         0.3000 
    170 H170        1.0230  -11.5769  -43.5617 H         1 UNK         0.0600 
    171 H171        1.7149  -10.9049  -45.8390 H         1 UNK         0.0600 
    172 H172        2.3639  -12.5152  -46.1550 H         1 UNK         0.0600 
    173 H173        3.1090  -11.4817  -44.9419 H         1 UNK         0.0600 
    174 H174       -0.0741  -12.7175  -45.9221 H         1 UNK         0.3000 
    175 H175       -2.5003  -14.2587  -45.3496 H         1 UNK         0.0600 
    176 H176       -3.9084  -13.4101  -43.5429 H         1 UNK         0.0600 
    177 H177       -3.7537  -11.7573  -44.1178 H         1 UNK         0.0600 
    178 H178       -4.6176  -12.9548  -45.0827 H         1 UNK         0.0600 
    179 H179       -2.3208  -13.1849  -47.2450 H         1 UNK         0.3000 
    180 H180       -2.7590  -10.1486  -48.4927 H         1 UNK         0.0600 
    181 H181        0.2259  -10.5554  -47.9130 H         1 UNK         0.0600 
    182 H182       -0.6919   -9.0852  -47.6101 H         1 UNK         0.0600 
    183 H183       -0.4399   -9.6307  -49.2583 H         1 UNK         0.0600 
    184 H184       -0.8912  -12.3435  -49.1635 H         1 UNK         0.3000 
    185 H185       -3.3597  -14.3365  -50.6679 H         1 UNK         0.0600 
    186 H186       -2.8409  -12.7606  -52.5382 H         1 UNK         0.0600 
    187 H187       -1.1499  -12.7168  -52.0545 H         1 UNK         0.0600 
    188 H188       -1.8586  -14.2126  -52.6596 H         1 UNK         0.0600 
    189 H189       -0.5819  -14.7026  -50.6113 H         1 UNK         0.3000 
    190 H190        1.8699  -24.8161  -48.4725 H         1 UNK         0.3000 
    191 H191        2.8809  -27.2863  -49.3001 H         1 UNK         0.0600 
    192 H192        4.4281  -26.1304  -50.8421 H         1 UNK         0.0600 
    193 H193        3.1427  -25.0848  -51.4371 H         1 UNK         0.0600 
    194 H194        3.1225  -26.8080  -51.7935 H         1 UNK         0.0600 
    195 H195        1.0069  -24.5113  -50.5850 H         1 UNK         0.3000 
    196 H196       -1.3466  -26.1246  -51.2173 H         1 UNK         0.0600 
    197 H197       -0.6341  -24.3205  -52.7358 H         1 UNK         0.0600 
    198 H198       -0.7437  -23.1293  -51.4451 H         1 UNK         0.0600 
    199 H199       -2.1956  -23.9149  -52.0482 H         1 UNK         0.0600 
    200 H200       -1.3646  -26.8346  -48.8765 H         1 UNK         0.3000 
    201 H201       -1.9986  -25.2777  -46.6850 H         1 UNK         0.0600 
    202 H202       -2.8977  -27.4003  -45.7110 H         1 UNK         0.0600 
    203 H203       -1.3809  -27.6693  -46.5553 H         1 UNK         0.0600 
    204 H204       -2.9055  -28.1353  -47.3102 H         1 UNK         0.0600 
    205 H205       -3.6899  -24.2787  -45.8912 H         1 UNK         0.3000 
    206 H206       -5.5538  -23.1741  -45.6342 H         1 UNK         0.0600 
    207 H207       -6.7469  -25.3475  -45.4483 H         1 UNK         0.0600 
    208 H208       -7.7606  -24.1143  -46.1820 H         1 UNK         0.0600 
    209 H209       -7.0356  -25.3574  -47.1875 H         1 UNK         0.0600 
    210 H210       -5.2647  -24.3218  -48.9765 H         1 UNK         0.3000 
    211 H211       -6.7905  -22.3639  -50.2821 H         1 UNK         0.0600 
    212 H212       -6.1269  -24.5381  -51.2708 H         1 UNK         0.0600 
    213 H213       -5.6250  -23.2278  -52.3212 H         1 UNK         0.0600 
    214 H214       -4.4389  -24.0372  -51.3074 H         1 UNK         0.0600 
    215 H215       -3.2920  -22.2929  -49.4766 H         1 UNK         0.3000 
    216 H216       -2.5292  -20.0734  -50.9678 H         1 UNK         0.0600 
    217 H217       -1.5020  -21.0354  -48.2460 H         1 UNK         0.0600 
    218 H218       -0.6882  -19.8553  -49.2612 H         1 UNK         0.0600 
    219 H219       -0.8938  -21.5028  -49.8289 H         1 UNK         0.0600 
    220 H220       -4.2928  -20.0639  -47.8874 H         1 UNK         0.3000 
    221 H221       -3.8942  -17.2555  -47.2945 H         1 UNK         0.0600 
    222 H222       -5.9663  -19.2669  -46.2669 H         1 UNK         0.0600 
    223 H223       -4.4192  -18.8929  -45.5073 H         1 UNK         0.0600 
    224 H224       -5.6724  -17.6700  -45.5917 H         1 UNK         0.0600 
    225 H225       -5.9621  -18.9829  -49.4828 H         1 UNK         0.3000 
    226 H226       -7.7762  -16.6626  -49.9122 H         1 UNK         0.0600 
    227 H227       -8.7987  -18.9446  -49.6373 H         1 UNK         0.0600 
    228 H228       -9.1013  -18.2673  -51.2279 H         1 UNK         0.0600 
    229 H229       -7.8805  -19.5163  -51.0289 H         1 UNK         0.0600 
    230 H230       -4.7474  -17.2917  -50.7225 H         1 UNK         0.3000 
    231 H231       -3.3080  -16.6724  -52.2471 H         1 UNK         0.0600 
    232 H232       -5.5255  -15.4114  -53.9404 H         1 UNK         0.0600 
    233 H233       -3.8125  -15.0448  -53.9804 H         1 UNK         0.0600 
    234 H234       -4.7680  -14.6045  -52.5723 H         1 UNK         0.0600 
    235 H235       -5.2372  -19.1710  -52.6066 H         1 UNK         0.3000 
    236 H236       -4.8295  -19.7986  -55.4593 H         1 UNK         0.0600 
    237 H237       -6.3332  -21.2388  -53.2231 H         1 UNK         0.0600 
    238 H238       -7.0287  -20.2576  -54.5030 H         1 UNK         0.0600 
    239 H239       -6.2447  -21.7790  -54.8956 H         1 UNK         0.0600 
    240 H240       -2.4271  -19.4761  -54.6603 H         1 UNK         0.3000 
    241 H241       -1.1140  -21.7844  -53.5290 H         1 UNK         0.0600 
    242 H242       -2.3850  -21.3701  -56.7600 H         1 UNK         0.3800 
    243 H243       -1.4445  -22.6539  -57.4708 H         1 UNK         0.3800 
    244 H244        0.9958  -20.6048  -54.4307 H         1 UNK         0.0800 
    245 H245       -0.0445  -19.3415  -55.0170 H         1 UNK         0.0800 
    246 H246        1.8145  -20.8936  -52.0443 H         1 UNK         0.0800 
    247 H247        2.4689  -19.4689  -52.8173 H         1 UNK         0.0800 
@<TRIPOS>BOND
     1    1    2 1    
     2    1  127 1    
     3    1  128 1    
     4    1  129 1    
     5    2    3 2    
     6    2    4 am   BACKBONE|DICT|INTERRES
     7    4    5 1    
     8    4  130 1    
     9    5    6 1    
    10    5   65 1    
    11    5  131 1    
    12    6    7 1    
    13    6  132 1    
    14    6  133 1    
    15    7    8 1    
    16    8    9 1    
    17    8  134 1    
    18    8  135 1    
    19    9   10 ar   
    20    9   14 ar   
    21   10   11 ar   
    22   10  136 1    
    23   11   12 ar   
    24   11  126 1    
    25   12   13 ar   
    26   12  137 1    
    27   13   14 ar   
    28   13   15 1    
    29   14  138 1    
    30   15   16 1    
    31   15  139 1    
    32   15  140 1    
    33   16   17 1    
    34   17   18 1    
    35   17  141 1    
    36   17  142 1    
    37   18   19 1    
    38   18   67 1    
    39   18  143 1    
    40   19   20 am   BACKBONE|DICT|INTERRES
    41   19  144 1    
    42   20   21 2    
    43   20   22 1    
    44   22   23 1    
    45   22   24 1    
    46   22  145 1    
    47   23  146 1    
    48   23  147 1    
    49   23  148 1    
    50   24   25 am   BACKBONE|DICT|INTERRES
    51   24  149 1    
    52   25   26 2    
    53   25   27 1    
    54   27   28 1    
    55   27   29 1    
    56   27  150 1    
    57   28  151 1    
    58   28  152 1    
    59   28  153 1    
    60   29   30 am   BACKBONE|DICT|INTERRES
    61   29  154 1    
    62   30   31 2    
    63   30   32 1    
    64   32   33 1    
    65   32   34 1    
    66   32  155 1    
    67   33  156 1    
    68   33  157 1    
    69   33  158 1    
    70   34   35 am   BACKBONE|DICT|INTERRES
    71   34  159 1    
    72   35   36 2    
    73   35   37 1    
    74   37   38 1    
    75   37   39 1    
    76   37  160 1    
    77   38  161 1    
    78   38  162 1    
    79   38  163 1    
    80   39   40 am   BACKBONE|DICT|INTERRES
    81   39  164 1    
    82   40   41 2    
    83   40   42 1    
    84   42   43 1    
    85   42   44 1    
    86   42  165 1    
    87   43  166 1    
    88   43  167 1    
    89   43  168 1    
    90   44   45 am   BACKBONE|DICT|INTERRES
    91   44  169 1    
    92   45   46 2    
    93   45   47 1    
    94   47   48 1    
    95   47   49 1    
    96   47  170 1    
    97   48  171 1    
    98   48  172 1    
    99   48  173 1    
   100   49   50 am   BACKBONE|DICT|INTERRES
   101   49  174 1    
   102   50   51 2    
   103   50   52 1    
   104   52   53 1    
   105   52   54 1    
   106   52  175 1    
   107   53  176 1    
   108   53  177 1    
   109   53  178 1    
   110   54   55 am   BACKBONE|DICT|INTERRES
   111   54  179 1    
   112   55   56 2    
   113   55   57 1    
   114   57   58 1    
   115   57   59 1    
   116   57  180 1    
   117   58  181 1    
   118   58  182 1    
   119   58  183 1    
   120   59   60 am   BACKBONE|DICT|INTERRES
   121   59  184 1    
   122   60   61 2    
   123   60   62 1    
   124   62   63 1    
   125   62   64 1    
   126   62  185 1    
   127   63  186 1    
   128   63  187 1    
   129   63  188 1    
   130   64   65 am   BACKBONE|DICT|INTERRES
   131   64  189 1    
   132   65   66 2    
   133   67   68 2    
   134   67   69 am   BACKBONE|DICT|INTERRES
   135   69   70 1    
   136   69  190 1    
   137   70   71 1    
   138   70   72 1    
   139   70  191 1    
   140   71  192 1    
   141   71  193 1    
   142   71  194 1    
   143   72   73 2    
   144   72   74 am   BACKBONE|DICT|INTERRES
   145   74   75 1    
   146   74  195 1    
   147   75   76 1    
   148   75   77 1    
   149   75  196 1    
   150   76  197 1    
   151   76  198 1    
   152   76  199 1    
   153   77   78 2    
   154   77   79 am   BACKBONE|DICT|INTERRES
   155   79   80 1    
   156   79  200 1    
   157   80   81 1    
   158   80   82 1    
   159   80  201 1    
   160   81  202 1    
   161   81  203 1    
   162   81  204 1    
   163   82   83 2    
   164   82   84 am   BACKBONE|DICT|INTERRES
   165   84   85 1    
   166   84  205 1    
   167   85   86 1    
   168   85   87 1    
   169   85  206 1    
   170   86  207 1    
   171   86  208 1    
   172   86  209 1    
   173   87   88 2    
   174   87   89 am   BACKBONE|DICT|INTERRES
   175   89   90 1    
   176   89  210 1    
   177   90   91 1    
   178   90   92 1    
   179   90  211 1    
   180   91  212 1    
   181   91  213 1    
   182   91  214 1    
   183   92   93 2    
   184   92   94 am   BACKBONE|DICT|INTERRES
   185   94   95 1    
   186   94  215 1    
   187   95   96 1    
   188   95   97 1    
   189   95  216 1    
   190   96  217 1    
   191   96  218 1    
   192   96  219 1    
   193   97   98 2    
   194   97   99 am   BACKBONE|DICT|INTERRES
   195   99  100 1    
   196   99  220 1    
   197  100  101 1    
   198  100  102 1    
   199  100  221 1    
   200  101  222 1    
   201  101  223 1    
   202  101  224 1    
   203  102  103 2    
   204  102  104 am   BACKBONE|DICT|INTERRES
   205  104  105 1    
   206  104  225 1    
   207  105  106 1    
   208  105  107 1    
   209  105  226 1    
   210  106  227 1    
   211  106  228 1    
   212  106  229 1    
   213  107  108 2    
   214  107  109 am   BACKBONE|DICT|INTERRES
   215  109  110 1    
   216  109  230 1    
   217  110  111 1    
   218  110  112 1    
   219  110  231 1    
   220  111  232 1    
   221  111  233 1    
   222  111  234 1    
   223  112  113 2    
   224  112  114 am   BACKBONE|DICT|INTERRES
   225  114  115 1    
   226  114  235 1    
   227  115  116 1    
   228  115  117 1    
   229  115  236 1    
   230  116  237 1    
   231  116  238 1    
   232  116  239 1    
   233  117  118 2    
   234  117  119 am   BACKBONE|DICT|INTERRES
   235  119  120 1    
   236  119  240 1    
   237  120  121 1    
   238  120  124 1    
   239  120  241 1    
   240  121  122 am   BACKBONE|DICT|INTERRES
   241  121  123 2    
   242  122  242 1    
   243  122  243 1    
   244  124  125 1    
   245  124  244 1    
   246  124  245 1    
   247  125  126 1    
   248  126  246 1    
   249  126  247 1    
@<TRIPOS>SUBSTRUCTURE
     1 UNK         1 GROUP             0       ****    0 ROOT    
