@<TRIPOS>MOLECULE
3R540
247   249    1
SMALL
USER_CHARGES


@<TRIPOS>ATOM
      1 CA         -4.5327  -10.8025  -49.6551 C.3       0 UNK        -0.1800 
      2 C          -3.6484  -11.7826  -48.8991 C.2       0 UNK         0.5000 
      3 O          -4.1606  -12.6294  -48.1691 O.2       0 UNK        -0.5000 
      4 N          -2.3231  -11.6630  -49.0639 N.am      1 UNK        -0.5000 
      5 CA         -1.2817  -12.5085  -48.4549 C.3       1 UNK         0.1400 
      6 C6         -1.4718  -14.0199  -48.7742 C.3       23 UNK        -0.0398 
      7 S7          0.0912  -14.9208  -49.0551 S.3       23 UNK        -0.2404 
      8 C8         -0.5605  -16.3781  -49.9245 C.3       23 UNK        -0.0205 
      9 C9          0.5417  -17.3066  -50.4094 C.ar      23 UNK        -0.0193 
     10 C10         1.0411  -17.1860  -51.7090 C.ar      23 UNK        -0.1150 
     11 C11         2.0188  -18.0677  -52.1812 C.ar      23 UNK        -0.0193 
     12 C12         2.4964  -19.0774  -51.3410 C.ar      23 UNK        -0.1150 
     13 C13         2.0029  -19.2105  -50.0401 C.ar      23 UNK        -0.0193 
     14 C14         1.0364  -18.3130  -49.5763 C.ar      23 UNK        -0.1150 
     15 C15         2.5206  -20.3192  -49.1360 C.3       23 UNK        -0.0205 
     16 S16         1.6668  -21.9041  -49.4165 S.3       23 UNK        -0.2404 
     17 C17        -0.0535  -21.5653  -48.9036 C.3       23 UNK        -0.0398 
     18 CA         -0.5820  -22.6367  -47.9183 C.3       11 UNK         0.1400 
     19 N          -0.1568  -22.3888  -46.5374 N.am      11 UNK        -0.5000 
     20 C          -0.1898  -23.3080  -45.5644 C.2       10 UNK         0.5000 
     21 O          -0.5831  -24.4614  -45.7349 O.2       10 UNK        -0.5000 
     22 CA          0.2442  -22.8576  -44.1584 C.3       10 UNK         0.1400 
     23 CB          1.7708  -22.7137  -44.0731 C.3       10 UNK        -0.1800 
     24 N          -0.4002  -21.6128  -43.7361 N.am      10 UNK        -0.5000 
     25 C          -1.7191  -21.4752  -43.5368 C.2       9 UNK         0.5000 
     26 O          -2.5306  -22.3885  -43.6887 O.2       9 UNK        -0.5000 
     27 CA         -2.2254  -20.0768  -43.1367 C.3       9 UNK         0.1400 
     28 CB         -1.9750  -19.8103  -41.6450 C.3       9 UNK        -0.1800 
     29 N          -1.6264  -19.0073  -43.9339 N.am      9 UNK        -0.5000 
     30 C          -1.7789  -18.8742  -45.2590 C.2       8 UNK         0.5000 
     31 O          -2.4837  -19.6119  -45.9436 O.2       8 UNK        -0.5000 
     32 CA         -0.9473  -17.7798  -45.9493 C.3       8 UNK         0.1400 
     33 CB         -1.5802  -16.3963  -45.7501 C.3       8 UNK        -0.1800 
     34 N           0.4430  -17.7647  -45.4926 N.am      8 UNK        -0.5000 
     35 C           1.2830  -18.8068  -45.5689 C.2       7 UNK         0.5000 
     36 O           0.9871  -19.8848  -46.0789 O.2       7 UNK        -0.5000 
     37 CA          2.6625  -18.6409  -44.9157 C.3       7 UNK         0.1400 
     38 CB          3.6311  -17.8995  -45.8499 C.3       7 UNK        -0.1800 
     39 N           2.5558  -17.9409  -43.6370 N.am      7 UNK        -0.5000 
     40 C           2.0456  -18.4859  -42.5233 C.2       6 UNK         0.5000 
     41 O           1.6725  -19.6570  -42.4456 O.2       6 UNK        -0.5000 
     42 CA          1.8900  -17.5543  -41.3060 C.3       6 UNK         0.1400 
     43 CB          3.2085  -17.4593  -40.5241 C.3       6 UNK        -0.1800 
     44 N           1.4479  -16.2085  -41.6778 N.am      6 UNK        -0.5000 
     45 C           0.2380  -15.9262  -42.1807 C.2       5 UNK         0.5000 
     46 O          -0.6475  -16.7675  -42.3314 O.2       5 UNK        -0.5000 
     47 CA         -0.0152  -14.4723  -42.6291 C.3       5 UNK         0.1400 
     48 CB         -0.5837  -13.6457  -41.4666 C.3       5 UNK        -0.1800 
     49 N           1.1535  -13.7826  -43.1880 N.am      5 UNK        -0.5000 
     50 C           1.8990  -14.2190  -44.2142 C.2       4 UNK         0.5000 
     51 O           1.7407  -15.3153  -44.7500 O.2       4 UNK        -0.5000 
     52 CA          2.9752  -13.2527  -44.7320 C.3       4 UNK         0.1400 
     53 CB          3.7166  -13.7803  -45.9742 C.3       4 UNK        -0.1800 
     54 N           2.3314  -11.9864  -45.0570 N.am      4 UNK        -0.5000 
     55 C           2.7835  -10.7701  -44.7282 C.2       3 UNK         0.5000 
     56 O           3.8482  -10.5744  -44.1410 O.2       3 UNK        -0.5000 
     57 CA          1.8997   -9.5621  -45.1078 C.3       3 UNK         0.1400 
     58 CB          2.4687   -8.8488  -46.3435 C.3       3 UNK        -0.1800 
     59 N           0.5040   -9.9179  -45.3722 N.am      3 UNK        -0.5000 
     60 C          -0.3650  -10.3671  -44.4564 C.2       2 UNK         0.5000 
     61 O          -0.1083  -10.4443  -43.2552 O.2       2 UNK        -0.5000 
     62 CA         -1.7366  -10.8462  -44.9715 C.3       2 UNK         0.1400 
     63 CB         -2.8077   -9.7729  -44.7280 C.3       2 UNK        -0.1800 
     64 N          -1.7549  -11.2216  -46.3903 N.am      2 UNK        -0.5000 
     65 C          -1.0711  -12.2356  -46.9433 C.2       1 UNK         0.5000 
     66 O          -0.2661  -12.9138  -46.3074 O.2       1 UNK        -0.5000 
     67 C          -2.1099  -22.8303  -48.0435 C.2       11 UNK         0.5000 
     68 O          -2.5562  -23.4861  -48.9858 O.2       11 UNK        -0.5000 
     69 N          -2.8985  -22.2920  -47.1051 N.am      12 UNK        -0.5000 
     70 CA         -4.3230  -22.5894  -46.9949 C.3       12 UNK         0.1400 
     71 CB         -5.0296  -21.5390  -46.1247 C.3       12 UNK        -0.1800 
     72 C          -4.5579  -24.0127  -46.4607 C.2       12 UNK         0.5000 
     73 O          -5.2364  -24.8007  -47.1202 O.2       12 UNK        -0.5000 
     74 N          -3.9976  -24.3113  -45.2820 N.am      13 UNK        -0.5000 
     75 CA         -4.2621  -25.5395  -44.5370 C.3       13 UNK         0.1400 
     76 CB         -3.8947  -25.3262  -43.0594 C.3       13 UNK        -0.1800 
     77 C          -3.5467  -26.7784  -45.1009 C.2       13 UNK         0.5000 
     78 O          -4.2047  -27.7794  -45.3866 O.2       13 UNK        -0.5000 
     79 N          -2.2142  -26.7123  -45.2117 N.am      14 UNK        -0.5000 
     80 CA         -1.3632  -27.8674  -45.5030 C.3       14 UNK         0.1400 
     81 CB          0.0358  -27.6428  -44.9073 C.3       14 UNK        -0.1800 
     82 C          -1.2721  -28.1660  -47.0054 C.2       14 UNK         0.5000 
     83 O          -1.2811  -29.3358  -47.3901 O.2       14 UNK        -0.5000 
     84 N          -1.2018  -27.1103  -47.8275 N.am      15 UNK        -0.5000 
     85 CA         -1.1317  -27.2182  -49.2889 C.3       15 UNK         0.1400 
     86 CB         -0.2838  -26.0677  -49.8488 C.3       15 UNK        -0.1800 
     87 C          -2.5210  -27.2838  -49.9583 C.2       15 UNK         0.5000 
     88 O          -2.5838  -27.4063  -51.1815 O.2       15 UNK        -0.5000 
     89 N          -3.5930  -27.2316  -49.1513 N.am      16 UNK        -0.5000 
     90 CA         -5.0044  -27.3705  -49.5191 C.3       16 UNK         0.1400 
     91 CB         -5.2933  -28.7900  -50.0511 C.3       16 UNK        -0.1800 
     92 C          -5.4757  -26.2603  -50.4777 C.2       16 UNK         0.5000 
     93 O          -5.7188  -26.5138  -51.6593 O.2       16 UNK        -0.5000 
     94 N          -5.6011  -25.0468  -49.9249 N.am      17 UNK        -0.5000 
     95 CA         -6.0912  -23.8253  -50.5718 C.3       17 UNK         0.1400 
     96 CB         -7.5772  -23.9691  -50.9636 C.3       17 UNK        -0.1800 
     97 C          -5.1992  -23.3427  -51.7343 C.2       17 UNK         0.5000 
     98 O          -5.7109  -22.8722  -52.7520 O.2       17 UNK        -0.5000 
     99 N          -3.8748  -23.4438  -51.5550 N.am      18 UNK        -0.5000 
    100 CA        -2.8855  -22.8906  -52.4818 C.3       18 UNK         0.1400 
    101 CB        -1.5431  -23.6117  -52.2957 C.3       18 UNK        -0.1800 
    102 C         -2.7118  -21.3731  -52.2916 C.2       18 UNK         0.5000 
    103 O         -2.3425  -20.6823  -53.2401 O.2       18 UNK        -0.5000 
    104 N         -2.9932  -20.8729  -51.0796 N.am      19 UNK        -0.5000 
    105 CA        -2.9788  -19.4512  -50.7383 C.3       19 UNK         0.1400 
    106 CB        -3.2543  -19.2890  -49.2366 C.3       19 UNK        -0.1800 
    107 C         -4.0045  -18.6588  -51.5697 C.2       19 UNK         0.5000 
    108 O         -5.1211  -19.1374  -51.7753 O.2       19 UNK        -0.5000 
    109 N         -3.5881  -17.4832  -52.0565 N.am      20 UNK        -0.5000 
    110 CA        -4.3062  -16.5475  -52.9353 C.3       20 UNK         0.1400 
    111 CB        -5.6509  -16.1007  -52.3285 C.3       20 UNK        -0.1800 
    112 C         -4.4686  -17.0286  -54.3934 C.2       20 UNK         0.5000 
    113 O         -4.5419  -16.1860  -55.2888 O.2       20 UNK        -0.5000 
    114 N         -4.4799  -18.3487  -54.6282 N.am      21 UNK        -0.5000 
    115 CA        -4.3248  -18.9529  -55.9536 C.3       21 UNK         0.1400 
    116 CB        -4.7475  -20.4297  -55.9057 C.3       21 UNK        -0.1800 
    117 C         -2.8735  -18.7948  -56.4461 C.2       21 UNK         0.5000 
    118 O         -2.6478  -18.3699  -57.5797 O.2       21 UNK        -0.5000 
    119 N         -1.9230  -19.0840  -55.5496 N.am      22 UNK        -0.5000 
    120 CA        -0.5132  -18.6927  -55.6302 C.3       22 UNK         0.1400 
    121 C         -0.3645  -17.1472  -55.5361 C.2       22 UNK         0.5000 
    122 N          0.3896  -16.5288  -56.4344 N.am      22 UNK        -0.7600 
    123 O         -0.9039  -16.5113  -54.6326 O.2       22 UNK        -0.5000 
    124 C124        0.2816  -19.4111  -54.5116 C.3       23 UNK        -0.0398 
    125 S125        2.0982  -19.3289  -54.6842 S.3       23 UNK        -0.2404 
    126 C126        2.5512  -17.9290  -53.6018 C.3       23 UNK        -0.0205 
    127 H127       -3.9459  -10.0753  -50.2161 H         1 UNK         0.0600 
    128 H128       -5.1725  -10.2576  -48.9601 H         1 UNK         0.0600 
    129 H129       -5.1695  -11.3405  -50.3562 H         1 UNK         0.0600 
    130 H130       -1.9755  -10.9373  -49.6756 H         1 UNK         0.3000 
    131 H131       -0.3583  -12.1805  -48.9336 H         1 UNK         0.0600 
    132 H132       -2.0530  -14.5218  -47.9999 H         1 UNK         0.0800 
    133 H133       -2.0594  -14.1244  -49.6872 H         1 UNK         0.0800 
    134 H134       -1.1595  -16.0486  -50.7742 H         1 UNK         0.0800 
    135 H135       -1.2353  -16.9170  -49.2591 H         1 UNK         0.0800 
    136 H136        0.6595  -16.4097  -52.3578 H         1 UNK         0.1150 
    137 H137        3.2445  -19.7675  -51.7054 H         1 UNK         0.1150 
    138 H138        0.6631  -18.4041  -48.5681 H         1 UNK         0.1150 
    139 H139        3.5864  -20.4641  -49.3178 H         1 UNK         0.0800 
    140 H140        2.4377  -20.0356  -48.0903 H         1 UNK         0.0800 
    141 H141       -0.6397  -21.5389  -49.8220 H         1 UNK         0.0800 
    142 H142       -0.1406  -20.5735  -48.4627 H         1 UNK         0.0800 
    143 H143       -0.1483  -23.5944  -48.2085 H         1 UNK         0.0600 
    144 H144        0.2007  -21.4573  -46.3267 H         1 UNK         0.3000 
    145 H145       -0.0571  -23.6384  -43.4569 H         1 UNK         0.0600 
    146 H146        2.0865  -22.4586  -43.0613 H         1 UNK         0.0600 
    147 H147        2.2654  -23.6475  -44.3430 H         1 UNK         0.0600 
    148 H148        2.1437  -21.9403  -44.7441 H         1 UNK         0.0600 
    149 H149        0.2059  -20.8168  -43.5768 H         1 UNK         0.3000 
    150 H150       -3.3035  -20.0543  -43.3083 H         1 UNK         0.0600 
    151 H151       -2.4232  -20.5898  -41.0278 H         1 UNK         0.0600 
    152 H152       -2.4111  -18.8599  -41.3371 H         1 UNK         0.0600 
    153 H153       -0.9099  -19.7782  -41.4138 H         1 UNK         0.0600 
    154 H154       -1.0657  -18.3233  -43.4342 H         1 UNK         0.3000 
    155 H155       -0.9390  -17.9949  -47.0179 H         1 UNK         0.0600 
    156 H156       -1.7672  -16.1837  -44.6988 H         1 UNK         0.0600 
    157 H157       -0.9376  -15.6076  -46.1406 H         1 UNK         0.0600 
    158 H158       -2.5373  -16.3317  -46.2685 H         1 UNK         0.0600 
    159 H159        0.7930  -16.8932  -45.1017 H         1 UNK         0.3000 
    160 H160        3.0722  -19.6356  -44.7289 H         1 UNK         0.0600 
    161 H161        3.8109  -18.4762  -46.7575 H         1 UNK         0.0600 
    162 H162        3.2406  -16.9298  -46.1577 H         1 UNK         0.0600 
    163 H163        4.5972  -17.7376  -45.3719 H         1 UNK         0.0600 
    164 H164        2.7409  -16.9472  -43.6536 H         1 UNK         0.3000 
    165 H165        1.1348  -17.9911  -40.6488 H         1 UNK         0.0600 
    166 H166        3.0877  -16.8648  -39.6183 H         1 UNK         0.0600 
    167 H167        3.5526  -18.4485  -40.2190 H         1 UNK         0.0600 
    168 H168        4.0007  -17.0057  -41.1211 H         1 UNK         0.0600 
    169 H169        2.1189  -15.4603  -41.5860 H         1 UNK         0.3000 
    170 H170       -0.7686  -14.5019  -43.4176 H         1 UNK         0.0600 
    171 H171       -1.4624  -14.1280  -41.0361 H         1 UNK         0.0600 
    172 H172        0.1476  -13.5200  -40.6673 H         1 UNK         0.0600 
    173 H173       -0.8916  -12.6547  -41.7996 H         1 UNK         0.0600 
    174 H174        1.3377  -12.8572  -42.8270 H         1 UNK         0.3000 
    175 H175        3.6983  -13.1208  -43.9247 H         1 UNK         0.0600 
    176 H176        3.0285  -13.9785  -46.7976 H         1 UNK         0.0600 
    177 H177        4.4597  -13.0635  -46.3235 H         1 UNK         0.0600 
    178 H178        4.2423  -14.7088  -45.7499 H         1 UNK         0.0600 
    179 H179        1.4260  -12.0744  -45.5090 H         1 UNK         0.3000 
    180 H180        1.9194   -8.8647  -44.2681 H         1 UNK         0.0600 
    181 H181        2.4609   -9.4967  -47.2206 H         1 UNK         0.0600 
    182 H182        3.5003   -8.5378  -46.1749 H         1 UNK         0.0600 
    183 H183        1.8957   -7.9524  -46.5811 H         1 UNK         0.0600 
    184 H184        0.2029   -9.8838  -46.3344 H         1 UNK         0.3000 
    185 H185       -2.0034  -11.7333  -44.3935 H         1 UNK         0.0600 
    186 H186       -3.7984  -10.1346  -45.0031 H         1 UNK         0.0600 
    187 H187       -2.8475   -9.4910  -43.6750 H         1 UNK         0.0600 
    188 H188       -2.6078   -8.8677  -45.3025 H         1 UNK         0.0600 
    189 H189       -2.3870  -10.7054  -46.9836 H         1 UNK         0.3000 
    190 H190       -2.4980  -21.6894  -46.3956 H         1 UNK         0.3000 
    191 H191       -4.7638  -22.5283  -47.9901 H         1 UNK         0.0600 
    192 H192       -4.6034  -21.4821  -45.1236 H         1 UNK         0.0600 
    193 H193       -6.0901  -21.7699  -46.0176 H         1 UNK         0.0600 
    194 H194       -4.9588  -20.5481  -46.5728 H         1 UNK         0.0600 
    195 H195       -3.4356  -23.6081  -44.8075 H         1 UNK         0.3000 
    196 H196       -5.3359  -25.7352  -44.5805 H         1 UNK         0.0600 
    197 H197       -4.0995  -26.2214  -42.4710 H         1 UNK         0.0600 
    198 H198       -4.4739  -24.5114  -42.6245 H         1 UNK         0.0600 
    199 H199       -2.8382  -25.0850  -42.9354 H         1 UNK         0.0600 
    200 H200       -1.7395  -25.8243  -45.0733 H         1 UNK         0.3000 
    201 H201       -1.7891  -28.7470  -45.0149 H         1 UNK         0.0600 
    202 H202       -0.0184  -27.4387  -43.8379 H         1 UNK         0.0600 
    203 H203        0.5531  -26.8091  -45.3823 H         1 UNK         0.0600 
    204 H204        0.6592  -28.5282  -45.0381 H         1 UNK         0.0600 
    205 H205       -1.1943  -26.1819  -47.4259 H         1 UNK         0.3000 
    206 H206       -0.6168  -28.1454  -49.5497 H         1 UNK         0.0600 
    207 H207        0.6757  -25.9898  -49.3370 H         1 UNK         0.0600 
    208 H208       -0.0756  -26.2184  -50.9087 H         1 UNK         0.0600 
    209 H209       -0.7966  -25.1160  -49.7557 H         1 UNK         0.0600 
    210 H210       -3.4162  -27.1064  -48.1650 H         1 UNK         0.3000 
    211 H211       -5.5741  -27.2533  -48.5955 H         1 UNK         0.0600 
    212 H212       -4.7614  -28.9971  -50.9801 H         1 UNK         0.0600 
    213 H213       -6.3576  -28.9200  -50.2500 H         1 UNK         0.0600 
    214 H214       -5.0036  -29.5485  -49.3238 H         1 UNK         0.0600 
    215 H215       -5.3795  -24.9582  -48.9346 H         1 UNK         0.3000 
    216 H216       -6.0403  -23.0409  -49.8175 H         1 UNK         0.0600 
    217 H217       -7.9840  -23.0178  -51.3087 H         1 UNK         0.0600 
    218 H218       -8.1800  -24.2879  -50.1133 H         1 UNK         0.0600 
    219 H219       -7.7183  -24.6936  -51.7661 H         1 UNK         0.0600 
    220 H220       -3.5188  -23.8103  -50.6769 H         1 UNK         0.3000 
    221 H221       -3.2216  -23.0642  -53.5063 H         1 UNK         0.0600 
    222 H222       -1.1095  -23.4116  -51.3168 H         1 UNK         0.0600 
    223 H223       -1.6559  -24.6909  -52.4019 H         1 UNK         0.0600 
    224 H224       -0.8200  -23.2833  -53.0433 H         1 UNK         0.0600 
    225 H225       -3.3240  -21.5109  -50.3718 H         1 UNK         0.3000 
    226 H226       -1.9779  -19.0697  -50.9515 H         1 UNK         0.0600 
    227 H227       -2.4697  -19.7520  -48.6405 H         1 UNK         0.0600 
    228 H228       -3.2961  -18.2372  -48.9519 H         1 UNK         0.0600 
    229 H229       -4.2041  -19.7418  -48.9497 H         1 UNK         0.0600 
    230 H230       -2.6303  -17.2190  -51.8792 H         1 UNK         0.3000 
    231 H231       -3.6685  -15.6632  -52.9843 H         1 UNK         0.0600 
    232 H232       -6.0892  -15.2929  -52.9157 H         1 UNK         0.0600 
    233 H233       -5.5222  -15.7300  -51.3115 H         1 UNK         0.0600 
    234 H234       -6.3795  -16.9112  -52.3033 H         1 UNK         0.0600 
    235 H235       -4.4686  -18.9723  -53.8311 H         1 UNK         0.3000 
    236 H236       -4.9815  -18.4340  -56.6550 H         1 UNK         0.0600 
    237 H237       -5.7870  -20.5311  -55.5935 H         1 UNK         0.0600 
    238 H238       -4.6563  -20.8917  -56.8894 H         1 UNK         0.0600 
    239 H239       -4.1358  -21.0089  -55.2142 H         1 UNK         0.0600 
    240 H240       -2.2069  -19.4859  -54.6599 H         1 UNK         0.3000 
    241 H241       -0.1339  -19.0297  -56.5967 H         1 UNK         0.0600 
    242 H242        0.8471  -17.0338  -57.1776 H         1 UNK         0.3800 
    243 H243        0.4975  -15.5283  -56.3769 H         1 UNK         0.3800 
    244 H244       -0.0346  -19.0630  -53.5282 H         1 UNK         0.0800 
    245 H245        0.0341  -20.4734  -54.5274 H         1 UNK         0.0800 
    246 H246        3.6387  -17.8541  -53.5652 H         1 UNK         0.0800 
    247 H247        2.2023  -17.0000  -54.0544 H         1 UNK         0.0800 
@<TRIPOS>BOND
     1    1    2 1    
     2    1  127 1    
     3    1  128 1    
     4    1  129 1    
     5    2    3 2    
     6    2    4 am   BACKBONE|DICT|INTERRES
     7    4    5 1    
     8    4  130 1    
     9    5    6 1    
    10    5   65 1    
    11    5  131 1    
    12    6    7 1    
    13    6  132 1    
    14    6  133 1    
    15    7    8 1    
    16    8    9 1    
    17    8  134 1    
    18    8  135 1    
    19    9   10 ar   
    20    9   14 ar   
    21   10   11 ar   
    22   10  136 1    
    23   11   12 ar   
    24   11  126 1    
    25   12   13 ar   
    26   12  137 1    
    27   13   14 ar   
    28   13   15 1    
    29   14  138 1    
    30   15   16 1    
    31   15  139 1    
    32   15  140 1    
    33   16   17 1    
    34   17   18 1    
    35   17  141 1    
    36   17  142 1    
    37   18   19 1    
    38   18   67 1    
    39   18  143 1    
    40   19   20 am   BACKBONE|DICT|INTERRES
    41   19  144 1    
    42   20   21 2    
    43   20   22 1    
    44   22   23 1    
    45   22   24 1    
    46   22  145 1    
    47   23  146 1    
    48   23  147 1    
    49   23  148 1    
    50   24   25 am   BACKBONE|DICT|INTERRES
    51   24  149 1    
    52   25   26 2    
    53   25   27 1    
    54   27   28 1    
    55   27   29 1    
    56   27  150 1    
    57   28  151 1    
    58   28  152 1    
    59   28  153 1    
    60   29   30 am   BACKBONE|DICT|INTERRES
    61   29  154 1    
    62   30   31 2    
    63   30   32 1    
    64   32   33 1    
    65   32   34 1    
    66   32  155 1    
    67   33  156 1    
    68   33  157 1    
    69   33  158 1    
    70   34   35 am   BACKBONE|DICT|INTERRES
    71   34  159 1    
    72   35   36 2    
    73   35   37 1    
    74   37   38 1    
    75   37   39 1    
    76   37  160 1    
    77   38  161 1    
    78   38  162 1    
    79   38  163 1    
    80   39   40 am   BACKBONE|DICT|INTERRES
    81   39  164 1    
    82   40   41 2    
    83   40   42 1    
    84   42   43 1    
    85   42   44 1    
    86   42  165 1    
    87   43  166 1    
    88   43  167 1    
    89   43  168 1    
    90   44   45 am   BACKBONE|DICT|INTERRES
    91   44  169 1    
    92   45   46 2    
    93   45   47 1    
    94   47   48 1    
    95   47   49 1    
    96   47  170 1    
    97   48  171 1    
    98   48  172 1    
    99   48  173 1    
   100   49   50 am   BACKBONE|DICT|INTERRES
   101   49  174 1    
   102   50   51 2    
   103   50   52 1    
   104   52   53 1    
   105   52   54 1    
   106   52  175 1    
   107   53  176 1    
   108   53  177 1    
   109   53  178 1    
   110   54   55 am   BACKBONE|DICT|INTERRES
   111   54  179 1    
   112   55   56 2    
   113   55   57 1    
   114   57   58 1    
   115   57   59 1    
   116   57  180 1    
   117   58  181 1    
   118   58  182 1    
   119   58  183 1    
   120   59   60 am   BACKBONE|DICT|INTERRES
   121   59  184 1    
   122   60   61 2    
   123   60   62 1    
   124   62   63 1    
   125   62   64 1    
   126   62  185 1    
   127   63  186 1    
   128   63  187 1    
   129   63  188 1    
   130   64   65 am   BACKBONE|DICT|INTERRES
   131   64  189 1    
   132   65   66 2    
   133   67   68 2    
   134   67   69 am   BACKBONE|DICT|INTERRES
   135   69   70 1    
   136   69  190 1    
   137   70   71 1    
   138   70   72 1    
   139   70  191 1    
   140   71  192 1    
   141   71  193 1    
   142   71  194 1    
   143   72   73 2    
   144   72   74 am   BACKBONE|DICT|INTERRES
   145   74   75 1    
   146   74  195 1    
   147   75   76 1    
   148   75   77 1    
   149   75  196 1    
   150   76  197 1    
   151   76  198 1    
   152   76  199 1    
   153   77   78 2    
   154   77   79 am   BACKBONE|DICT|INTERRES
   155   79   80 1    
   156   79  200 1    
   157   80   81 1    
   158   80   82 1    
   159   80  201 1    
   160   81  202 1    
   161   81  203 1    
   162   81  204 1    
   163   82   83 2    
   164   82   84 am   BACKBONE|DICT|INTERRES
   165   84   85 1    
   166   84  205 1    
   167   85   86 1    
   168   85   87 1    
   169   85  206 1    
   170   86  207 1    
   171   86  208 1    
   172   86  209 1    
   173   87   88 2    
   174   87   89 am   BACKBONE|DICT|INTERRES
   175   89   90 1    
   176   89  210 1    
   177   90   91 1    
   178   90   92 1    
   179   90  211 1    
   180   91  212 1    
   181   91  213 1    
   182   91  214 1    
   183   92   93 2    
   184   92   94 am   BACKBONE|DICT|INTERRES
   185   94   95 1    
   186   94  215 1    
   187   95   96 1    
   188   95   97 1    
   189   95  216 1    
   190   96  217 1    
   191   96  218 1    
   192   96  219 1    
   193   97   98 2    
   194   97   99 am   BACKBONE|DICT|INTERRES
   195   99  100 1    
   196   99  220 1    
   197  100  101 1    
   198  100  102 1    
   199  100  221 1    
   200  101  222 1    
   201  101  223 1    
   202  101  224 1    
   203  102  103 2    
   204  102  104 am   BACKBONE|DICT|INTERRES
   205  104  105 1    
   206  104  225 1    
   207  105  106 1    
   208  105  107 1    
   209  105  226 1    
   210  106  227 1    
   211  106  228 1    
   212  106  229 1    
   213  107  108 2    
   214  107  109 am   BACKBONE|DICT|INTERRES
   215  109  110 1    
   216  109  230 1    
   217  110  111 1    
   218  110  112 1    
   219  110  231 1    
   220  111  232 1    
   221  111  233 1    
   222  111  234 1    
   223  112  113 2    
   224  112  114 am   BACKBONE|DICT|INTERRES
   225  114  115 1    
   226  114  235 1    
   227  115  116 1    
   228  115  117 1    
   229  115  236 1    
   230  116  237 1    
   231  116  238 1    
   232  116  239 1    
   233  117  118 2    
   234  117  119 am   BACKBONE|DICT|INTERRES
   235  119  120 1    
   236  119  240 1    
   237  120  121 1    
   238  120  124 1    
   239  120  241 1    
   240  121  122 am   BACKBONE|DICT|INTERRES
   241  121  123 2    
   242  122  242 1    
   243  122  243 1    
   244  124  125 1    
   245  124  244 1    
   246  124  245 1    
   247  125  126 1    
   248  126  246 1    
   249  126  247 1    
@<TRIPOS>SUBSTRUCTURE
     1 UNK         1 GROUP             0       ****    0 ROOT    
