@<TRIPOS>MOLECULE
3R540
247   249    1
SMALL
USER_CHARGES


@<TRIPOS>ATOM
      1 CA         -5.7311  -15.6936  -44.9256 C.3       0 UNK        -0.1800 
      2 C          -5.1046  -14.6932  -45.8869 C.2       0 UNK         0.5000 
      3 O          -5.5901  -13.5686  -46.0082 O.2       0 UNK        -0.5000 
      4 N          -4.0270  -15.1001  -46.5679 N.am      1 UNK        -0.5000 
      5 CA         -3.2605  -14.2834  -47.5191 C.3       1 UNK         0.1400 
      6 C6         -2.3930  -15.1716  -48.4449 C.3       23 UNK        -0.0398 
      7 S7         -1.2480  -16.2555  -47.5207 S.3       23 UNK        -0.2404 
      8 C8          0.3654  -15.8030  -48.2261 C.3       23 UNK        -0.0205 
      9 C9          0.6377  -16.6698  -49.4395 C.ar      23 UNK        -0.0193 
     10 C10         0.2318  -16.2562  -50.7088 C.ar      23 UNK        -0.1150 
     11 C11         0.3643  -17.1088  -51.8077 C.ar      23 UNK        -0.0193 
     12 C12         0.9254  -18.3784  -51.6294 C.ar      23 UNK        -0.1150 
     13 C13         1.3646  -18.7897  -50.3659 C.ar      23 UNK        -0.0193 
     14 C14         1.2316  -17.9230  -49.2788 C.ar      23 UNK        -0.1150 
     15 C15         1.9784  -20.1682  -50.1693 C.3       23 UNK        -0.0205 
     16 S16         0.7498  -21.3915  -49.6112 S.3       23 UNK        -0.2404 
     17 C17         0.5730  -20.9734  -47.8403 C.3       23 UNK        -0.0398 
     18 CA         -0.2679  -22.0146  -47.0639 C.3       11 UNK         0.1400 
     19 N           0.0020  -21.9996  -45.6231 N.am      11 UNK        -0.5000 
     20 C          -0.4465  -22.9301  -44.7664 C.2       10 UNK         0.5000 
     21 O          -1.1383  -23.8909  -45.1029 O.2       10 UNK        -0.5000 
     22 CA         -0.0999  -22.7461  -43.2790 C.3       10 UNK         0.1400 
     23 CB          1.3714  -23.0967  -43.0137 C.3       10 UNK        -0.1800 
     24 N          -0.3886  -21.3988  -42.7898 N.am      10 UNK        -0.5000 
     25 C          -1.6101  -20.8446  -42.7691 C.2       9 UNK         0.5000 
     26 O          -2.6326  -21.4198  -43.1405 O.2       9 UNK        -0.5000 
     27 CA         -1.6970  -19.3778  -42.3118 C.3       9 UNK         0.1400 
     28 CB         -1.5963  -19.2672  -40.7832 C.3       9 UNK        -0.1800 
     29 N          -0.6746  -18.5367  -42.9311 N.am      9 UNK        -0.5000 
     30 C          -0.5235  -18.3672  -44.2521 C.2       8 UNK         0.5000 
     31 O          -1.2470  -18.8796  -45.1049 O.2       8 UNK        -0.5000 
     32 CA          0.6841  -17.5298  -44.6888 C.3       8 UNK         0.1400 
     33 CB          0.4327  -16.0372  -44.4205 C.3       8 UNK        -0.1800 
     34 N           1.9109  -17.9759  -44.0275 N.am      8 UNK        -0.5000 
     35 C           2.4785  -19.1755  -44.2263 C.2       7 UNK         0.5000 
     36 O           2.0692  -19.9978  -45.0451 O.2       7 UNK        -0.5000 
     37 CA          3.6688  -19.5441  -43.3242 C.3       7 UNK         0.1400 
     38 CB          4.9997  -19.1227  -43.9616 C.3       7 UNK        -0.1800 
     39 N           3.5493  -18.9598  -41.9886 N.am      7 UNK        -0.5000 
     40 C           2.6802  -19.3938  -41.0642 C.2       6 UNK         0.5000 
     41 O           1.9173  -20.3440  -41.2392 O.2       6 UNK        -0.5000 
     42 CA          2.6163  -18.6066  -39.7425 C.3       6 UNK         0.1400 
     43 CB          3.6709  -19.1235  -38.7531 C.3       6 UNK        -0.1800 
     44 N           2.7870  -17.1639  -39.9243 N.am      6 UNK        -0.5000 
     45 C           1.9544  -16.3819  -40.6244 C.2       5 UNK         0.5000 
     46 O           0.9391  -16.8067  -41.1766 O.2       5 UNK        -0.5000 
     47 CA          2.3102  -14.8846  -40.7469 C.3       5 UNK         0.1400 
     48 CB          3.3643  -14.4100  -39.7220 C.3       5 UNK        -0.1800 
     49 N           2.7251  -14.5014  -42.1026 N.am      5 UNK        -0.5000 
     50 C           3.7219  -15.0241  -42.8342 C.2       4 UNK         0.5000 
     51 O           4.3678  -16.0146  -42.4894 O.2       4 UNK        -0.5000 
     52 CA          4.0677  -14.3269  -44.1697 C.3       4 UNK         0.1400 
     53 CB          4.1662  -15.3210  -45.3404 C.3       4 UNK        -0.1800 
     54 N           3.1417  -13.2449  -44.5270 N.am      4 UNK        -0.5000 
     55 C           3.2870  -11.9646  -44.1634 C.2       3 UNK         0.5000 
     56 O           4.1944  -11.5670  -43.4322 O.2       3 UNK        -0.5000 
     57 CA          2.2442  -10.9532  -44.6792 C.3       3 UNK         0.1400 
     58 CB          2.5337  -10.5439  -46.1365 C.3       3 UNK        -0.1800 
     59 N           0.8451  -11.3645  -44.4946 N.am      3 UNK        -0.5000 
     60 C           0.1581  -12.3358  -45.1123 C.2       2 UNK         0.5000 
     61 O           0.6552  -13.0958  -45.9461 O.2       2 UNK        -0.5000 
     62 CA         -1.3106  -12.5149  -44.6626 C.3       2 UNK         0.1400 
     63 CB         -2.0417  -11.1725  -44.4372 C.3       2 UNK        -0.1800 
     64 N          -2.0956  -13.3827  -45.5462 N.am      2 UNK        -0.5000 
     65 C          -2.4217  -13.1777  -46.8328 C.2       1 UNK         0.5000 
     66 O          -2.1129  -12.1726  -47.4752 O.2       1 UNK        -0.5000 
     67 C          -1.7710  -21.8669  -47.3705 C.2       11 UNK         0.5000 
     68 O          -2.2920  -22.6149  -48.1970 O.2       11 UNK        -0.5000 
     69 N          -2.4527  -20.9388  -46.6859 N.am      12 UNK        -0.5000 
     70 CA         -3.8904  -20.7118  -46.8271 C.3       12 UNK         0.1400 
     71 CB         -4.2919  -19.4503  -46.0479 C.3       12 UNK        -0.1800 
     72 C          -4.7367  -21.9220  -46.3901 C.2       12 UNK         0.5000 
     73 O          -5.7170  -22.2433  -47.0617 O.2       12 UNK        -0.5000 
     74 N          -4.3416  -22.5739  -45.2884 N.am      13 UNK        -0.5000 
     75 CA         -5.0353  -23.7319  -44.7316 C.3       13 UNK         0.1400 
     76 CB         -4.6548  -23.9014  -43.2518 C.3       13 UNK        -0.1800 
     77 C          -4.7647  -25.0281  -45.5138 C.2       13 UNK         0.5000 
     78 O          -5.7145  -25.6827  -45.9456 O.2       13 UNK        -0.5000 
     79 N          -3.4852  -25.4035  -45.6425 N.am      14 UNK        -0.5000 
     80 CA         -3.0788  -26.7287  -46.1118 C.3       14 UNK         0.1400 
     81 CB         -1.7639  -27.1304  -45.4247 C.3       14 UNK        -0.1800 
     82 C          -2.9268  -26.8113  -47.6370 C.2       14 UNK         0.5000 
     83 O          -3.2641  -27.8443  -48.2169 O.2       14 UNK        -0.5000 
     84 N          -2.4093  -25.7435  -48.2570 N.am      15 UNK        -0.5000 
     85 CA         -2.0892  -25.7027  -49.6865 C.3       15 UNK         0.1400 
     86 CB         -0.6775  -25.1187  -49.8667 C.3       15 UNK        -0.1800 
     87 C          -3.1200  -24.9086  -50.5065 C.2       15 UNK         0.5000 
     88 O          -2.9491  -24.8005  -51.7195 O.2       15 UNK        -0.5000 
     89 N          -4.1454  -24.3451  -49.8492 N.am      16 UNK        -0.5000 
     90 CA         -5.1964  -23.4911  -50.4184 C.3       16 UNK         0.1400 
     91 CB         -6.1358  -24.3203  -51.3188 C.3       16 UNK        -0.1800 
     92 C          -4.6389  -22.2348  -51.1263 C.2       16 UNK         0.5000 
     93 O          -5.1669  -21.8248  -52.1617 O.2       16 UNK        -0.5000 
     94 N          -3.5617  -21.6704  -50.5574 N.am      17 UNK        -0.5000 
     95 CA         -2.7601  -20.5588  -51.0755 C.3       17 UNK         0.1400 
     96 CB         -3.5452  -19.2352  -51.0163 C.3       17 UNK        -0.1800 
     97 C          -2.1693  -20.8901  -52.4620 C.2       17 UNK         0.5000 
     98 O          -2.4833  -20.2377  -53.4598 O.2       17 UNK        -0.5000 
     99 N          -1.3457  -21.9485  -52.4801 N.am      18 UNK        -0.5000 
    100 CA        -0.6462  -22.5143  -53.6377 C.3       18 UNK         0.1400 
    101 CB         0.4056  -21.5234  -54.1789 C.3       18 UNK        -0.1800 
    102 C         -1.6020  -23.0473  -54.7262 C.2       18 UNK         0.5000 
    103 O         -1.3737  -22.8212  -55.9162 O.2       18 UNK        -0.5000 
    104 N         -2.6551  -23.7525  -54.2877 N.am      19 UNK        -0.5000 
    105 CA        -3.7018  -24.4633  -55.0353 C.3       19 UNK         0.1400 
    106 CB        -3.0978  -25.6030  -55.8764 C.3       19 UNK        -0.1800 
    107 C         -4.6281  -23.5805  -55.8939 C.2       19 UNK         0.5000 
    108 O         -5.8416  -23.7872  -55.8878 O.2       19 UNK        -0.5000 
    109 N         -4.0478  -22.6219  -56.6189 N.am      20 UNK        -0.5000 
    110 CA        -4.7172  -21.7168  -57.5503 C.3       20 UNK         0.1400 
    111 CB        -3.7160  -21.3555  -58.6615 C.3       20 UNK        -0.1800 
    112 C         -5.2684  -20.4450  -56.8763 C.2       20 UNK         0.5000 
    113 O         -5.7059  -19.5400  -57.5889 O.2       20 UNK        -0.5000 
    114 N         -5.1963  -20.3617  -55.5380 N.am      21 UNK        -0.5000 
    115 CA        -5.5415  -19.2000  -54.7081 C.3       21 UNK         0.1400 
    116 CB        -7.0656  -18.9630  -54.7018 C.3       21 UNK        -0.1800 
    117 C         -4.7282  -17.9515  -55.1120 C.2       21 UNK         0.5000 
    118 O         -5.2853  -16.8680  -55.2983 O.2       21 UNK        -0.5000 
    119 N         -3.4218  -18.1694  -55.3015 N.am      22 UNK        -0.5000 
    120 CA        -2.4225  -17.2286  -55.8334 C.3       22 UNK         0.1400 
    121 C         -2.6002  -16.8477  -57.3364 C.2       22 UNK         0.5000 
    122 N         -3.5260  -17.4383  -58.0838 N.am      22 UNK        -0.7600 
    123 O         -1.8552  -16.0189  -57.8524 O.2       22 UNK        -0.5000 
    124 C124       -2.2059  -15.9754  -54.9393 C.3       23 UNK        -0.0398 
    125 S125       -1.9143  -16.3855  -53.1867 S.3       23 UNK        -0.2404 
    126 C126       -0.1152  -16.6546  -53.1777 C.3       23 UNK        -0.0205 
    127 H127       -5.1767  -16.6321  -44.8976 H         1 UNK         0.0600 
    128 H128       -6.7554  -15.9127  -45.2272 H         1 UNK         0.0600 
    129 H129       -5.7520  -15.2820  -43.9166 H         1 UNK         0.0600 
    130 H130       -3.6721  -16.0360  -46.4301 H         1 UNK         0.3000 
    131 H131       -3.9818  -13.7670  -48.1562 H         1 UNK         0.0600 
    132 H132       -3.0384  -15.8110  -49.0488 H         1 UNK         0.0800 
    133 H133       -1.8454  -14.5553  -49.1590 H         1 UNK         0.0800 
    134 H134        0.3949  -14.7419  -48.4787 H         1 UNK         0.0800 
    135 H135        1.1425  -15.9555  -47.4763 H         1 UNK         0.0800 
    136 H136       -0.2264  -15.2861  -50.8384 H         1 UNK         0.1150 
    137 H137        1.0194  -19.0460  -52.4734 H         1 UNK         0.1150 
    138 H138        1.5563  -18.2368  -48.2970 H         1 UNK         0.1150 
    139 H139        2.4125  -20.5158  -51.1079 H         1 UNK         0.0800 
    140 H140        2.8025  -20.1176  -49.4561 H         1 UNK         0.0800 
    141 H141        0.1497  -19.9742  -47.7281 H         1 UNK         0.0800 
    142 H142        1.5798  -20.9296  -47.4247 H         1 UNK         0.0800 
    143 H143        0.0327  -23.0058  -47.4104 H         1 UNK         0.0600 
    144 H144        0.5794  -21.2385  -45.2769 H         1 UNK         0.3000 
    145 H145       -0.7191  -23.4415  -42.7086 H         1 UNK         0.0600 
    146 H146        1.6016  -23.0514  -41.9492 H         1 UNK         0.0600 
    147 H147        1.5988  -24.1082  -43.3525 H         1 UNK         0.0600 
    148 H148        2.0476  -22.4170  -43.5319 H         1 UNK         0.0600 
    149 H149        0.3974  -20.8690  -42.4264 H         1 UNK         0.3000 
    150 H150       -2.6710  -18.9917  -42.6191 H         1 UNK         0.0600 
    151 H151       -2.3682  -19.8651  -40.2970 H         1 UNK         0.0600 
    152 H152       -1.7263  -18.2361  -40.4539 H         1 UNK         0.0600 
    153 H153       -0.6305  -19.6146  -40.4156 H         1 UNK         0.0600 
    154 H154       -0.0409  -18.0499  -42.3033 H         1 UNK         0.3000 
    155 H155        0.8100  -17.6701  -45.7638 H         1 UNK         0.0600 
    156 H156       -0.5328  -15.7252  -44.8151 H         1 UNK         0.0600 
    157 H157        1.1845  -15.4188  -44.9007 H         1 UNK         0.0600 
    158 H158        0.4255  -15.7921  -43.3625 H         1 UNK         0.0600 
    159 H159        2.2790  -17.3886  -43.2936 H         1 UNK         0.3000 
    160 H160        3.6811  -20.6311  -43.2232 H         1 UNK         0.0600 
    161 H161        5.0754  -18.0416  -44.0624 H         1 UNK         0.0600 
    162 H162        5.1098  -19.5543  -44.9573 H         1 UNK         0.0600 
    163 H163        5.8460  -19.4621  -43.3645 H         1 UNK         0.0600 
    164 H164        4.0964  -18.1276  -41.8021 H         1 UNK         0.3000 
    165 H165        1.6289  -18.7739  -39.3071 H         1 UNK         0.0600 
    166 H166        3.5786  -18.6310  -37.7850 H         1 UNK         0.0600 
    167 H167        3.5549  -20.1949  -38.5839 H         1 UNK         0.0600 
    168 H168        4.6843  -18.9567  -39.1203 H         1 UNK         0.0600 
    169 H169        3.6117  -16.7473  -39.5176 H         1 UNK         0.3000 
    170 H170        1.3868  -14.3411  -40.5416 H         1 UNK         0.0600 
    171 H171        3.0583  -14.6454  -38.7017 H         1 UNK         0.0600 
    172 H172        4.3414  -14.8633  -39.8927 H         1 UNK         0.0600 
    173 H173        3.4935  -13.3288  -39.7738 H         1 UNK         0.0600 
    174 H174        2.2404  -13.7090  -42.4969 H         1 UNK         0.3000 
    175 H175        5.0644  -13.9011  -44.0375 H         1 UNK         0.0600 
    176 H176        3.2610  -15.9099  -45.4704 H         1 UNK         0.0600 
    177 H177        4.3641  -14.8040  -46.2794 H         1 UNK         0.0600 
    178 H178        4.9885  -16.0189  -45.1856 H         1 UNK         0.0600 
    179 H179        2.3551  -13.4745  -45.1291 H         1 UNK         0.3000 
    180 H180        2.3605  -10.0557  -44.0693 H         1 UNK         0.0600 
    181 H181        2.4709  -11.3895  -46.8218 H         1 UNK         0.0600 
    182 H182        3.5371  -10.1268  -46.2295 H         1 UNK         0.0600 
    183 H183        1.8324   -9.7827  -46.4785 H         1 UNK         0.0600 
    184 H184        0.3462  -10.8250  -43.8010 H         1 UNK         0.3000 
    185 H185       -1.2695  -13.0341  -43.7042 H         1 UNK         0.0600 
    186 H186       -1.6122  -10.6161  -43.6039 H         1 UNK         0.0600 
    187 H187       -1.9953  -10.5326  -45.3191 H         1 UNK         0.0600 
    188 H188       -3.0934  -11.3338  -44.1995 H         1 UNK         0.0600 
    189 H189       -2.3922  -14.2577  -45.1408 H         1 UNK         0.3000 
    190 H190       -1.9601  -20.3331  -46.0322 H         1 UNK         0.3000 
    191 H191       -4.0956  -20.5313  -47.8841 H         1 UNK         0.0600 
    192 H192       -3.7589  -18.5746  -46.4191 H         1 UNK         0.0600 
    193 H193       -5.3592  -19.2495  -46.1485 H         1 UNK         0.0600 
    194 H194       -4.0723  -19.5490  -44.9840 H         1 UNK         0.0600 
    195 H195       -3.5448  -22.2252  -44.7647 H         1 UNK         0.3000 
    196 H196       -6.1099  -23.5401  -44.7718 H         1 UNK         0.0600 
    197 H197       -5.1622  -24.7611  -42.8124 H         1 UNK         0.0600 
    198 H198       -4.9398  -23.0242  -42.6707 H         1 UNK         0.0600 
    199 H199       -3.5819  -24.0512  -43.1234 H         1 UNK         0.0600 
    200 H200       -2.7409  -24.7920  -45.3126 H         1 UNK         0.3000 
    201 H201       -3.8353  -27.4590  -45.8153 H         1 UNK         0.0600 
    202 H202       -1.8575  -27.0925  -44.3392 H         1 UNK         0.0600 
    203 H203       -0.9393  -26.4779  -45.7133 H         1 UNK         0.0600 
    204 H204       -1.4812  -28.1494  -45.6916 H         1 UNK         0.0600 
    205 H205       -2.1930  -24.9129  -47.7208 H         1 UNK         0.3000 
    206 H206       -2.0758  -26.7126  -50.1009 H         1 UNK         0.0600 
    207 H207        0.0587  -25.6827  -49.2939 H         1 UNK         0.0600 
    208 H208       -0.3686  -25.1539  -50.9121 H         1 UNK         0.0600 
    209 H209       -0.6240  -24.0796  -49.5481 H         1 UNK         0.0600 
    210 H210       -4.1671  -24.4582  -48.8458 H         1 UNK         0.3000 
    211 H211       -5.7871  -23.1269  -49.5780 H         1 UNK         0.0600 
    212 H212       -5.6279  -24.6781  -52.2142 H         1 UNK         0.0600 
    213 H213       -6.9911  -23.7269  -51.6439 H         1 UNK         0.0600 
    214 H214       -6.5274  -25.1870  -50.7864 H         1 UNK         0.0600 
    215 H215       -3.1916  -22.1131  -49.7182 H         1 UNK         0.3000 
    216 H216       -1.9127  -20.4468  -50.3992 H         1 UNK         0.0600 
    217 H217       -2.9344  -18.4089  -51.3772 H         1 UNK         0.0600 
    218 H218       -3.8318  -18.9980  -49.9919 H         1 UNK         0.0600 
    219 H219       -4.4526  -19.2643  -51.6153 H         1 UNK         0.0600 
    220 H220       -1.1892  -22.4306  -51.6067 H         1 UNK         0.3000 
    221 H221       -0.1068  -23.3867  -53.2662 H         1 UNK         0.0600 
    222 H222       -0.0531  -20.6174  -54.5760 H         1 UNK         0.0600 
    223 H223        1.1061  -21.2332  -53.3965 H         1 UNK         0.0600 
    224 H224        0.9907  -21.9726  -54.9821 H         1 UNK         0.0600 
    225 H225       -2.7270  -23.8903  -53.2808 H         1 UNK         0.3000 
    226 H226       -4.3344  -24.9235  -54.2752 H         1 UNK         0.0600 
    227 H227       -2.5188  -26.2857  -55.2544 H         1 UNK         0.0600 
    228 H228       -3.8815  -26.1884  -56.3588 H         1 UNK         0.0600 
    229 H229       -2.4422  -25.2267  -56.6622 H         1 UNK         0.0600 
    230 H230       -3.0361  -22.5340  -56.5392 H         1 UNK         0.3000 
    231 H231       -5.5631  -22.2335  -58.0080 H         1 UNK         0.0600 
    232 H232       -2.8613  -20.8044  -58.2665 H         1 UNK         0.0600 
    233 H233       -4.1814  -20.7354  -59.4288 H         1 UNK         0.0600 
    234 H234       -3.3377  -22.2496  -59.1572 H         1 UNK         0.0600 
    235 H235       -4.7937  -21.1438  -55.0401 H         1 UNK         0.3000 
    236 H236       -5.2434  -19.4522  -53.6923 H         1 UNK         0.0600 
    237 H237       -7.6006  -19.8609  -54.3927 H         1 UNK         0.0600 
    238 H238       -7.3325  -18.1695  -54.0029 H         1 UNK         0.0600 
    239 H239       -7.4370  -18.6719  -55.6847 H         1 UNK         0.0600 
    240 H240       -3.0579  -19.0745  -55.0210 H         1 UNK         0.3000 
    241 H241       -1.4897  -17.7925  -55.8144 H         1 UNK         0.0600 
    242 H242       -3.6084  -17.1799  -59.0542 H         1 UNK         0.3800 
    243 H243       -4.1816  -18.1014  -57.6895 H         1 UNK         0.3800 
    244 H244       -1.3640  -15.3826  -55.3008 H         1 UNK         0.0800 
    245 H245       -3.0767  -15.3206  -54.9906 H         1 UNK         0.0800 
    246 H246        0.1421  -17.3935  -53.9379 H         1 UNK         0.0800 
    247 H247        0.3948  -15.7296  -53.4504 H         1 UNK         0.0800 
@<TRIPOS>BOND
     1    1    2 1    
     2    1  127 1    
     3    1  128 1    
     4    1  129 1    
     5    2    3 2    
     6    2    4 am   BACKBONE|DICT|INTERRES
     7    4    5 1    
     8    4  130 1    
     9    5    6 1    
    10    5   65 1    
    11    5  131 1    
    12    6    7 1    
    13    6  132 1    
    14    6  133 1    
    15    7    8 1    
    16    8    9 1    
    17    8  134 1    
    18    8  135 1    
    19    9   10 ar   
    20    9   14 ar   
    21   10   11 ar   
    22   10  136 1    
    23   11   12 ar   
    24   11  126 1    
    25   12   13 ar   
    26   12  137 1    
    27   13   14 ar   
    28   13   15 1    
    29   14  138 1    
    30   15   16 1    
    31   15  139 1    
    32   15  140 1    
    33   16   17 1    
    34   17   18 1    
    35   17  141 1    
    36   17  142 1    
    37   18   19 1    
    38   18   67 1    
    39   18  143 1    
    40   19   20 am   BACKBONE|DICT|INTERRES
    41   19  144 1    
    42   20   21 2    
    43   20   22 1    
    44   22   23 1    
    45   22   24 1    
    46   22  145 1    
    47   23  146 1    
    48   23  147 1    
    49   23  148 1    
    50   24   25 am   BACKBONE|DICT|INTERRES
    51   24  149 1    
    52   25   26 2    
    53   25   27 1    
    54   27   28 1    
    55   27   29 1    
    56   27  150 1    
    57   28  151 1    
    58   28  152 1    
    59   28  153 1    
    60   29   30 am   BACKBONE|DICT|INTERRES
    61   29  154 1    
    62   30   31 2    
    63   30   32 1    
    64   32   33 1    
    65   32   34 1    
    66   32  155 1    
    67   33  156 1    
    68   33  157 1    
    69   33  158 1    
    70   34   35 am   BACKBONE|DICT|INTERRES
    71   34  159 1    
    72   35   36 2    
    73   35   37 1    
    74   37   38 1    
    75   37   39 1    
    76   37  160 1    
    77   38  161 1    
    78   38  162 1    
    79   38  163 1    
    80   39   40 am   BACKBONE|DICT|INTERRES
    81   39  164 1    
    82   40   41 2    
    83   40   42 1    
    84   42   43 1    
    85   42   44 1    
    86   42  165 1    
    87   43  166 1    
    88   43  167 1    
    89   43  168 1    
    90   44   45 am   BACKBONE|DICT|INTERRES
    91   44  169 1    
    92   45   46 2    
    93   45   47 1    
    94   47   48 1    
    95   47   49 1    
    96   47  170 1    
    97   48  171 1    
    98   48  172 1    
    99   48  173 1    
   100   49   50 am   BACKBONE|DICT|INTERRES
   101   49  174 1    
   102   50   51 2    
   103   50   52 1    
   104   52   53 1    
   105   52   54 1    
   106   52  175 1    
   107   53  176 1    
   108   53  177 1    
   109   53  178 1    
   110   54   55 am   BACKBONE|DICT|INTERRES
   111   54  179 1    
   112   55   56 2    
   113   55   57 1    
   114   57   58 1    
   115   57   59 1    
   116   57  180 1    
   117   58  181 1    
   118   58  182 1    
   119   58  183 1    
   120   59   60 am   BACKBONE|DICT|INTERRES
   121   59  184 1    
   122   60   61 2    
   123   60   62 1    
   124   62   63 1    
   125   62   64 1    
   126   62  185 1    
   127   63  186 1    
   128   63  187 1    
   129   63  188 1    
   130   64   65 am   BACKBONE|DICT|INTERRES
   131   64  189 1    
   132   65   66 2    
   133   67   68 2    
   134   67   69 am   BACKBONE|DICT|INTERRES
   135   69   70 1    
   136   69  190 1    
   137   70   71 1    
   138   70   72 1    
   139   70  191 1    
   140   71  192 1    
   141   71  193 1    
   142   71  194 1    
   143   72   73 2    
   144   72   74 am   BACKBONE|DICT|INTERRES
   145   74   75 1    
   146   74  195 1    
   147   75   76 1    
   148   75   77 1    
   149   75  196 1    
   150   76  197 1    
   151   76  198 1    
   152   76  199 1    
   153   77   78 2    
   154   77   79 am   BACKBONE|DICT|INTERRES
   155   79   80 1    
   156   79  200 1    
   157   80   81 1    
   158   80   82 1    
   159   80  201 1    
   160   81  202 1    
   161   81  203 1    
   162   81  204 1    
   163   82   83 2    
   164   82   84 am   BACKBONE|DICT|INTERRES
   165   84   85 1    
   166   84  205 1    
   167   85   86 1    
   168   85   87 1    
   169   85  206 1    
   170   86  207 1    
   171   86  208 1    
   172   86  209 1    
   173   87   88 2    
   174   87   89 am   BACKBONE|DICT|INTERRES
   175   89   90 1    
   176   89  210 1    
   177   90   91 1    
   178   90   92 1    
   179   90  211 1    
   180   91  212 1    
   181   91  213 1    
   182   91  214 1    
   183   92   93 2    
   184   92   94 am   BACKBONE|DICT|INTERRES
   185   94   95 1    
   186   94  215 1    
   187   95   96 1    
   188   95   97 1    
   189   95  216 1    
   190   96  217 1    
   191   96  218 1    
   192   96  219 1    
   193   97   98 2    
   194   97   99 am   BACKBONE|DICT|INTERRES
   195   99  100 1    
   196   99  220 1    
   197  100  101 1    
   198  100  102 1    
   199  100  221 1    
   200  101  222 1    
   201  101  223 1    
   202  101  224 1    
   203  102  103 2    
   204  102  104 am   BACKBONE|DICT|INTERRES
   205  104  105 1    
   206  104  225 1    
   207  105  106 1    
   208  105  107 1    
   209  105  226 1    
   210  106  227 1    
   211  106  228 1    
   212  106  229 1    
   213  107  108 2    
   214  107  109 am   BACKBONE|DICT|INTERRES
   215  109  110 1    
   216  109  230 1    
   217  110  111 1    
   218  110  112 1    
   219  110  231 1    
   220  111  232 1    
   221  111  233 1    
   222  111  234 1    
   223  112  113 2    
   224  112  114 am   BACKBONE|DICT|INTERRES
   225  114  115 1    
   226  114  235 1    
   227  115  116 1    
   228  115  117 1    
   229  115  236 1    
   230  116  237 1    
   231  116  238 1    
   232  116  239 1    
   233  117  118 2    
   234  117  119 am   BACKBONE|DICT|INTERRES
   235  119  120 1    
   236  119  240 1    
   237  120  121 1    
   238  120  124 1    
   239  120  241 1    
   240  121  122 am   BACKBONE|DICT|INTERRES
   241  121  123 2    
   242  122  242 1    
   243  122  243 1    
   244  124  125 1    
   245  124  244 1    
   246  124  245 1    
   247  125  126 1    
   248  126  246 1    
   249  126  247 1    
@<TRIPOS>SUBSTRUCTURE
     1 UNK         1 GROUP             0       ****    0 ROOT    
