@<TRIPOS>MOLECULE
3R540
247   249    1
SMALL
USER_CHARGES


@<TRIPOS>ATOM
      1 CA          0.6378  -10.8039  -45.1157 C.3       0 UNK        -0.1800 
      2 C           1.3377  -11.3152  -46.3665 C.2       0 UNK         0.5000 
      3 O           2.4210  -10.8362  -46.7010 O.2       0 UNK        -0.5000 
      4 N           0.7260  -12.2935  -47.0485 N.am      1 UNK        -0.5000 
      5 CA          1.1870  -12.8884  -48.3135 C.3       1 UNK         0.1400 
      6 C6          0.1537  -13.9098  -48.8491 C.3       23 UNK        -0.0398 
      7 S7          0.1728  -14.0852  -50.6610 S.3       23 UNK        -0.2404 
      8 C8         -0.6941  -15.6756  -50.8410 C.3       23 UNK        -0.0205 
      9 C9          0.2488  -16.7987  -51.2458 C.ar      23 UNK        -0.0193 
     10 C10         0.2293  -17.2772  -52.5590 C.ar      23 UNK        -0.1150 
     11 C11         1.0398  -18.3481  -52.9387 C.ar      23 UNK        -0.0193 
     12 C12         1.9144  -18.9092  -52.0058 C.ar      23 UNK        -0.1150 
     13 C13         1.9619  -18.4285  -50.6944 C.ar      23 UNK        -0.0193 
     14 C14         1.1171  -17.3797  -50.3141 C.ar      23 UNK        -0.1150 
     15 C15         2.9457  -19.0390  -49.7080 C.3       23 UNK        -0.0205 
     16 S16         2.4479  -20.7105  -49.1908 S.3       23 UNK        -0.2404 
     17 C17         1.2607  -20.3277  -47.8646 C.3       23 UNK        -0.0398 
     18 CA          0.7326  -21.6126  -47.1769 C.3       11 UNK         0.1400 
     19 N           0.4621  -21.4122  -45.7508 N.am      11 UNK        -0.5000 
     20 C           0.1817  -22.3918  -44.8799 C.2       10 UNK         0.5000 
     21 O           0.1832  -23.5855  -45.1755 O.2       10 UNK        -0.5000 
     22 CA         -0.2185  -21.9712  -43.4531 C.3       10 UNK         0.1400 
     23 CB          1.0214  -21.7860  -42.5667 C.3       10 UNK        -0.1800 
     24 N          -1.0367  -20.7574  -43.4317 N.am      10 UNK        -0.5000 
     25 C          -2.2570  -20.6620  -43.9796 C.2       9 UNK         0.5000 
     26 O          -2.8457  -21.6104  -44.4974 O.2       9 UNK        -0.5000 
     27 CA         -2.9059  -19.2667  -44.0073 C.3       9 UNK         0.1400 
     28 CB         -3.5735  -18.9451  -42.6623 C.3       9 UNK        -0.1800 
     29 N          -1.9546  -18.2097  -44.3533 N.am      9 UNK        -0.5000 
     30 C          -1.3093  -18.1169  -45.5252 C.2       8 UNK         0.5000 
     31 O          -1.4828  -18.8918  -46.4666 O.2       8 UNK        -0.5000 
     32 CA         -0.2481  -17.0058  -45.6405 C.3       8 UNK         0.1400 
     33 CB         -0.9068  -15.6424  -45.8935 C.3       8 UNK        -0.1800 
     34 N           0.6039  -16.9246  -44.4524 N.am      8 UNK        -0.5000 
     35 C           1.4171  -17.9065  -44.0357 C.2       7 UNK         0.5000 
     36 O           1.5870  -18.9556  -44.6540 O.2       7 UNK        -0.5000 
     37 CA          2.1176  -17.7078  -42.6805 C.3       7 UNK         0.1400 
     38 CB          3.4005  -16.8781  -42.8273 C.3       7 UNK        -0.1800 
     39 N           1.2350  -17.0813  -41.6982 N.am      7 UNK        -0.5000 
     40 C           0.1728  -17.6857  -41.1475 C.2       6 UNK         0.5000 
     41 O          -0.1474  -18.8508  -41.3793 O.2       6 UNK        -0.5000 
     42 CA         -0.7033  -16.8248  -40.2201 C.3       6 UNK         0.1400 
     43 CB         -0.1261  -16.8005  -38.7971 C.3       6 UNK        -0.1800 
     44 N          -0.8470  -15.4530  -40.7105 N.am      6 UNK        -0.5000 
     45 C          -1.4880  -15.1166  -41.8391 C.2       5 UNK         0.5000 
     46 O          -2.0705  -15.9257  -42.5596 O.2       5 UNK        -0.5000 
     47 CA         -1.4158  -13.6375  -42.2589 C.3       5 UNK         0.1400 
     48 CB         -2.5452  -12.8305  -41.6027 C.3       5 UNK        -0.1800 
     49 N          -0.1246  -13.0261  -41.9331 N.am      5 UNK        -0.5000 
     50 C           1.0308  -13.3492  -42.5258 C.2       4 UNK         0.5000 
     51 O           1.1299  -14.1803  -43.4343 O.2       4 UNK        -0.5000 
     52 CA          2.2871  -12.6500  -41.9964 C.3       4 UNK         0.1400 
     53 CB          2.8917  -13.4287  -40.8149 C.3       4 UNK        -0.1800 
     54 N           3.2478  -12.5581  -43.0866 N.am      4 UNK        -0.5000 
     55 C           4.2490  -11.6776  -43.1825 C.2       3 UNK         0.5000 
     56 O           4.5168  -10.8631  -42.2978 O.2       3 UNK        -0.5000 
     57 CA          5.0611  -11.6558  -44.4954 C.3       3 UNK         0.1400 
     58 CB          6.5807  -11.7360  -44.2415 C.3       3 UNK        -0.1800 
     59 N           4.6250  -12.6326  -45.5040 N.am      3 UNK        -0.5000 
     60 C           4.7870  -13.9650  -45.5063 C.2       2 UNK         0.5000 
     61 O           5.3498  -14.5897  -44.6079 O.2       2 UNK        -0.5000 
     62 CA          4.1761  -14.7141  -46.7063 C.3       2 UNK         0.1400 
     63 CB          3.9809  -16.2171  -46.4495 C.3       2 UNK        -0.1800 
     64 N           2.8831  -14.1272  -47.0549 N.am      2 UNK        -0.5000 
     65 C           2.5915  -13.5253  -48.2144 C.2       1 UNK         0.5000 
     66 O           3.3773  -13.4298  -49.1575 O.2       1 UNK        -0.5000 
     67 C          -0.4904  -22.1996  -47.9134 C.2       11 UNK         0.5000 
     68 O          -0.3456  -23.1815  -48.6413 O.2       11 UNK        -0.5000 
     69 N          -1.6799  -21.6351  -47.6562 N.am      12 UNK        -0.5000 
     70 CA         -2.9561  -22.1315  -48.1773 C.3       12 UNK         0.1400 
     71 CB         -4.0740  -21.1302  -47.8529 C.3       12 UNK        -0.1800 
     72 C          -3.3076  -23.5394  -47.6592 C.2       12 UNK         0.5000 
     73 O          -3.8091  -24.3605  -48.4259 O.2       12 UNK        -0.5000 
     74 N          -3.0062  -23.8128  -46.3817 N.am      13 UNK        -0.5000 
     75 CA         -3.1557  -25.1307  -45.7634 C.3       13 UNK         0.1400 
     76 CB         -2.9575  -25.0231  -44.2445 C.3       13 UNK        -0.1800 
     77 C          -2.2073  -26.1802  -46.3732 C.2       13 UNK         0.5000 
     78 O          -2.6417  -27.3012  -46.6356 O.2       13 UNK        -0.5000 
     79 N          -0.9497  -25.7933  -46.6320 N.am      14 UNK        -0.5000 
     80 CA          0.0575  -26.6182  -47.3057 C.3       14 UNK         0.1400 
     81 CB          1.4345  -25.9465  -47.1946 C.3       14 UNK        -0.1800 
     82 C          -0.2949  -26.9099  -48.7774 C.2       14 UNK         0.5000 
     83 O          -0.0638  -28.0242  -49.2479 O.2       14 UNK        -0.5000 
     84 N          -0.8876  -25.9221  -49.4626 N.am      15 UNK        -0.5000 
     85 CA         -1.4457  -26.0476  -50.8124 C.3       15 UNK         0.1400 
     86 CB         -1.6697  -24.6407  -51.3896 C.3       15 UNK        -0.1800 
     87 C          -2.7531  -26.8691  -50.8646 C.2       15 UNK         0.5000 
     88 O          -3.1776  -27.2528  -51.9548 O.2       15 UNK        -0.5000 
     89 N          -3.3618  -27.1161  -49.6948 N.am      16 UNK        -0.5000 
     90 CA         -4.6113  -27.8415  -49.4425 C.3       16 UNK         0.1400 
     91 CB         -4.5214  -29.2995  -49.9389 C.3       16 UNK        -0.1800 
     92 C          -5.8774  -27.1173  -49.9467 C.2       16 UNK         0.5000 
     93 O          -6.9467  -27.7286  -49.9866 O.2       16 UNK        -0.5000 
     94 N          -5.7528  -25.8298  -50.2859 N.am      17 UNK        -0.5000 
     95 CA         -6.8098  -24.9409  -50.7511 C.3       17 UNK         0.1400 
     96 CB         -7.3575  -25.3928  -52.1209 C.3       17 UNK        -0.1800 
     97 C          -6.2310  -23.5266  -50.8698 C.2       17 UNK         0.5000 
     98 O          -5.0623  -23.3741  -51.2297 O.2       17 UNK        -0.5000 
     99 N          -7.0796  -22.5195  -50.6344 N.am      18 UNK        -0.5000 
    100 CA        -6.7755  -21.0977  -50.8363 C.3       18 UNK         0.1400 
    101 CB        -7.5551  -20.2777  -49.7947 C.3       18 UNK        -0.1800 
    102 C         -7.0976  -20.6187  -52.2702 C.2       18 UNK         0.5000 
    103 O         -6.9992  -19.4215  -52.5467 O.2       18 UNK        -0.5000 
    104 N         -7.4892  -21.5537  -53.1499 N.am      19 UNK        -0.5000 
    105 CA        -7.8557  -21.3501  -54.5522 C.3       19 UNK         0.1400 
    106 CB        -8.1672  -22.7163  -55.1814 C.3       19 UNK        -0.1800 
    107 C         -6.7692  -20.6227  -55.3648 C.2       19 UNK         0.5000 
    108 O         -5.5771  -20.8317  -55.1223 O.2       19 UNK        -0.5000 
    109 N         -7.2123  -19.7621  -56.2923 N.am      20 UNK        -0.5000 
    110 CA        -6.3967  -18.8726  -57.1326 C.3       20 UNK         0.1400 
    111 CB        -5.5353  -19.6917  -58.1171 C.3       20 UNK        -0.1800 
    112 C         -5.5625  -17.8512  -56.3243 C.2       20 UNK         0.5000 
    113 O         -4.5494  -17.3596  -56.8242 O.2       20 UNK        -0.5000 
    114 N         -6.0027  -17.5631  -55.0877 N.am      21 UNK        -0.5000 
    115 CA        -5.3327  -16.7490  -54.0684 C.3       21 UNK         0.1400 
    116 CB        -5.3055  -15.2628  -54.4832 C.3       21 UNK        -0.1800 
    117 C         -3.9410  -17.3045  -53.6962 C.2       21 UNK         0.5000 
    118 O         -2.9940  -16.5358  -53.5312 O.2       21 UNK        -0.5000 
    119 N         -3.8420  -18.6347  -53.5957 N.am      22 UNK        -0.5000 
    120 CA        -2.6036  -19.3758  -53.3314 C.3       22 UNK         0.1400 
    121 C         -2.8948  -20.6935  -52.5687 C.2       22 UNK         0.5000 
    122 N         -3.8762  -21.4833  -52.9844 N.am      22 UNK        -0.7600 
    123 O         -2.2584  -20.9780  -51.5598 O.2       22 UNK        -0.5000 
    124 C124       -1.7890  -19.5773  -54.6380 C.3       23 UNK        -0.0398 
    125 S125       -0.1456  -20.3517  -54.4307 S.3       23 UNK        -0.2404 
    126 C126        0.9667  -18.9105  -54.3491 C.3       23 UNK        -0.0205 
    127 H127        1.3516  -10.6948  -44.2999 H         1 UNK         0.0600 
    128 H128       -0.1519  -11.4808  -44.7887 H         1 UNK         0.0600 
    129 H129        0.1939   -9.8277  -45.3098 H         1 UNK         0.0600 
    130 H130       -0.1664  -12.6245  -46.7120 H         1 UNK         0.3000 
    131 H131        1.2578  -12.0619  -49.0241 H         1 UNK         0.0600 
    132 H132        0.2957  -14.8877  -48.3875 H         1 UNK         0.0800 
    133 H133       -0.8579  -13.5976  -48.5854 H         1 UNK         0.0800 
    134 H134       -1.2124  -15.9461  -49.9200 H         1 UNK         0.0800 
    135 H135       -1.4758  -15.5504  -51.5908 H         1 UNK         0.0800 
    136 H136       -0.4412  -16.8355  -53.2823 H         1 UNK         0.1150 
    137 H137        2.5522  -19.7323  -52.2969 H         1 UNK         0.1150 
    138 H138        1.1408  -17.0106  -49.2989 H         1 UNK         0.1150 
    139 H139        3.9277  -19.0977  -50.1794 H         1 UNK         0.0800 
    140 H140        3.0687  -18.4024  -48.8323 H         1 UNK         0.0800 
    141 H141        0.4523  -19.7083  -48.2579 H         1 UNK         0.0800 
    142 H142        1.7905  -19.7058  -47.1430 H         1 UNK         0.0800 
    143 H143        1.5204  -22.3684  -47.2170 H         1 UNK         0.0600 
    144 H144        0.5060  -20.4583  -45.4077 H         1 UNK         0.3000 
    145 H145       -0.8164  -22.7781  -43.0257 H         1 UNK         0.0600 
    146 H146        0.7410  -21.5428  -41.5417 H         1 UNK         0.0600 
    147 H147        1.6151  -22.7003  -42.5333 H         1 UNK         0.0600 
    148 H148        1.6678  -20.9904  -42.9351 H         1 UNK         0.0600 
    149 H149       -0.6422  -19.9479  -42.9631 H         1 UNK         0.3000 
    150 H150       -3.6813  -19.2783  -44.7759 H         1 UNK         0.0600 
    151 H151       -4.3078  -19.7074  -42.3990 H         1 UNK         0.0600 
    152 H152       -4.0960  -17.9890  -42.7009 H         1 UNK         0.0600 
    153 H153       -2.8463  -18.8953  -41.8520 H         1 UNK         0.0600 
    154 H154       -1.7951  -17.4943  -43.6494 H         1 UNK         0.3000 
    155 H155        0.3923  -17.2393  -46.4938 H         1 UNK         0.0600 
    156 H156       -1.6035  -15.3742  -45.1003 H         1 UNK         0.0600 
    157 H157       -0.1606  -14.8519  -45.9580 H         1 UNK         0.0600 
    158 H158       -1.4690  -15.6503  -46.8278 H         1 UNK         0.0600 
    159 H159        0.5606  -16.0660  -43.9146 H         1 UNK         0.3000 
    160 H160        2.3988  -18.6935  -42.3041 H         1 UNK         0.0600 
    161 H161        3.1971  -15.8749  -43.2013 H         1 UNK         0.0600 
    162 H162        4.0940  -17.3527  -43.5224 H         1 UNK         0.0600 
    163 H163        3.9189  -16.7810  -41.8734 H         1 UNK         0.0600 
    164 H164        1.4086  -16.1127  -41.4805 H         1 UNK         0.3000 
    165 H165       -1.6956  -17.2791  -40.1804 H         1 UNK         0.0600 
    166 H166       -0.7781  -16.2523  -38.1169 H         1 UNK         0.0600 
    167 H167       -0.0225  -17.8119  -38.4016 H         1 UNK         0.0600 
    168 H168        0.8593  -16.3337  -38.7677 H         1 UNK         0.0600 
    169 H169       -0.4028  -14.7249  -40.1715 H         1 UNK         0.3000 
    170 H170       -1.5505  -13.5923  -43.3416 H         1 UNK         0.0600 
    171 H171       -3.5201  -13.2551  -41.8466 H         1 UNK         0.0600 
    172 H172       -2.4550  -12.8180  -40.5158 H         1 UNK         0.0600 
    173 H173       -2.5456  -11.7978  -41.9520 H         1 UNK         0.0600 
    174 H174       -0.1272  -12.3317  -41.1995 H         1 UNK         0.3000 
    175 H175        2.0139  -11.6435  -41.6726 H         1 UNK         0.0600 
    176 H176        3.2093  -14.4282  -41.1113 H         1 UNK         0.0600 
    177 H177        3.7611  -12.9131  -40.4068 H         1 UNK         0.0600 
    178 H178        2.1715  -13.5370  -40.0032 H         1 UNK         0.0600 
    179 H179        3.0741  -13.1962  -43.8508 H         1 UNK         0.3000 
    180 H180        4.8623  -10.6803  -44.9416 H         1 UNK         0.0600 
    181 H181        6.8586  -12.6456  -43.7089 H         1 UNK         0.0600 
    182 H182        6.9188  -10.8937  -43.6370 H         1 UNK         0.0600 
    183 H183        7.1402  -11.7076  -45.1764 H         1 UNK         0.0600 
    184 H184        4.0975  -12.2270  -46.2688 H         1 UNK         0.3000 
    185 H185        4.8870  -14.6056  -47.5277 H         1 UNK         0.0600 
    186 H186        4.9185  -16.7026  -46.1764 H         1 UNK         0.0600 
    187 H187        3.2669  -16.3909  -45.6479 H         1 UNK         0.0600 
    188 H188        3.6040  -16.7160  -47.3406 H         1 UNK         0.0600 
    189 H189        2.1857  -14.1202  -46.3240 H         1 UNK         0.3000 
    190 H190       -1.7120  -20.8110  -47.0642 H         1 UNK         0.3000 
    191 H191       -2.8703  -22.1981  -49.2632 H         1 UNK         0.0600 
    192 H192       -4.1847  -20.9803  -46.7790 H         1 UNK         0.0600 
    193 H193       -5.0316  -21.4835  -48.2362 H         1 UNK         0.0600 
    194 H194       -3.8769  -20.1602  -48.3097 H         1 UNK         0.0600 
    195 H195       -2.6665  -23.0616  -45.7884 H         1 UNK         0.3000 
    196 H196       -4.1794  -25.4653  -45.9442 H         1 UNK         0.0600 
    197 H197       -3.1328  -25.9848  -43.7610 H         1 UNK         0.0600 
    198 H198       -3.6514  -24.3062  -43.8053 H         1 UNK         0.0600 
    199 H199       -1.9460  -24.7097  -43.9896 H         1 UNK         0.0600 
    200 H200       -0.6499  -24.8706  -46.3283 H         1 UNK         0.3000 
    201 H201        0.1066  -27.5755  -46.7828 H         1 UNK         0.0600 
    202 H202        1.7216  -25.8073  -46.1522 H         1 UNK         0.0600 
    203 H203        1.4477  -24.9693  -47.6775 H         1 UNK         0.0600 
    204 H204        2.2059  -26.5564  -47.6662 H         1 UNK         0.0600 
    205 H205       -0.9604  -25.0064  -49.0275 H         1 UNK         0.3000 
    206 H206       -0.7137  -26.5600  -51.4396 H         1 UNK         0.0600 
    207 H207       -0.7406  -24.0712  -51.4204 H         1 UNK         0.0600 
    208 H208       -2.0563  -24.6876  -52.4083 H         1 UNK         0.0600 
    209 H209       -2.3863  -24.0725  -50.7964 H         1 UNK         0.0600 
    210 H210       -2.9334  -26.7220  -48.8673 H         1 UNK         0.3000 
    211 H211       -4.7117  -27.8769  -48.3573 H         1 UNK         0.0600 
    212 H212       -4.5098  -29.3588  -51.0274 H         1 UNK         0.0600 
    213 H213       -5.3740  -29.8841  -49.5916 H         1 UNK         0.0600 
    214 H214       -3.6216  -29.7882  -49.5649 H         1 UNK         0.0600 
    215 H215       -4.8528  -25.3764  -50.1617 H         1 UNK         0.3000 
    216 H216       -7.6132  -24.9401  -50.0119 H         1 UNK         0.0600 
    217 H217       -6.5653  -25.4473  -52.8691 H         1 UNK         0.0600 
    218 H218       -8.1126  -24.6988  -52.4912 H         1 UNK         0.0600 
    219 H219       -7.8314  -26.3722  -52.0662 H         1 UNK         0.0600 
    220 H220       -8.0268  -22.7324  -50.3544 H         1 UNK         0.3000 
    221 H221       -5.7096  -20.9254  -50.6722 H         1 UNK         0.0600 
    222 H222       -7.3208  -20.6010  -48.7805 H         1 UNK         0.0600 
    223 H223       -8.6327  -20.3691  -49.9354 H         1 UNK         0.0600 
    224 H224       -7.3036  -19.2184  -49.8604 H         1 UNK         0.0600 
    225 H225       -7.5076  -22.5070  -52.8253 H         1 UNK         0.3000 
    226 H226       -8.7640  -20.7445  -54.5634 H         1 UNK         0.0600 
    227 H227       -8.9857  -23.2146  -54.6616 H         1 UNK         0.0600 
    228 H228       -8.4649  -22.6091  -56.2254 H         1 UNK         0.0600 
    229 H229       -7.2995  -23.3771  -55.1539 H         1 UNK         0.0600 
    230 H230       -8.2113  -19.6641  -56.4127 H         1 UNK         0.3000 
    231 H231       -7.0996  -18.2834  -57.7232 H         1 UNK         0.0600 
    232 H232       -4.7469  -20.2436  -57.6044 H         1 UNK         0.0600 
    233 H233       -5.0544  -19.0433  -58.8503 H         1 UNK         0.0600 
    234 H234       -6.1420  -20.4088  -58.6701 H         1 UNK         0.0600 
    235 H235       -6.8321  -18.0440  -54.7679 H         1 UNK         0.3000 
    236 H236       -5.9403  -16.8270  -53.1657 H         1 UNK         0.0600 
    237 H237       -4.9255  -14.6390  -53.6733 H         1 UNK         0.0600 
    238 H238       -4.6673  -15.0947  -55.3510 H         1 UNK         0.0600 
    239 H239       -6.3052  -14.9032  -54.7267 H         1 UNK         0.0600 
    240 H240       -4.6704  -19.1999  -53.7331 H         1 UNK         0.3000 
    241 H241       -2.0030  -18.7735  -52.6498 H         1 UNK         0.0600 
    242 H242       -4.1085  -22.2999  -52.4254 H         1 UNK         0.3800 
    243 H243       -4.4124  -21.2860  -53.8269 H         1 UNK         0.3800 
    244 H244       -1.6585  -18.6192  -55.1424 H         1 UNK         0.0800 
    245 H245       -2.3617  -20.1937  -55.3330 H         1 UNK         0.0800 
    246 H246        0.6512  -18.1441  -55.0585 H         1 UNK         0.0800 
    247 H247        1.9634  -19.2213  -54.6660 H         1 UNK         0.0800 
@<TRIPOS>BOND
     1    1    2 1    
     2    1  127 1    
     3    1  128 1    
     4    1  129 1    
     5    2    3 2    
     6    2    4 am   BACKBONE|DICT|INTERRES
     7    4    5 1    
     8    4  130 1    
     9    5    6 1    
    10    5   65 1    
    11    5  131 1    
    12    6    7 1    
    13    6  132 1    
    14    6  133 1    
    15    7    8 1    
    16    8    9 1    
    17    8  134 1    
    18    8  135 1    
    19    9   10 ar   
    20    9   14 ar   
    21   10   11 ar   
    22   10  136 1    
    23   11   12 ar   
    24   11  126 1    
    25   12   13 ar   
    26   12  137 1    
    27   13   14 ar   
    28   13   15 1    
    29   14  138 1    
    30   15   16 1    
    31   15  139 1    
    32   15  140 1    
    33   16   17 1    
    34   17   18 1    
    35   17  141 1    
    36   17  142 1    
    37   18   19 1    
    38   18   67 1    
    39   18  143 1    
    40   19   20 am   BACKBONE|DICT|INTERRES
    41   19  144 1    
    42   20   21 2    
    43   20   22 1    
    44   22   23 1    
    45   22   24 1    
    46   22  145 1    
    47   23  146 1    
    48   23  147 1    
    49   23  148 1    
    50   24   25 am   BACKBONE|DICT|INTERRES
    51   24  149 1    
    52   25   26 2    
    53   25   27 1    
    54   27   28 1    
    55   27   29 1    
    56   27  150 1    
    57   28  151 1    
    58   28  152 1    
    59   28  153 1    
    60   29   30 am   BACKBONE|DICT|INTERRES
    61   29  154 1    
    62   30   31 2    
    63   30   32 1    
    64   32   33 1    
    65   32   34 1    
    66   32  155 1    
    67   33  156 1    
    68   33  157 1    
    69   33  158 1    
    70   34   35 am   BACKBONE|DICT|INTERRES
    71   34  159 1    
    72   35   36 2    
    73   35   37 1    
    74   37   38 1    
    75   37   39 1    
    76   37  160 1    
    77   38  161 1    
    78   38  162 1    
    79   38  163 1    
    80   39   40 am   BACKBONE|DICT|INTERRES
    81   39  164 1    
    82   40   41 2    
    83   40   42 1    
    84   42   43 1    
    85   42   44 1    
    86   42  165 1    
    87   43  166 1    
    88   43  167 1    
    89   43  168 1    
    90   44   45 am   BACKBONE|DICT|INTERRES
    91   44  169 1    
    92   45   46 2    
    93   45   47 1    
    94   47   48 1    
    95   47   49 1    
    96   47  170 1    
    97   48  171 1    
    98   48  172 1    
    99   48  173 1    
   100   49   50 am   BACKBONE|DICT|INTERRES
   101   49  174 1    
   102   50   51 2    
   103   50   52 1    
   104   52   53 1    
   105   52   54 1    
   106   52  175 1    
   107   53  176 1    
   108   53  177 1    
   109   53  178 1    
   110   54   55 am   BACKBONE|DICT|INTERRES
   111   54  179 1    
   112   55   56 2    
   113   55   57 1    
   114   57   58 1    
   115   57   59 1    
   116   57  180 1    
   117   58  181 1    
   118   58  182 1    
   119   58  183 1    
   120   59   60 am   BACKBONE|DICT|INTERRES
   121   59  184 1    
   122   60   61 2    
   123   60   62 1    
   124   62   63 1    
   125   62   64 1    
   126   62  185 1    
   127   63  186 1    
   128   63  187 1    
   129   63  188 1    
   130   64   65 am   BACKBONE|DICT|INTERRES
   131   64  189 1    
   132   65   66 2    
   133   67   68 2    
   134   67   69 am   BACKBONE|DICT|INTERRES
   135   69   70 1    
   136   69  190 1    
   137   70   71 1    
   138   70   72 1    
   139   70  191 1    
   140   71  192 1    
   141   71  193 1    
   142   71  194 1    
   143   72   73 2    
   144   72   74 am   BACKBONE|DICT|INTERRES
   145   74   75 1    
   146   74  195 1    
   147   75   76 1    
   148   75   77 1    
   149   75  196 1    
   150   76  197 1    
   151   76  198 1    
   152   76  199 1    
   153   77   78 2    
   154   77   79 am   BACKBONE|DICT|INTERRES
   155   79   80 1    
   156   79  200 1    
   157   80   81 1    
   158   80   82 1    
   159   80  201 1    
   160   81  202 1    
   161   81  203 1    
   162   81  204 1    
   163   82   83 2    
   164   82   84 am   BACKBONE|DICT|INTERRES
   165   84   85 1    
   166   84  205 1    
   167   85   86 1    
   168   85   87 1    
   169   85  206 1    
   170   86  207 1    
   171   86  208 1    
   172   86  209 1    
   173   87   88 2    
   174   87   89 am   BACKBONE|DICT|INTERRES
   175   89   90 1    
   176   89  210 1    
   177   90   91 1    
   178   90   92 1    
   179   90  211 1    
   180   91  212 1    
   181   91  213 1    
   182   91  214 1    
   183   92   93 2    
   184   92   94 am   BACKBONE|DICT|INTERRES
   185   94   95 1    
   186   94  215 1    
   187   95   96 1    
   188   95   97 1    
   189   95  216 1    
   190   96  217 1    
   191   96  218 1    
   192   96  219 1    
   193   97   98 2    
   194   97   99 am   BACKBONE|DICT|INTERRES
   195   99  100 1    
   196   99  220 1    
   197  100  101 1    
   198  100  102 1    
   199  100  221 1    
   200  101  222 1    
   201  101  223 1    
   202  101  224 1    
   203  102  103 2    
   204  102  104 am   BACKBONE|DICT|INTERRES
   205  104  105 1    
   206  104  225 1    
   207  105  106 1    
   208  105  107 1    
   209  105  226 1    
   210  106  227 1    
   211  106  228 1    
   212  106  229 1    
   213  107  108 2    
   214  107  109 am   BACKBONE|DICT|INTERRES
   215  109  110 1    
   216  109  230 1    
   217  110  111 1    
   218  110  112 1    
   219  110  231 1    
   220  111  232 1    
   221  111  233 1    
   222  111  234 1    
   223  112  113 2    
   224  112  114 am   BACKBONE|DICT|INTERRES
   225  114  115 1    
   226  114  235 1    
   227  115  116 1    
   228  115  117 1    
   229  115  236 1    
   230  116  237 1    
   231  116  238 1    
   232  116  239 1    
   233  117  118 2    
   234  117  119 am   BACKBONE|DICT|INTERRES
   235  119  120 1    
   236  119  240 1    
   237  120  121 1    
   238  120  124 1    
   239  120  241 1    
   240  121  122 am   BACKBONE|DICT|INTERRES
   241  121  123 2    
   242  122  242 1    
   243  122  243 1    
   244  124  125 1    
   245  124  244 1    
   246  124  245 1    
   247  125  126 1    
   248  126  246 1    
   249  126  247 1    
@<TRIPOS>SUBSTRUCTURE
     1 UNK         1 GROUP             0       ****    0 ROOT    
