@<TRIPOS>MOLECULE
3R540
247   249    1
SMALL
USER_CHARGES


@<TRIPOS>ATOM
      1 CA         -1.7552  -13.5053  -48.4742 C.3       0 UNK        -0.1800 
      2 C          -0.4120  -12.9723  -48.9444 C.2       0 UNK         0.5000 
      3 O          -0.0199  -11.8699  -48.5628 O.2       0 UNK        -0.5000 
      4 N           0.3044  -13.7558  -49.7618 N.am      1 UNK        -0.5000 
      5 CA          1.5970  -13.3923  -50.3669 C.3       1 UNK         0.1400 
      6 C6          2.0745  -14.4206  -51.4226 C.3       23 UNK        -0.0398 
      7 S7          0.8322  -14.7559  -52.7182 S.3       23 UNK        -0.2404 
      8 C8          0.4650  -16.5173  -52.4320 C.3       23 UNK        -0.0205 
      9 C9         -0.2622  -16.7463  -51.1158 C.ar      23 UNK        -0.0193 
     10 C10        -1.6246  -16.4573  -51.0144 C.ar      23 UNK        -0.1150 
     11 C11        -2.3165  -16.6903  -49.8235 C.ar      23 UNK        -0.0193 
     12 C12        -1.6288  -17.2075  -48.7217 C.ar      23 UNK        -0.1150 
     13 C13        -0.2638  -17.5043  -48.8094 C.ar      23 UNK        -0.0193 
     14 C14         0.4149  -17.2639  -50.0076 C.ar      23 UNK        -0.1150 
     15 C15         0.4674  -18.1179  -47.6201 C.3       23 UNK        -0.0205 
     16 S16         1.0920  -19.7978  -47.9645 S.3       23 UNK        -0.2404 
     17 C17        -0.4206  -20.6477  -48.5292 C.3       23 UNK        -0.0398 
     18 CA         -0.8364  -21.8641  -47.6733 C.3       11 UNK         0.1400 
     19 N          -0.8981  -21.5467  -46.2384 N.am      11 UNK        -0.5000 
     20 C          -1.2777  -22.3705  -45.2497 C.2       10 UNK         0.5000 
     21 O          -1.7419  -23.4973  -45.4389 O.2       10 UNK        -0.5000 
     22 CA         -1.1107  -21.8303  -43.8161 C.3       10 UNK         0.1400 
     23 CB         -1.2551  -22.9260  -42.7403 C.3       10 UNK        -0.1800 
     24 N           0.1375  -21.0846  -43.6306 N.am      10 UNK        -0.5000 
     25 C           1.3922  -21.5383  -43.7828 C.2       9 UNK         0.5000 
     26 O           1.6812  -22.6749  -44.1575 O.2       9 UNK        -0.5000 
     27 CA          2.5202  -20.5518  -43.4264 C.3       9 UNK         0.1400 
     28 CB          2.8409  -19.6408  -44.6211 C.3       9 UNK        -0.1800 
     29 N           2.1976  -19.7255  -42.2622 N.am      9 UNK        -0.5000 
     30 C           2.0394  -20.1846  -41.0118 C.2       8 UNK         0.5000 
     31 O           2.2185  -21.3574  -40.6818 O.2       8 UNK        -0.5000 
     32 CA          1.5812  -19.1629  -39.9570 C.3       8 UNK         0.1400 
     33 CB          2.7729  -18.3595  -39.4120 C.3       8 UNK        -0.1800 
     34 N           0.5768  -18.2465  -40.4974 N.am      8 UNK        -0.5000 
     35 C          -0.7194  -18.5508  -40.6554 C.2       7 UNK         0.5000 
     36 O          -1.2192  -19.6198  -40.3050 O.2       7 UNK        -0.5000 
     37 CA         -1.6076  -17.4867  -41.3294 C.3       7 UNK         0.1400 
     38 CB         -2.2115  -16.5439  -40.2778 C.3       7 UNK        -0.1800 
     39 N          -0.8875  -16.6921  -42.3247 N.am      7 UNK        -0.5000 
     40 C          -0.4560  -17.1609  -43.5035 C.2       6 UNK         0.5000 
     41 O          -0.6600  -18.3077  -43.9029 O.2       6 UNK        -0.5000 
     42 CA          0.3979  -16.2039  -44.3552 C.3       6 UNK         0.1400 
     43 CB         -0.4855  -15.3941  -45.3146 C.3       6 UNK        -0.1800 
     44 N           1.2314  -15.2973  -43.5569 N.am      6 UNK        -0.5000 
     45 C           2.2062  -15.7094  -42.7292 C.2       5 UNK         0.5000 
     46 O           2.4842  -16.8975  -42.5707 O.2       5 UNK        -0.5000 
     47 CA          2.9863  -14.6579  -41.9167 C.3       5 UNK         0.1400 
     48 CB          4.4761  -14.6598  -42.2915 C.3       5 UNK        -0.1800 
     49 N           2.4509  -13.3040  -42.0528 N.am      5 UNK        -0.5000 
     50 C           1.3904  -12.8403  -41.3760 C.2       4 UNK         0.5000 
     51 O           0.7660  -13.5095  -40.5518 O.2       4 UNK        -0.5000 
     52 CA          0.9280  -11.4020  -41.6883 C.3       4 UNK         0.1400 
     53 CB          1.5065  -10.4176  -40.6607 C.3       4 UNK        -0.1800 
     54 N           1.2758  -10.9429  -43.0364 N.am      4 UNK        -0.5000 
     55 C           0.8346  -11.4990  -44.1725 C.2       3 UNK         0.5000 
     56 O           0.0776  -12.4698  -44.1961 O.2       3 UNK        -0.5000 
     57 CA          1.3373  -10.9108  -45.5064 C.3       3 UNK         0.1400 
     58 CB          2.2647   -9.6832  -45.3580 C.3       3 UNK        -0.1800 
     59 N           1.9726  -11.9411  -46.3324 N.am      3 UNK        -0.5000 
     60 C           3.0367  -12.6951  -46.0114 C.2       2 UNK         0.5000 
     61 O           3.6439  -12.5841  -44.9454 O.2       2 UNK        -0.5000 
     62 CA          3.5015  -13.7581  -47.0320 C.3       2 UNK         0.1400 
     63 CB          3.6276  -15.1468  -46.3847 C.3       2 UNK        -0.1800 
     64 N           2.6068  -13.8714  -48.1840 N.am      2 UNK        -0.5000 
     65 C           2.7090  -13.1676  -49.3189 C.2       1 UNK         0.5000 
     66 O           3.6116  -12.3619  -49.5479 O.2       1 UNK        -0.5000 
     67 C          -2.1513  -22.4376  -48.2398 C.2       11 UNK         0.5000 
     68 O          -2.1124  -23.3064  -49.1117 O.2       11 UNK        -0.5000 
     69 N          -3.2869  -21.9656  -47.7066 N.am      12 UNK        -0.5000 
     70 CA         -4.6395  -22.4100  -48.0448 C.3       12 UNK         0.1400 
     71 CB         -5.6520  -21.5167  -47.3132 C.3       12 UNK        -0.1800 
     72 C          -4.9113  -23.9027  -47.7572 C.2       12 UNK         0.5000 
     73 O          -5.8635  -24.4474  -48.3125 O.2       12 UNK        -0.5000 
     74 N          -4.0774  -24.5337  -46.9201 N.am      13 UNK        -0.5000 
     75 CA         -4.0536  -25.9751  -46.6885 C.3       13 UNK         0.1400 
     76 CB         -4.2501  -26.2507  -45.1892 C.3       13 UNK        -0.1800 
     77 C          -2.7276  -26.5782  -47.1820 C.2       13 UNK         0.5000 
     78 O          -2.7455  -27.5980  -47.8723 O.2       13 UNK        -0.5000 
     79 N          -1.6014  -25.9410  -46.8272 N.am      14 UNK        -0.5000 
     80 CA         -0.2408  -26.4322  -47.0659 C.3       14 UNK         0.1400 
     81 CB          0.7500  -25.5699  -46.2689 C.3       14 UNK        -0.1800 
     82 C           0.1706  -26.4928  -48.5492 C.2       14 UNK         0.5000 
     83 O           1.0059  -27.3243  -48.9063 O.2       14 UNK        -0.5000 
     84 N          -0.4250  -25.6331  -49.3828 N.am      15 UNK        -0.5000 
     85 CA         -0.2315  -25.5792  -50.8306 C.3       15 UNK         0.1400 
     86 CB          0.5158  -24.2846  -51.1967 C.3       15 UNK        -0.1800 
     87 C          -1.5904  -25.7291  -51.5381 C.2       15 UNK         0.5000 
     88 O          -1.8772  -25.0116  -52.5013 O.2       15 UNK        -0.5000 
     89 N          -2.4138  -26.6508  -51.0136 N.am      16 UNK        -0.5000 
     90 CA         -3.7363  -27.1088  -51.4638 C.3       16 UNK         0.1400 
     91 CB         -3.6582  -27.7174  -52.8767 C.3       16 UNK        -0.1800 
     92 C          -4.8604  -26.0586  -51.3810 C.2       16 UNK         0.5000 
     93 O          -5.9555  -26.3805  -50.9206 O.2       16 UNK        -0.5000 
     94 N          -4.5699  -24.8396  -51.8377 N.am      17 UNK        -0.5000 
     95 CA         -5.4529  -23.6771  -51.8795 C.3       17 UNK         0.1400 
     96 CB         -6.5248  -23.8646  -52.9744 C.3       17 UNK        -0.1800 
     97 C          -4.6200  -22.3990  -52.0953 C.2       17 UNK         0.5000 
     98 O          -5.1114  -21.4465  -52.7059 O.2       17 UNK        -0.5000 
     99 N          -3.3551  -22.4139  -51.6471 N.am      18 UNK        -0.5000 
    100 CA        -2.3132  -21.4170  -51.9161 C.3       18 UNK         0.1400 
    101 CB        -2.6579  -20.0769  -51.2432 C.3       18 UNK        -0.1800 
    102 C         -2.0288  -21.2740  -53.4237 C.2       18 UNK         0.5000 
    103 O         -1.9186  -20.1572  -53.9259 O.2       18 UNK        -0.5000 
    104 N         -1.9976  -22.4132  -54.1344 N.am      19 UNK        -0.5000 
    105 CA        -1.9672  -22.5157  -55.6011 C.3       19 UNK         0.1400 
    106 CB        -0.6069  -22.0450  -56.1567 C.3       19 UNK        -0.1800 
    107 C         -3.1751  -21.8149  -56.2720 C.2       19 UNK         0.5000 
    108 O         -3.0345  -21.2082  -57.3347 O.2       19 UNK        -0.5000 
    109 N         -4.3368  -21.9130  -55.6081 N.am      20 UNK        -0.5000 
    110 CA        -5.6367  -21.3154  -55.9308 C.3       20 UNK         0.1400 
    111 CB        -6.1273  -21.7408  -57.3309 C.3       20 UNK        -0.1800 
    112 C         -5.7140  -19.7897  -55.7011 C.2       20 UNK         0.5000 
    113 O         -6.6449  -19.1565  -56.2027 O.2       20 UNK        -0.5000 
    114 N         -4.7724  -19.2156  -54.9365 N.am      21 UNK        -0.5000 
    115 CA        -4.7638  -17.7916  -54.5909 C.3       21 UNK         0.1400 
    116 CB        -3.3445  -17.3556  -54.2015 C.3       21 UNK        -0.1800 
    117 C         -5.7632  -17.4227  -53.4769 C.2       21 UNK         0.5000 
    118 O         -6.2262  -16.2810  -53.4552 O.2       21 UNK        -0.5000 
    119 N         -6.0850  -18.3649  -52.5796 N.am      22 UNK        -0.5000 
    120 CA        -7.0147  -18.1404  -51.4547 C.3       22 UNK         0.1400 
    121 C         -7.7377  -19.4086  -50.9198 C.2       22 UNK         0.5000 
    122 N         -7.4514  -20.6108  -51.3984 N.am      22 UNK        -0.7600 
    123 O         -8.6188  -19.2980  -50.0714 O.2       22 UNK        -0.5000 
    124 C124       -6.4179  -17.2650  -50.3138 C.3       23 UNK        -0.0398 
    125 S125       -4.8225  -17.8751  -49.6618 S.3       23 UNK        -0.2404 
    126 C126       -3.8009  -16.3684  -49.7325 C.3       23 UNK        -0.0205 
    127 H127       -1.6274  -14.4434  -47.9362 H         1 UNK         0.0600 
    128 H128       -2.2398  -12.7956  -47.8035 H         1 UNK         0.0600 
    129 H129       -2.4150  -13.6748  -49.3247 H         1 UNK         0.0600 
    130 H130       -0.0770  -14.6454  -50.0566 H         1 UNK         0.3000 
    131 H131        1.4481  -12.4386  -50.8778 H         1 UNK         0.0600 
    132 H132        2.9713  -14.0508  -51.9233 H         1 UNK         0.0800 
    133 H133        2.3684  -15.3562  -50.9451 H         1 UNK         0.0800 
    134 H134        1.3896  -17.0953  -52.4704 H         1 UNK         0.0800 
    135 H135       -0.1551  -16.8857  -53.2510 H         1 UNK         0.0800 
    136 H136       -2.1460  -16.0519  -51.8693 H         1 UNK         0.1150 
    137 H137       -2.1667  -17.3957  -47.8032 H         1 UNK         0.1150 
    138 H138        1.4661  -17.5052  -50.0808 H         1 UNK         0.1150 
    139 H139        1.3071  -17.4778  -47.3475 H         1 UNK         0.0800 
    140 H140       -0.1857  -18.1663  -46.7483 H         1 UNK         0.0800 
    141 H141       -0.2431  -20.9546  -49.5606 H         1 UNK         0.0800 
    142 H142       -1.2427  -19.9342  -48.5645 H         1 UNK         0.0800 
    143 H143       -0.0733  -22.6349  -47.7921 H         1 UNK         0.0600 
    144 H144       -0.5139  -20.6504  -45.9756 H         1 UNK         0.3000 
    145 H145       -1.9183  -21.1127  -43.6654 H         1 UNK         0.0600 
    146 H146       -1.1453  -22.5092  -41.7388 H         1 UNK         0.0600 
    147 H147       -2.2375  -23.3970  -42.7902 H         1 UNK         0.0600 
    148 H148       -0.5093  -23.7125  -42.8603 H         1 UNK         0.0600 
    149 H149        0.0166  -20.1042  -43.3962 H         1 UNK         0.3000 
    150 H150        3.4133  -21.1335  -43.1892 H         1 UNK         0.0600 
    151 H151        3.1383  -20.2283  -45.4905 H         1 UNK         0.0600 
    152 H152        3.6601  -18.9592  -44.3915 H         1 UNK         0.0600 
    153 H153        1.9784  -19.0412  -44.9113 H         1 UNK         0.0600 
    154 H154        2.1133  -18.7254  -42.4240 H         1 UNK         0.3000 
    155 H155        1.1407  -19.7148  -39.1237 H         1 UNK         0.0600 
    156 H156        3.2772  -17.7932  -40.1951 H         1 UNK         0.0600 
    157 H157        3.5129  -19.0221  -38.9616 H         1 UNK         0.0600 
    158 H158        2.4551  -17.6567  -38.6418 H         1 UNK         0.0600 
    159 H159        0.9153  -17.3656  -40.8555 H         1 UNK         0.3000 
    160 H160       -2.4251  -18.0072  -41.8330 H         1 UNK         0.0600 
    161 H161       -2.9033  -15.8358  -40.7343 H         1 UNK         0.0600 
    162 H162       -1.4406  -15.9727  -39.7586 H         1 UNK         0.0600 
    163 H163       -2.7694  -17.1033  -39.5256 H         1 UNK         0.0600 
    164 H164       -0.6670  -15.7384  -42.0756 H         1 UNK         0.3000 
    165 H165        1.0678  -16.8231  -44.9521 H         1 UNK         0.0600 
    166 H166        0.1153  -14.7671  -45.9735 H         1 UNK         0.0600 
    167 H167       -1.0868  -16.0491  -45.9446 H         1 UNK         0.0600 
    168 H168       -1.1764  -14.7471  -44.7734 H         1 UNK         0.0600 
    169 H169        1.0287  -14.3070  -43.6340 H         1 UNK         0.3000 
    170 H170        2.9154  -14.9573  -40.8689 H         1 UNK         0.0600 
    171 H171        4.9143  -15.6488  -42.1505 H         1 UNK         0.0600 
    172 H172        4.6348  -14.3786  -43.3311 H         1 UNK         0.0600 
    173 H173        5.0392  -13.9654  -41.6680 H         1 UNK         0.0600 
    174 H174        2.8845  -12.7159  -42.7541 H         1 UNK         0.3000 
    175 H175       -0.1605  -11.3854  -41.6027 H         1 UNK         0.0600 
    176 H176        1.1174   -9.4110  -40.8150 H         1 UNK         0.0600 
    177 H177        1.2432  -10.7136  -39.6443 H         1 UNK         0.0600 
    178 H178        2.5948  -10.3706  -40.7174 H         1 UNK         0.0600 
    179 H179        1.9139  -10.1629  -43.0982 H         1 UNK         0.3000 
    180 H180        0.4472  -10.5882  -46.0482 H         1 UNK         0.0600 
    181 H181        3.1811   -9.9178  -44.8154 H         1 UNK         0.0600 
    182 H182        1.7624   -8.8700  -44.8326 H         1 UNK         0.0600 
    183 H183        2.5535   -9.2977  -46.3359 H         1 UNK         0.0600 
    184 H184        1.5109  -12.1100  -47.2191 H         1 UNK         0.3000 
    185 H185        4.4949  -13.4578  -47.3713 H         1 UNK         0.0600 
    186 H186        2.6696  -15.5001  -46.0099 H         1 UNK         0.0600 
    187 H187        3.9970  -15.8822  -47.0996 H         1 UNK         0.0600 
    188 H188        4.3267  -15.1344  -45.5488 H         1 UNK         0.0600 
    189 H189        1.8197  -14.4953  -48.0847 H         1 UNK         0.3000 
    190 H190       -3.2163  -21.2642  -46.9844 H         1 UNK         0.3000 
    191 H191       -4.7735  -22.2580  -49.1159 H         1 UNK         0.0600 
    192 H192       -5.5496  -21.5964  -46.2303 H         1 UNK         0.0600 
    193 H193       -6.6754  -21.7943  -47.5691 H         1 UNK         0.0600 
    194 H194       -5.5250  -20.4695  -47.5895 H         1 UNK         0.0600 
    195 H195       -3.3250  -24.0020  -46.4952 H         1 UNK         0.3000 
    196 H196       -4.8606  -26.4694  -47.2335 H         1 UNK         0.0600 
    197 H197       -4.2158  -27.3206  -44.9802 H         1 UNK         0.0600 
    198 H198       -5.2180  -25.8832  -44.8479 H         1 UNK         0.0600 
    199 H199       -3.4796  -25.7708  -44.5841 H         1 UNK         0.0600 
    200 H200       -1.6709  -25.0989  -46.2601 H         1 UNK         0.3000 
    201 H201       -0.1888  -27.4508  -46.6758 H         1 UNK         0.0600 
    202 H202        0.5114  -25.5724  -45.2050 H         1 UNK         0.0600 
    203 H203        0.7466  -24.5336  -46.6063 H         1 UNK         0.0600 
    204 H204        1.7689  -25.9446  -46.3737 H         1 UNK         0.0600 
    205 H205       -1.1139  -24.9824  -49.0167 H         1 UNK         0.3000 
    206 H206        0.3740  -26.4210  -51.1714 H         1 UNK         0.0600 
    207 H207        1.5211  -24.2865  -50.7756 H         1 UNK         0.0600 
    208 H208        0.6184  -24.1719  -52.2768 H         1 UNK         0.0600 
    209 H209        0.0037  -23.4045  -50.8140 H         1 UNK         0.0600 
    210 H210       -2.0865  -27.1147  -50.1757 H         1 UNK         0.3000 
    211 H211       -4.0129  -27.9112  -50.7778 H         1 UNK         0.0600 
    212 H212       -3.3842  -26.9753  -53.6272 H         1 UNK         0.0600 
    213 H213       -4.6200  -28.1383  -53.1724 H         1 UNK         0.0600 
    214 H214       -2.9249  -28.5228  -52.9185 H         1 UNK         0.0600 
    215 H215       -3.6324  -24.7108  -52.2125 H         1 UNK         0.3000 
    216 H216       -5.9506  -23.5762  -50.9141 H         1 UNK         0.0600 
    217 H217       -7.1971  -23.0082  -53.0292 H         1 UNK         0.0600 
    218 H218       -7.1460  -24.7383  -52.7787 H         1 UNK         0.0600 
    219 H219       -6.0725  -23.9935  -53.9581 H         1 UNK         0.0600 
    220 H220       -3.0502  -23.1981  -51.0834 H         1 UNK         0.3000 
    221 H221       -1.3964  -21.7894  -51.4652 H         1 UNK         0.0600 
    222 H222       -3.4913  -19.5793  -51.7371 H         1 UNK         0.0600 
    223 H223       -2.9340  -20.2154  -50.1994 H         1 UNK         0.0600 
    224 H224       -1.8074  -19.3957  -51.2721 H         1 UNK         0.0600 
    225 H225       -2.0563  -23.2931  -53.6312 H         1 UNK         0.3000 
    226 H226       -2.0664  -23.5768  -55.8339 H         1 UNK         0.0600 
    227 H227       -0.4603  -20.9733  -56.0195 H         1 UNK         0.0600 
    228 H228       -0.5294  -22.2503  -57.2249 H         1 UNK         0.0600 
    229 H229        0.2183  -22.5620  -55.6670 H         1 UNK         0.0600 
    230 H230       -4.3098  -22.3810  -54.7142 H         1 UNK         0.3000 
    231 H231       -6.3352  -21.7433  -55.2111 H         1 UNK         0.0600 
    232 H232       -6.0629  -22.8210  -57.4609 H         1 UNK         0.0600 
    233 H233       -5.5487  -21.2698  -58.1256 H         1 UNK         0.0600 
    234 H234       -7.1704  -21.4603  -57.4811 H         1 UNK         0.0600 
    235 H235       -4.0236  -19.7828  -54.5583 H         1 UNK         0.3000 
    236 H236       -5.0438  -17.2233  -55.4805 H         1 UNK         0.0600 
    237 H237       -2.6249  -17.6003  -54.9829 H         1 UNK         0.0600 
    238 H238       -3.2989  -16.2776  -54.0435 H         1 UNK         0.0600 
    239 H239       -3.0159  -17.8347  -53.2800 H         1 UNK         0.0600 
    240 H240       -5.6610  -19.2807  -52.6473 H         1 UNK         0.3000 
    241 H241       -7.8452  -17.5662  -51.8704 H         1 UNK         0.0600 
    242 H242       -7.9745  -21.3949  -51.0453 H         1 UNK         0.3800 
    243 H243       -6.6977  -20.7682  -52.0578 H         1 UNK         0.3800 
    244 H244       -6.2944  -16.2468  -50.6821 H         1 UNK         0.0800 
    245 H245       -7.1169  -17.1757  -49.4808 H         1 UNK         0.0800 
    246 H246       -3.9931  -15.7634  -48.8456 H         1 UNK         0.0800 
    247 H247       -4.0947  -15.7617  -50.5901 H         1 UNK         0.0800 
@<TRIPOS>BOND
     1    1    2 1    
     2    1  127 1    
     3    1  128 1    
     4    1  129 1    
     5    2    3 2    
     6    2    4 am   BACKBONE|DICT|INTERRES
     7    4    5 1    
     8    4  130 1    
     9    5    6 1    
    10    5   65 1    
    11    5  131 1    
    12    6    7 1    
    13    6  132 1    
    14    6  133 1    
    15    7    8 1    
    16    8    9 1    
    17    8  134 1    
    18    8  135 1    
    19    9   10 ar   
    20    9   14 ar   
    21   10   11 ar   
    22   10  136 1    
    23   11   12 ar   
    24   11  126 1    
    25   12   13 ar   
    26   12  137 1    
    27   13   14 ar   
    28   13   15 1    
    29   14  138 1    
    30   15   16 1    
    31   15  139 1    
    32   15  140 1    
    33   16   17 1    
    34   17   18 1    
    35   17  141 1    
    36   17  142 1    
    37   18   19 1    
    38   18   67 1    
    39   18  143 1    
    40   19   20 am   BACKBONE|DICT|INTERRES
    41   19  144 1    
    42   20   21 2    
    43   20   22 1    
    44   22   23 1    
    45   22   24 1    
    46   22  145 1    
    47   23  146 1    
    48   23  147 1    
    49   23  148 1    
    50   24   25 am   BACKBONE|DICT|INTERRES
    51   24  149 1    
    52   25   26 2    
    53   25   27 1    
    54   27   28 1    
    55   27   29 1    
    56   27  150 1    
    57   28  151 1    
    58   28  152 1    
    59   28  153 1    
    60   29   30 am   BACKBONE|DICT|INTERRES
    61   29  154 1    
    62   30   31 2    
    63   30   32 1    
    64   32   33 1    
    65   32   34 1    
    66   32  155 1    
    67   33  156 1    
    68   33  157 1    
    69   33  158 1    
    70   34   35 am   BACKBONE|DICT|INTERRES
    71   34  159 1    
    72   35   36 2    
    73   35   37 1    
    74   37   38 1    
    75   37   39 1    
    76   37  160 1    
    77   38  161 1    
    78   38  162 1    
    79   38  163 1    
    80   39   40 am   BACKBONE|DICT|INTERRES
    81   39  164 1    
    82   40   41 2    
    83   40   42 1    
    84   42   43 1    
    85   42   44 1    
    86   42  165 1    
    87   43  166 1    
    88   43  167 1    
    89   43  168 1    
    90   44   45 am   BACKBONE|DICT|INTERRES
    91   44  169 1    
    92   45   46 2    
    93   45   47 1    
    94   47   48 1    
    95   47   49 1    
    96   47  170 1    
    97   48  171 1    
    98   48  172 1    
    99   48  173 1    
   100   49   50 am   BACKBONE|DICT|INTERRES
   101   49  174 1    
   102   50   51 2    
   103   50   52 1    
   104   52   53 1    
   105   52   54 1    
   106   52  175 1    
   107   53  176 1    
   108   53  177 1    
   109   53  178 1    
   110   54   55 am   BACKBONE|DICT|INTERRES
   111   54  179 1    
   112   55   56 2    
   113   55   57 1    
   114   57   58 1    
   115   57   59 1    
   116   57  180 1    
   117   58  181 1    
   118   58  182 1    
   119   58  183 1    
   120   59   60 am   BACKBONE|DICT|INTERRES
   121   59  184 1    
   122   60   61 2    
   123   60   62 1    
   124   62   63 1    
   125   62   64 1    
   126   62  185 1    
   127   63  186 1    
   128   63  187 1    
   129   63  188 1    
   130   64   65 am   BACKBONE|DICT|INTERRES
   131   64  189 1    
   132   65   66 2    
   133   67   68 2    
   134   67   69 am   BACKBONE|DICT|INTERRES
   135   69   70 1    
   136   69  190 1    
   137   70   71 1    
   138   70   72 1    
   139   70  191 1    
   140   71  192 1    
   141   71  193 1    
   142   71  194 1    
   143   72   73 2    
   144   72   74 am   BACKBONE|DICT|INTERRES
   145   74   75 1    
   146   74  195 1    
   147   75   76 1    
   148   75   77 1    
   149   75  196 1    
   150   76  197 1    
   151   76  198 1    
   152   76  199 1    
   153   77   78 2    
   154   77   79 am   BACKBONE|DICT|INTERRES
   155   79   80 1    
   156   79  200 1    
   157   80   81 1    
   158   80   82 1    
   159   80  201 1    
   160   81  202 1    
   161   81  203 1    
   162   81  204 1    
   163   82   83 2    
   164   82   84 am   BACKBONE|DICT|INTERRES
   165   84   85 1    
   166   84  205 1    
   167   85   86 1    
   168   85   87 1    
   169   85  206 1    
   170   86  207 1    
   171   86  208 1    
   172   86  209 1    
   173   87   88 2    
   174   87   89 am   BACKBONE|DICT|INTERRES
   175   89   90 1    
   176   89  210 1    
   177   90   91 1    
   178   90   92 1    
   179   90  211 1    
   180   91  212 1    
   181   91  213 1    
   182   91  214 1    
   183   92   93 2    
   184   92   94 am   BACKBONE|DICT|INTERRES
   185   94   95 1    
   186   94  215 1    
   187   95   96 1    
   188   95   97 1    
   189   95  216 1    
   190   96  217 1    
   191   96  218 1    
   192   96  219 1    
   193   97   98 2    
   194   97   99 am   BACKBONE|DICT|INTERRES
   195   99  100 1    
   196   99  220 1    
   197  100  101 1    
   198  100  102 1    
   199  100  221 1    
   200  101  222 1    
   201  101  223 1    
   202  101  224 1    
   203  102  103 2    
   204  102  104 am   BACKBONE|DICT|INTERRES
   205  104  105 1    
   206  104  225 1    
   207  105  106 1    
   208  105  107 1    
   209  105  226 1    
   210  106  227 1    
   211  106  228 1    
   212  106  229 1    
   213  107  108 2    
   214  107  109 am   BACKBONE|DICT|INTERRES
   215  109  110 1    
   216  109  230 1    
   217  110  111 1    
   218  110  112 1    
   219  110  231 1    
   220  111  232 1    
   221  111  233 1    
   222  111  234 1    
   223  112  113 2    
   224  112  114 am   BACKBONE|DICT|INTERRES
   225  114  115 1    
   226  114  235 1    
   227  115  116 1    
   228  115  117 1    
   229  115  236 1    
   230  116  237 1    
   231  116  238 1    
   232  116  239 1    
   233  117  118 2    
   234  117  119 am   BACKBONE|DICT|INTERRES
   235  119  120 1    
   236  119  240 1    
   237  120  121 1    
   238  120  124 1    
   239  120  241 1    
   240  121  122 am   BACKBONE|DICT|INTERRES
   241  121  123 2    
   242  122  242 1    
   243  122  243 1    
   244  124  125 1    
   245  124  244 1    
   246  124  245 1    
   247  125  126 1    
   248  126  246 1    
   249  126  247 1    
@<TRIPOS>SUBSTRUCTURE
     1 UNK         1 GROUP             0       ****    0 ROOT    
