@<TRIPOS>MOLECULE
3R540
247   249    1
SMALL
USER_CHARGES


@<TRIPOS>ATOM
      1 CA          1.3837  -15.2245  -50.2357 C.3       0 UNK        -0.1800 
      2 C           0.5175  -14.5485  -49.1826 C.2       0 UNK         0.5000 
      3 O          -0.1536  -13.5627  -49.4849 O.2       0 UNK        -0.5000 
      4 N           0.5368  -15.0755  -47.9490 N.am      1 UNK        -0.5000 
      5 CA         -0.2168  -14.5923  -46.7774 C.3       1 UNK         0.1400 
      6 C6         -1.7583  -14.7272  -46.9145 C.3       23 UNK        -0.0398 
      7 S7         -2.2650  -16.4661  -47.1540 S.3       23 UNK        -0.2404 
      8 C8         -2.6622  -16.4852  -48.9295 C.3       23 UNK        -0.0205 
      9 C9         -2.3329  -17.8313  -49.5514 C.ar      23 UNK        -0.0193 
     10 C10        -3.3504  -18.7177  -49.9100 C.ar      23 UNK        -0.1150 
     11 C11        -3.0430  -19.9511  -50.4906 C.ar      23 UNK        -0.0193 
     12 C12        -1.7064  -20.2827  -50.7408 C.ar      23 UNK        -0.1150 
     13 C13        -0.6804  -19.3941  -50.4021 C.ar      23 UNK        -0.0193 
     14 C14        -1.0016  -18.1810  -49.7894 C.ar      23 UNK        -0.1150 
     15 C15         0.7696  -19.7042  -50.7495 C.3       23 UNK        -0.0205 
     16 S16         1.4045  -21.1982  -49.9332 S.3       23 UNK        -0.2404 
     17 C17         1.5426  -20.6696  -48.1898 C.3       23 UNK        -0.0398 
     18 CA          1.3936  -21.8778  -47.2290 C.3       11 UNK         0.1400 
     19 N           1.8827  -21.5874  -45.8822 N.am      11 UNK        -0.5000 
     20 C           2.6344  -22.4242  -45.1524 C.2       10 UNK         0.5000 
     21 O           2.9737  -23.5481  -45.5243 O.2       10 UNK        -0.5000 
     22 CA          3.1049  -21.9186  -43.7768 C.3       10 UNK         0.1400 
     23 CB          4.1822  -20.8319  -43.9219 C.3       10 UNK        -0.1800 
     24 N           1.9986  -21.4128  -42.9695 N.am      10 UNK        -0.5000 
     25 C           1.1015  -22.1904  -42.3479 C.2       9 UNK         0.5000 
     26 O           1.1488  -23.4206  -42.3429 O.2       9 UNK        -0.5000 
     27 CA         -0.0459  -21.4758  -41.6080 C.3       9 UNK         0.1400 
     28 CB          0.3427  -21.2030  -40.1474 C.3       9 UNK        -0.1800 
     29 N          -0.4483  -20.2233  -42.2511 N.am      9 UNK        -0.5000 
     30 C          -1.0163  -20.1507  -43.4629 C.2       8 UNK         0.5000 
     31 O          -1.3202  -21.1415  -44.1227 O.2       8 UNK        -0.5000 
     32 CA         -1.2301  -18.7470  -44.0614 C.3       8 UNK         0.1400 
     33 CB         -2.5348  -18.1241  -43.5480 C.3       8 UNK        -0.1800 
     34 N          -0.1072  -17.8495  -43.7846 N.am      8 UNK        -0.5000 
     35 C           1.1285  -18.0233  -44.2733 C.2       7 UNK         0.5000 
     36 O           1.4193  -18.9064  -45.0801 O.2       7 UNK        -0.5000 
     37 CA          2.2373  -17.1010  -43.7373 C.3       7 UNK         0.1400 
     38 CB          2.3934  -15.8363  -44.5901 C.3       7 UNK        -0.1800 
     39 N           2.0158  -16.7276  -42.3414 N.am      7 UNK        -0.5000 
     40 C           2.3017  -17.5224  -41.3023 C.2       6 UNK         0.5000 
     41 O           2.8080  -18.6387  -41.4151 O.2       6 UNK        -0.5000 
     42 CA          1.9250  -16.9910  -39.9077 C.3       6 UNK         0.1400 
     43 CB          3.0164  -16.0542  -39.3695 C.3       6 UNK        -0.1800 
     44 N           0.6359  -16.2959  -39.8990 N.am      6 UNK        -0.5000 
     45 C          -0.5421  -16.9069  -40.0904 C.2       5 UNK         0.5000 
     46 O          -0.6553  -18.1135  -40.2969 O.2       5 UNK        -0.5000 
     47 CA         -1.8070  -16.0291  -40.0882 C.3       5 UNK         0.1400 
     48 CB         -2.3695  -15.9061  -38.6645 C.3       5 UNK        -0.1800 
     49 N          -1.6141  -14.6900  -40.6449 N.am      5 UNK        -0.5000 
     50 C          -1.1565  -14.4059  -41.8715 C.2       4 UNK         0.5000 
     51 O          -0.7872  -15.2593  -42.6817 O.2       4 UNK        -0.5000 
     52 CA         -1.0649  -12.9176  -42.2604 C.3       4 UNK         0.1400 
     53 CB         -1.5711  -11.9356  -41.1792 C.3       4 UNK        -0.1800 
     54 N           0.2921  -12.5648  -42.6774 N.am      4 UNK        -0.5000 
     55 C           1.4213  -12.6781  -41.9600 C.2       3 UNK         0.5000 
     56 O           1.4515  -13.1038  -40.8039 O.2       3 UNK        -0.5000 
     57 CA          2.7397  -12.2776  -42.6568 C.3       3 UNK         0.1400 
     58 CB          3.9038  -13.1974  -42.2464 C.3       3 UNK        -0.1800 
     59 N           2.6115  -12.2864  -44.1173 N.am      3 UNK        -0.5000 
     60 C           2.2998  -11.2245  -44.8720 C.2       2 UNK         0.5000 
     61 O           2.1504  -10.0862  -44.4283 O.2       2 UNK        -0.5000 
     62 CA          2.0746  -11.4928  -46.3716 C.3       2 UNK         0.1400 
     63 CB          3.3948  -11.3659  -47.1464 C.3       2 UNK        -0.1800 
     64 N           1.4802  -12.8043  -46.6505 N.am      2 UNK        -0.5000 
     65 C           0.2363  -13.1836  -46.3144 C.2       1 UNK         0.5000 
     66 O          -0.5216  -12.4776  -45.6482 O.2       1 UNK        -0.5000 
     67 C          -0.0345  -22.4493  -47.1686 C.2       11 UNK         0.5000 
     68 O          -0.1807  -23.6700  -47.1933 O.2       11 UNK        -0.5000 
     69 N          -1.0449  -21.5683  -47.1106 N.am      12 UNK        -0.5000 
     70 CA         -2.4768  -21.8259  -47.3259 C.3       12 UNK         0.1400 
     71 CB         -3.2653  -20.5650  -46.9365 C.3       12 UNK        -0.1800 
     72 C          -3.0820  -23.0517  -46.6130 C.2       12 UNK         0.5000 
     73 O          -3.9870  -23.6867  -47.1556 O.2       12 UNK        -0.5000 
     74 N          -2.5840  -23.3561  -45.4103 N.am      13 UNK        -0.5000 
     75 CA         -2.9890  -24.4993  -44.5958 C.3       13 UNK         0.1400 
     76 CB         -2.4341  -24.3070  -43.1766 C.3       13 UNK        -0.1800 
     77 C          -2.5612  -25.8718  -45.1593 C.2       13 UNK         0.5000 
     78 O          -3.1441  -26.8788  -44.7531 O.2       13 UNK        -0.5000 
     79 N          -1.5585  -25.9074  -46.0486 N.am      14 UNK        -0.5000 
     80 CA         -0.9730  -27.1378  -46.5889 C.3       14 UNK         0.1400 
     81 CB          0.3838  -27.3820  -45.9080 C.3       14 UNK        -0.1800 
     82 C          -0.8086  -27.1172  -48.1191 C.2       14 UNK         0.5000 
     83 O          -0.9418  -28.1688  -48.7471 O.2       14 UNK        -0.5000 
     84 N          -0.5097  -25.9481  -48.6933 N.am      15 UNK        -0.5000 
     85 CA         -0.2631  -25.7296  -50.1161 C.3       15 UNK         0.1400 
     86 CB          1.1474  -25.1377  -50.2738 C.3       15 UNK        -0.1800 
     87 C          -1.3166  -24.7780  -50.7044 C.2       15 UNK         0.5000 
     88 O          -2.0178  -24.0869  -49.9631 O.2       15 UNK        -0.5000 
     89 N          -1.3983  -24.7553  -52.0376 N.am      16 UNK        -0.5000 
     90 CA         -2.3132  -23.9234  -52.8095 C.3       16 UNK         0.1400 
     91 CB         -3.4474  -24.8045  -53.3545 C.3       16 UNK        -0.1800 
     92 C          -1.5406  -23.2606  -53.9556 C.2       16 UNK         0.5000 
     93 O          -0.7654  -23.9486  -54.6241 O.2       16 UNK        -0.5000 
     94 N          -1.7764  -21.9601  -54.1743 N.am      17 UNK        -0.5000 
     95 CA         -1.1817  -21.1672  -55.2485 C.3       17 UNK         0.1400 
     96 CB          0.3580  -21.0892  -55.1223 C.3       17 UNK        -0.1800 
     97 C          -1.7960  -19.7599  -55.2915 C.2       17 UNK         0.5000 
     98 O          -2.5295  -19.4428  -56.2290 O.2       17 UNK        -0.5000 
     99 N          -1.4372  -18.9309  -54.3005 N.am      18 UNK        -0.5000 
    100 CA        -1.5303  -17.4691  -54.3634 C.3       18 UNK         0.1400 
    101 CB        -0.8276  -16.8590  -53.1436 C.3       18 UNK        -0.1800 
    102 C         -2.9516  -16.9004  -54.4946 C.2       18 UNK         0.5000 
    103 O         -3.1479  -15.9419  -55.2435 O.2       18 UNK        -0.5000 
    104 N         -3.9229  -17.4965  -53.7924 N.am      19 UNK        -0.5000 
    105 CA        -5.3229  -17.0640  -53.7910 C.3       19 UNK         0.1400 
    106 CB        -5.9691  -17.4339  -52.4435 C.3       19 UNK        -0.1800 
    107 C         -6.0918  -17.6196  -55.0081 C.2       19 UNK         0.5000 
    108 O         -7.1217  -18.2730  -54.8408 O.2       19 UNK        -0.5000 
    109 N         -5.5567  -17.3726  -56.2135 N.am      20 UNK        -0.5000 
    110 CA        -6.0660  -17.7924  -57.5254 C.3       20 UNK         0.1400 
    111 CB        -7.3442  -17.0042  -57.8795 C.3       20 UNK        -0.1800 
    112 C         -6.2529  -19.3214  -57.6224 C.2       20 UNK         0.5000 
    113 O         -7.3371  -19.7972  -57.9631 O.2       20 UNK        -0.5000 
    114 N         -5.1931  -20.0570  -57.2557 N.am      21 UNK        -0.5000 
    115 CA        -5.1132  -21.5170  -57.1127 C.3       21 UNK         0.1400 
    116 CB        -5.4828  -22.2485  -58.4198 C.3       21 UNK        -0.1800 
    117 C         -5.8700  -22.0757  -55.8881 C.2       21 UNK         0.5000 
    118 O         -5.8786  -23.2915  -55.6967 O.2       21 UNK        -0.5000 
    119 N         -6.4426  -21.1927  -55.0581 N.am      22 UNK        -0.5000 
    120 CA        -7.0316  -21.4722  -53.7364 C.3       22 UNK         0.1400 
    121 C         -8.3306  -22.3339  -53.7594 C.2       22 UNK         0.5000 
    122 N         -9.0113  -22.4697  -54.8909 N.am      22 UNK        -0.7600 
    123 O         -8.7502  -22.8627  -52.7333 O.2       22 UNK        -0.5000 
    124 C124       -5.9820  -21.9830  -52.7090 C.3       23 UNK        -0.0398 
    125 S125       -4.5079  -20.9033  -52.6174 S.3       23 UNK        -0.2404 
    126 C126       -4.1590  -20.9222  -50.8362 C.3       23 UNK        -0.0205 
    127 H127        0.7628  -15.5807  -51.0568 H         1 UNK         0.0600 
    128 H128        1.9311  -16.0753  -49.8291 H         1 UNK         0.0600 
    129 H129        2.1073  -14.5156  -50.6378 H         1 UNK         0.0600 
    130 H130        1.1042  -15.8938  -47.7819 H         1 UNK         0.3000 
    131 H131        0.0587  -15.2574  -45.9613 H         1 UNK         0.0600 
    132 H132       -2.2527  -14.3824  -46.0047 H         1 UNK         0.0800 
    133 H133       -2.1412  -14.0998  -47.7203 H         1 UNK         0.0800 
    134 H134       -3.7175  -16.2422  -49.0611 H         1 UNK         0.0800 
    135 H135       -2.1048  -15.7124  -49.4580 H         1 UNK         0.0800 
    136 H136       -4.3816  -18.4535  -49.7234 H         1 UNK         0.1150 
    137 H137       -1.4630  -21.2305  -51.1990 H         1 UNK         0.1150 
    138 H138       -0.2171  -17.4911  -49.5196 H         1 UNK         0.1150 
    139 H139        0.8463  -19.8418  -51.8280 H         1 UNK         0.0800 
    140 H140        1.4210  -18.8634  -50.5056 H         1 UNK         0.0800 
    141 H141        0.8308  -19.8741  -47.9656 H         1 UNK         0.0800 
    142 H142        2.5306  -20.2238  -48.0668 H         1 UNK         0.0800 
    143 H143        2.0164  -22.6712  -47.6490 H         1 UNK         0.0600 
    144 H144        1.6504  -20.6714  -45.5035 H         1 UNK         0.3000 
    145 H145        3.5574  -22.7605  -43.2481 H         1 UNK         0.0600 
    146 H146        4.5390  -20.4982  -42.9472 H         1 UNK         0.0600 
    147 H147        3.8130  -19.9587  -44.4587 H         1 UNK         0.0600 
    148 H148        5.0443  -21.2116  -44.4716 H         1 UNK         0.0600 
    149 H149        1.9029  -20.4098  -42.8969 H         1 UNK         0.3000 
    150 H150       -0.9071  -22.1464  -41.6083 H         1 UNK         0.0600 
    151 H151        0.6492  -22.1213  -39.6451 H         1 UNK         0.0600 
    152 H152       -0.4972  -20.7922  -39.5870 H         1 UNK         0.0600 
    153 H153        1.1704  -20.4964  -40.0766 H         1 UNK         0.0600 
    154 H154       -0.3001  -19.3709  -41.7187 H         1 UNK         0.3000 
    155 H155       -1.3113  -18.8540  -45.1451 H         1 UNK         0.0600 
    156 H156       -3.3933  -18.7344  -43.8305 H         1 UNK         0.0600 
    157 H157       -2.6897  -17.1293  -43.9664 H         1 UNK         0.0600 
    158 H158       -2.5374  -18.0384  -42.4623 H         1 UNK         0.0600 
    159 H159       -0.2930  -17.0528  -43.1825 H         1 UNK         0.3000 
    160 H160        3.1740  -17.6578  -43.8099 H         1 UNK         0.0600 
    161 H161        1.6230  -15.1030  -44.3553 H         1 UNK         0.0600 
    162 H162        2.3412  -16.0663  -45.6548 H         1 UNK         0.0600 
    163 H163        3.3636  -15.3725  -44.4173 H         1 UNK         0.0600 
    164 H164        1.5302  -15.8595  -42.1654 H         1 UNK         0.3000 
    165 H165        1.8529  -17.8487  -39.2354 H         1 UNK         0.0600 
    166 H166        2.7929  -15.7324  -38.3522 H         1 UNK         0.0600 
    167 H167        3.9848  -16.5554  -39.3465 H         1 UNK         0.0600 
    168 H168        3.1232  -15.1619  -39.9865 H         1 UNK         0.0600 
    169 H169        0.6538  -15.2922  -39.7754 H         1 UNK         0.3000 
    170 H170       -2.5561  -16.5296  -40.7030 H         1 UNK         0.0600 
    171 H171       -1.6827  -15.3741  -38.0049 H         1 UNK         0.0600 
    172 H172       -3.3209  -15.3738  -38.6598 H         1 UNK         0.0600 
    173 H173       -2.5478  -16.8901  -38.2284 H         1 UNK         0.0600 
    174 H174       -1.8627  -13.9181  -40.0437 H         1 UNK         0.3000 
    175 H175       -1.7003  -12.7972  -43.1388 H         1 UNK         0.0600 
    176 H176       -0.9903  -11.9969  -40.2582 H         1 UNK         0.0600 
    177 H177       -1.5116  -10.9068  -41.5346 H         1 UNK         0.0600 
    178 H178       -2.6164  -12.1243  -40.9311 H         1 UNK         0.0600 
    179 H179        0.3674  -12.2498  -43.6361 H         1 UNK         0.3000 
    180 H180        2.9832  -11.2689  -42.3174 H         1 UNK         0.0600 
    181 H181        4.8134  -12.9559  -42.7965 H         1 UNK         0.0600 
    182 H182        3.6743  -14.2483  -42.4173 H         1 UNK         0.0600 
    183 H183        4.1315  -13.0852  -41.1857 H         1 UNK         0.0600 
    184 H184        2.7100  -13.1797  -44.5747 H         1 UNK         0.3000 
    185 H185        1.3871  -10.7295  -46.7425 H         1 UNK         0.0600 
    186 H186        3.2337  -11.4692  -48.2197 H         1 UNK         0.0600 
    187 H187        3.8528  -10.3897  -46.9807 H         1 UNK         0.0600 
    188 H188        4.1172  -12.1236  -46.8401 H         1 UNK         0.0600 
    189 H189        2.0335  -13.4391  -47.2069 H         1 UNK         0.3000 
    190 H190       -0.8035  -20.5931  -47.0333 H         1 UNK         0.3000 
    191 H191       -2.5963  -21.9857  -48.3975 H         1 UNK         0.0600 
    192 H192       -2.8271  -19.6671  -47.3685 H         1 UNK         0.0600 
    193 H193       -3.2957  -20.4267  -45.8557 H         1 UNK         0.0600 
    194 H194       -4.2960  -20.6279  -47.2870 H         1 UNK         0.0600 
    195 H195       -1.8945  -22.7234  -45.0111 H         1 UNK         0.3000 
    196 H196       -4.0792  -24.4989  -44.5364 H         1 UNK         0.0600 
    197 H197       -2.7947  -23.3777  -42.7354 H         1 UNK         0.0600 
    198 H198       -1.3440  -24.2789  -43.1769 H         1 UNK         0.0600 
    199 H199       -2.7426  -25.1206  -42.5190 H         1 UNK         0.0600 
    200 H200       -1.1414  -25.0301  -46.3508 H         1 UNK         0.3000 
    201 H201       -1.6175  -27.9904  -46.3659 H         1 UNK         0.0600 
    202 H202        0.2669  -27.5055  -44.8312 H         1 UNK         0.0600 
    203 H203        1.0712  -26.5516  -46.0768 H         1 UNK         0.0600 
    204 H204        0.8584  -28.2869  -46.2897 H         1 UNK         0.0600 
    205 H205       -0.4600  -25.1058  -48.1220 H         1 UNK         0.3000 
    206 H206       -0.3131  -26.6708  -50.6671 H         1 UNK         0.0600 
    207 H207        1.2487  -24.1976  -49.7316 H         1 UNK         0.0600 
    208 H208        1.9047  -25.8232  -49.8933 H         1 UNK         0.0600 
    209 H209        1.3835  -24.9416  -51.3203 H         1 UNK         0.0600 
    210 H210       -0.7474  -25.2970  -52.5908 H         1 UNK         0.3000 
    211 H211       -2.7392  -23.1429  -52.1811 H         1 UNK         0.0600 
    212 H212       -3.0613  -25.6697  -53.8945 H         1 UNK         0.0600 
    213 H213       -4.0764  -24.2484  -54.0477 H         1 UNK         0.0600 
    214 H214       -4.0846  -25.1683  -52.5484 H         1 UNK         0.0600 
    215 H215       -2.4720  -21.4826  -53.6130 H         1 UNK         0.3000 
    216 H216       -1.4223  -21.6504  -56.1977 H         1 UNK         0.0600 
    217 H217        0.7729  -20.3472  -55.8061 H         1 UNK         0.0600 
    218 H218        0.8300  -22.0389  -55.3715 H         1 UNK         0.0600 
    219 H219        0.6719  -20.8203  -54.1137 H         1 UNK         0.0600 
    220 H220       -0.8691  -19.3015  -53.5543 H         1 UNK         0.3000 
    221 H221       -0.9776  -17.1573  -55.2522 H         1 UNK         0.0600 
    222 H222        0.1885  -17.2378  -53.0325 H         1 UNK         0.0600 
    223 H223       -0.7626  -15.7740  -53.2347 H         1 UNK         0.0600 
    224 H224       -1.3741  -17.0731  -52.2270 H         1 UNK         0.0600 
    225 H225       -3.6955  -18.3105  -53.2385 H         1 UNK         0.3000 
    226 H226       -5.3570  -15.9752  -53.8691 H         1 UNK         0.0600 
    227 H227       -5.4084  -17.0125  -51.6092 H         1 UNK         0.0600 
    228 H228       -6.9853  -17.0432  -52.3801 H         1 UNK         0.0600 
    229 H229       -6.0273  -18.5112  -52.2986 H         1 UNK         0.0600 
    230 H230       -4.6902  -16.8442  -56.2236 H         1 UNK         0.3000 
    231 H231       -5.3009  -17.5281  -58.2568 H         1 UNK         0.0600 
    232 H232       -7.6819  -17.2409  -58.8891 H         1 UNK         0.0600 
    233 H233       -7.1671  -15.9295  -57.8409 H         1 UNK         0.0600 
    234 H234       -8.1640  -17.2332  -57.1978 H         1 UNK         0.0600 
    235 H235       -4.3502  -19.5691  -56.9623 H         1 UNK         0.3000 
    236 H236       -4.0605  -21.7268  -56.9189 H         1 UNK         0.0600 
    237 H237       -6.5491  -22.1869  -58.6366 H         1 UNK         0.0600 
    238 H238       -4.9401  -21.8368  -59.2706 H         1 UNK         0.0600 
    239 H239       -5.2291  -23.3073  -58.3565 H         1 UNK         0.0600 
    240 H240       -6.4397  -20.2138  -55.3155 H         1 UNK         0.3000 
    241 H241       -7.3712  -20.5031  -53.3713 H         1 UNK         0.0600 
    242 H242       -8.6812  -22.0324  -55.7372 H         1 UNK         0.3800 
    243 H243       -9.8563  -23.0189  -54.9029 H         1 UNK         0.3800 
    244 H244       -5.6663  -22.9953  -52.9562 H         1 UNK         0.0800 
    245 H245       -6.4335  -22.0450  -51.7178 H         1 UNK         0.0800 
    246 H246       -5.0652  -20.6637  -50.2860 H         1 UNK         0.0800 
    247 H247       -3.8859  -21.9301  -50.5211 H         1 UNK         0.0800 
@<TRIPOS>BOND
     1    1    2 1    
     2    1  127 1    
     3    1  128 1    
     4    1  129 1    
     5    2    3 2    
     6    2    4 am   BACKBONE|DICT|INTERRES
     7    4    5 1    
     8    4  130 1    
     9    5    6 1    
    10    5   65 1    
    11    5  131 1    
    12    6    7 1    
    13    6  132 1    
    14    6  133 1    
    15    7    8 1    
    16    8    9 1    
    17    8  134 1    
    18    8  135 1    
    19    9   10 ar   
    20    9   14 ar   
    21   10   11 ar   
    22   10  136 1    
    23   11   12 ar   
    24   11  126 1    
    25   12   13 ar   
    26   12  137 1    
    27   13   14 ar   
    28   13   15 1    
    29   14  138 1    
    30   15   16 1    
    31   15  139 1    
    32   15  140 1    
    33   16   17 1    
    34   17   18 1    
    35   17  141 1    
    36   17  142 1    
    37   18   19 1    
    38   18   67 1    
    39   18  143 1    
    40   19   20 am   BACKBONE|DICT|INTERRES
    41   19  144 1    
    42   20   21 2    
    43   20   22 1    
    44   22   23 1    
    45   22   24 1    
    46   22  145 1    
    47   23  146 1    
    48   23  147 1    
    49   23  148 1    
    50   24   25 am   BACKBONE|DICT|INTERRES
    51   24  149 1    
    52   25   26 2    
    53   25   27 1    
    54   27   28 1    
    55   27   29 1    
    56   27  150 1    
    57   28  151 1    
    58   28  152 1    
    59   28  153 1    
    60   29   30 am   BACKBONE|DICT|INTERRES
    61   29  154 1    
    62   30   31 2    
    63   30   32 1    
    64   32   33 1    
    65   32   34 1    
    66   32  155 1    
    67   33  156 1    
    68   33  157 1    
    69   33  158 1    
    70   34   35 am   BACKBONE|DICT|INTERRES
    71   34  159 1    
    72   35   36 2    
    73   35   37 1    
    74   37   38 1    
    75   37   39 1    
    76   37  160 1    
    77   38  161 1    
    78   38  162 1    
    79   38  163 1    
    80   39   40 am   BACKBONE|DICT|INTERRES
    81   39  164 1    
    82   40   41 2    
    83   40   42 1    
    84   42   43 1    
    85   42   44 1    
    86   42  165 1    
    87   43  166 1    
    88   43  167 1    
    89   43  168 1    
    90   44   45 am   BACKBONE|DICT|INTERRES
    91   44  169 1    
    92   45   46 2    
    93   45   47 1    
    94   47   48 1    
    95   47   49 1    
    96   47  170 1    
    97   48  171 1    
    98   48  172 1    
    99   48  173 1    
   100   49   50 am   BACKBONE|DICT|INTERRES
   101   49  174 1    
   102   50   51 2    
   103   50   52 1    
   104   52   53 1    
   105   52   54 1    
   106   52  175 1    
   107   53  176 1    
   108   53  177 1    
   109   53  178 1    
   110   54   55 am   BACKBONE|DICT|INTERRES
   111   54  179 1    
   112   55   56 2    
   113   55   57 1    
   114   57   58 1    
   115   57   59 1    
   116   57  180 1    
   117   58  181 1    
   118   58  182 1    
   119   58  183 1    
   120   59   60 am   BACKBONE|DICT|INTERRES
   121   59  184 1    
   122   60   61 2    
   123   60   62 1    
   124   62   63 1    
   125   62   64 1    
   126   62  185 1    
   127   63  186 1    
   128   63  187 1    
   129   63  188 1    
   130   64   65 am   BACKBONE|DICT|INTERRES
   131   64  189 1    
   132   65   66 2    
   133   67   68 2    
   134   67   69 am   BACKBONE|DICT|INTERRES
   135   69   70 1    
   136   69  190 1    
   137   70   71 1    
   138   70   72 1    
   139   70  191 1    
   140   71  192 1    
   141   71  193 1    
   142   71  194 1    
   143   72   73 2    
   144   72   74 am   BACKBONE|DICT|INTERRES
   145   74   75 1    
   146   74  195 1    
   147   75   76 1    
   148   75   77 1    
   149   75  196 1    
   150   76  197 1    
   151   76  198 1    
   152   76  199 1    
   153   77   78 2    
   154   77   79 am   BACKBONE|DICT|INTERRES
   155   79   80 1    
   156   79  200 1    
   157   80   81 1    
   158   80   82 1    
   159   80  201 1    
   160   81  202 1    
   161   81  203 1    
   162   81  204 1    
   163   82   83 2    
   164   82   84 am   BACKBONE|DICT|INTERRES
   165   84   85 1    
   166   84  205 1    
   167   85   86 1    
   168   85   87 1    
   169   85  206 1    
   170   86  207 1    
   171   86  208 1    
   172   86  209 1    
   173   87   88 2    
   174   87   89 am   BACKBONE|DICT|INTERRES
   175   89   90 1    
   176   89  210 1    
   177   90   91 1    
   178   90   92 1    
   179   90  211 1    
   180   91  212 1    
   181   91  213 1    
   182   91  214 1    
   183   92   93 2    
   184   92   94 am   BACKBONE|DICT|INTERRES
   185   94   95 1    
   186   94  215 1    
   187   95   96 1    
   188   95   97 1    
   189   95  216 1    
   190   96  217 1    
   191   96  218 1    
   192   96  219 1    
   193   97   98 2    
   194   97   99 am   BACKBONE|DICT|INTERRES
   195   99  100 1    
   196   99  220 1    
   197  100  101 1    
   198  100  102 1    
   199  100  221 1    
   200  101  222 1    
   201  101  223 1    
   202  101  224 1    
   203  102  103 2    
   204  102  104 am   BACKBONE|DICT|INTERRES
   205  104  105 1    
   206  104  225 1    
   207  105  106 1    
   208  105  107 1    
   209  105  226 1    
   210  106  227 1    
   211  106  228 1    
   212  106  229 1    
   213  107  108 2    
   214  107  109 am   BACKBONE|DICT|INTERRES
   215  109  110 1    
   216  109  230 1    
   217  110  111 1    
   218  110  112 1    
   219  110  231 1    
   220  111  232 1    
   221  111  233 1    
   222  111  234 1    
   223  112  113 2    
   224  112  114 am   BACKBONE|DICT|INTERRES
   225  114  115 1    
   226  114  235 1    
   227  115  116 1    
   228  115  117 1    
   229  115  236 1    
   230  116  237 1    
   231  116  238 1    
   232  116  239 1    
   233  117  118 2    
   234  117  119 am   BACKBONE|DICT|INTERRES
   235  119  120 1    
   236  119  240 1    
   237  120  121 1    
   238  120  124 1    
   239  120  241 1    
   240  121  122 am   BACKBONE|DICT|INTERRES
   241  121  123 2    
   242  122  242 1    
   243  122  243 1    
   244  124  125 1    
   245  124  244 1    
   246  124  245 1    
   247  125  126 1    
   248  126  246 1    
   249  126  247 1    
@<TRIPOS>SUBSTRUCTURE
     1 UNK         1 GROUP             0       ****    0 ROOT    
