@<TRIPOS>MOLECULE
3R540
247   249    1
SMALL
USER_CHARGES


@<TRIPOS>ATOM
      1 CA         -1.3628  -10.8882  -49.1163 C.3       0 UNK        -0.1800 
      2 C          -1.6948  -12.2492  -48.5225 C.2       0 UNK         0.5000 
      3 O          -0.7986  -13.0629  -48.3140 O.2       0 UNK        -0.5000 
      4 N          -2.9749  -12.4999  -48.2315 N.am      1 UNK        -0.5000 
      5 CA         -3.4885  -13.7523  -47.6620 C.3       1 UNK         0.1400 
      6 C6         -4.9529  -14.0168  -48.1063 C.3       23 UNK        -0.0398 
      7 S7         -5.1517  -14.0349  -49.9231 S.3       23 UNK        -0.2404 
      8 C8         -5.6445  -15.7582  -50.2439 C.3       23 UNK        -0.0205 
      9 C9         -4.5621  -16.7623  -49.8742 C.ar      23 UNK        -0.0193 
     10 C10        -3.3136  -16.7186  -50.5032 C.ar      23 UNK        -0.1150 
     11 C11        -2.3248  -17.6653  -50.2021 C.ar      23 UNK        -0.0193 
     12 C12        -2.6082  -18.6538  -49.2559 C.ar      23 UNK        -0.1150 
     13 C13        -3.8496  -18.7090  -48.6194 C.ar      23 UNK        -0.0193 
     14 C14        -4.8232  -17.7579  -48.9290 C.ar      23 UNK        -0.1150 
     15 C15        -4.1356  -19.8141  -47.6178 C.3       23 UNK        -0.0205 
     16 S16        -3.6377  -19.3052  -45.9441 S.3       23 UNK        -0.2404 
     17 C17        -3.7613  -20.8406  -44.9597 C.3       23 UNK        -0.0398 
     18 CA         -3.1592  -22.1169  -45.6020 C.3       11 UNK         0.1400 
     19 N          -1.8041  -21.9287  -46.1358 N.am      11 UNK        -0.5000 
     20 C          -1.1529  -22.8433  -46.8714 C.2       10 UNK         0.5000 
     21 O          -1.6425  -23.9205  -47.2024 O.2       10 UNK        -0.5000 
     22 CA          0.3072  -22.5397  -47.2447 C.3       10 UNK         0.1400 
     23 CB          0.3965  -21.7115  -48.5348 C.3       10 UNK        -0.1800 
     24 N           1.0022  -21.8541  -46.1567 N.am      10 UNK        -0.5000 
     25 C           1.4294  -22.4637  -45.0412 C.2       9 UNK         0.5000 
     26 O           1.3491  -23.6775  -44.8546 O.2       9 UNK        -0.5000 
     27 CA          2.0054  -21.5656  -43.9297 C.3       9 UNK         0.1400 
     28 CB          3.5077  -21.3315  -44.1457 C.3       9 UNK        -0.1800 
     29 N           1.3235  -20.2745  -43.8360 N.am      9 UNK        -0.5000 
     30 C           0.0441  -20.1189  -43.4655 C.2       8 UNK         0.5000 
     31 O          -0.6780  -21.0477  -43.1055 O.2       8 UNK        -0.5000 
     32 CA         -0.5486  -18.6996  -43.5613 C.3       8 UNK         0.1400 
     33 CB         -0.4420  -17.9808  -42.2102 C.3       8 UNK        -0.1800 
     34 N           0.0572  -17.8660  -44.6030 N.am      8 UNK        -0.5000 
     35 C           0.1021  -18.1671  -45.9094 C.2       7 UNK         0.5000 
     36 O          -0.3427  -19.2104  -46.3854 O.2       7 UNK        -0.5000 
     37 CA          0.8144  -17.1612  -46.8272 C.3       7 UNK         0.1400 
     38 CB         -0.1959  -16.1822  -47.4340 C.3       7 UNK        -0.1800 
     39 N           1.8689  -16.4109  -46.1408 N.am      7 UNK        -0.5000 
     40 C           3.0311  -16.9422  -45.7322 C.2       6 UNK         0.5000 
     41 O           3.3019  -18.1370  -45.8614 O.2       6 UNK        -0.5000 
     42 CA          4.0399  -16.0095  -45.0269 C.3       6 UNK         0.1400 
     43 CB          5.5026  -16.3426  -45.3864 C.3       6 UNK        -0.1800 
     44 N           3.7641  -14.5782  -45.1996 N.am      6 UNK        -0.5000 
     45 C           3.8062  -13.8530  -46.3295 C.2       5 UNK         0.5000 
     46 O           4.1425  -14.3111  -47.4217 O.2       5 UNK        -0.5000 
     47 CA          3.3766  -12.3731  -46.2338 C.3       5 UNK         0.1400 
     48 CB          2.2676  -12.0609  -47.2490 C.3       5 UNK        -0.1800 
     49 N           2.8742  -12.0357  -44.9015 N.am      5 UNK        -0.5000 
     50 C           3.5564  -11.3755  -43.9566 C.2       4 UNK         0.5000 
     51 O           4.6813  -10.9042  -44.1245 O.2       4 UNK        -0.5000 
     52 CA          2.8756  -11.2423  -42.5778 C.3       4 UNK         0.1400 
     53 CB          2.1493   -9.8931  -42.4674 C.3       4 UNK        -0.1800 
     54 N           1.9227  -12.3186  -42.2879 N.am      4 UNK        -0.5000 
     55 C           2.2358  -13.6169  -42.1696 C.2       3 UNK         0.5000 
     56 O           3.3839  -14.0509  -42.2526 O.2       3 UNK        -0.5000 
     57 CA          1.0699  -14.6073  -41.9941 C.3       3 UNK         0.1400 
     58 CB          0.8578  -14.9215  -40.5056 C.3       3 UNK        -0.1800 
     59 N          -0.1937  -14.1408  -42.5730 N.am      3 UNK        -0.5000 
     60 C          -0.4143  -13.9009  -43.8727 C.2       2 UNK         0.5000 
     61 O           0.4364  -14.0558  -44.7539 O.2       2 UNK        -0.5000 
     62 CA         -1.8011  -13.3401  -44.2140 C.3       2 UNK         0.1400 
     63 CB         -1.8692  -11.8395  -43.8791 C.3       2 UNK        -0.1800 
     64 N          -2.1127  -13.5249  -45.6286 N.am      2 UNK        -0.5000 
     65 C          -3.3413  -13.7295  -46.1215 C.2       1 UNK         0.5000 
     66 O          -4.3397  -13.8441  -45.4073 O.2       1 UNK        -0.5000 
     67 C          -3.2238  -23.3030  -44.6153 C.2       11 UNK         0.5000 
     68 O          -4.1412  -24.1212  -44.7023 O.2       11 UNK        -0.5000 
     69 N          -2.2207  -23.3980  -43.7302 N.am      12 UNK        -0.5000 
     70 CA         -2.0367  -24.4949  -42.7790 C.3       12 UNK         0.1400 
     71 CB         -0.8973  -24.1392  -41.8126 C.3       12 UNK        -0.1800 
     72 C          -1.7657  -25.8524  -43.4557 C.2       12 UNK         0.5000 
     73 O          -2.1865  -26.8842  -42.9311 O.2       12 UNK        -0.5000 
     74 N          -1.1129  -25.8359  -44.6254 N.am      13 UNK        -0.5000 
     75 CA         -0.8212  -27.0021  -45.4622 C.3       13 UNK         0.1400 
     76 CB          0.4142  -26.6969  -46.3285 C.3       13 UNK        -0.1800 
     77 C          -2.0435  -27.4445  -46.2986 C.2       13 UNK         0.5000 
     78 O          -1.9287  -27.6337  -47.5109 O.2       13 UNK        -0.5000 
     79 N          -3.1913  -27.6104  -45.6240 N.am      14 UNK        -0.5000 
     80 CA         -4.4922  -28.0324  -46.1531 C.3       14 UNK         0.1400 
     81 CB         -4.4460  -29.5157  -46.5757 C.3       14 UNK        -0.1800 
     82 C          -5.0121  -27.1017  -47.2682 C.2       14 UNK         0.5000 
     83 O          -5.3655  -27.5675  -48.3534 O.2       14 UNK        -0.5000 
     84 N          -5.0135  -25.7912  -46.9862 N.am      15 UNK        -0.5000 
     85 CA         -5.4357  -24.6658  -47.8317 C.3       15 UNK         0.1400 
     86 CB         -6.9054  -24.8022  -48.2741 C.3       15 UNK        -0.1800 
     87 C          -4.5238  -24.3713  -49.0390 C.2       15 UNK         0.5000 
     88 O          -4.3851  -23.2023  -49.3990 O.2       15 UNK        -0.5000 
     89 N          -3.9548  -25.4155  -49.6597 N.am      16 UNK        -0.5000 
     90 CA         -3.0444  -25.3973  -50.8141 C.3       16 UNK         0.1400 
     91 CB         -1.6806  -24.8046  -50.4086 C.3       16 UNK        -0.1800 
     92 C          -3.6375  -24.7127  -52.0670 C.2       16 UNK         0.5000 
     93 O          -2.8945  -24.1608  -52.8792 O.2       16 UNK        -0.5000 
     94 N          -4.9744  -24.7485  -52.1846 N.am      17 UNK        -0.5000 
     95 CA         -5.7983  -24.0422  -53.1730 C.3       17 UNK         0.1400 
     96 CB         -5.5702  -24.6014  -54.5931 C.3       17 UNK        -0.1800 
     97 C          -5.6883  -22.5012  -53.0805 C.2       17 UNK         0.5000 
     98 O          -5.9008  -21.8065  -54.0766 O.2       17 UNK        -0.5000 
     99 N          -5.3924  -21.9988  -51.8709 N.am      18 UNK        -0.5000 
    100 CA        -5.2949  -20.5934  -51.4795 C.3       18 UNK         0.1400 
    101 CB        -6.7015  -19.9570  -51.4165 C.3       18 UNK        -0.1800 
    102 C         -4.2818  -19.8182  -52.3434 C.2       18 UNK         0.5000 
    103 O         -3.0972  -20.1555  -52.3278 O.2       18 UNK        -0.5000 
    104 N         -4.7601  -18.8130  -53.0912 N.am      19 UNK        -0.5000 
    105 CA        -3.9718  -17.9035  -53.9265 C.3       19 UNK         0.1400 
    106 CB        -4.9128  -16.8796  -54.5767 C.3       19 UNK        -0.1800 
    107 C         -3.0961  -18.5893  -54.9915 C.2       19 UNK         0.5000 
    108 O         -2.0981  -18.0053  -55.4111 O.2       19 UNK        -0.5000 
    109 N         -3.4300  -19.8298  -55.3724 N.am      20 UNK        -0.5000 
    110 CA        -2.6145  -20.6816  -56.2412 C.3       20 UNK         0.1400 
    111 CB        -3.3708  -21.9913  -56.4982 C.3       20 UNK        -0.1800 
    112 C         -1.2066  -20.9814  -55.6797 C.2       20 UNK         0.5000 
    113 O         -0.2949  -21.2537  -56.4616 O.2       20 UNK        -0.5000 
    114 N         -1.0462  -20.9109  -54.3505 N.am      21 UNK        -0.5000 
    115 CA         0.2190  -21.1275  -53.6527 C.3       21 UNK         0.1400 
    116 CB        -0.0791  -21.6956  -52.2556 C.3       21 UNK        -0.1800 
    117 C          1.1011  -19.8649  -53.5540 C.2       21 UNK         0.5000 
    118 O          2.2270  -19.9808  -53.0668 O.2       21 UNK        -0.5000 
    119 N          0.6105  -18.6926  -53.9854 N.am      22 UNK        -0.5000 
    120 CA         1.3385  -17.4140  -53.8690 C.3       22 UNK         0.1400 
    121 C          1.1584  -16.4181  -55.0493 C.2       22 UNK         0.5000 
    122 N          0.1860  -16.5750  -55.9360 N.am      22 UNK        -0.7600 
    123 O          1.9510  -15.4899  -55.1873 O.2       22 UNK        -0.5000 
    124 C124        1.1447  -16.7408  -52.4832 C.3       23 UNK        -0.0398 
    125 S125       -0.5951  -16.3620  -52.0650 S.3       23 UNK        -0.2404 
    126 C126       -0.9463  -17.6918  -50.8648 C.3       23 UNK        -0.0205 
    127 H127       -2.2514  -10.2663  -49.2274 H         1 UNK         0.0600 
    128 H128       -0.9066  -11.0103  -50.0986 H         1 UNK         0.0600 
    129 H129       -0.6561  -10.3626  -48.4740 H         1 UNK         0.0600 
    130 H130       -3.6699  -11.7895  -48.4101 H         1 UNK         0.3000 
    131 H131       -2.8835  -14.5856  -48.0273 H         1 UNK         0.0600 
    132 H132       -5.6182  -13.2476  -47.7103 H         1 UNK         0.0800 
    133 H133       -5.3081  -14.9632  -47.6950 H         1 UNK         0.0800 
    134 H134       -6.5729  -15.9675  -49.7103 H         1 UNK         0.0800 
    135 H135       -5.8717  -15.8655  -51.3051 H         1 UNK         0.0800 
    136 H136       -3.1316  -15.9439  -51.2328 H         1 UNK         0.1150 
    137 H137       -1.8577  -19.3922  -49.0144 H         1 UNK         0.1150 
    138 H138       -5.7871  -17.8028  -48.4418 H         1 UNK         0.1150 
    139 H139       -5.1952  -20.0734  -47.6235 H         1 UNK         0.0800 
    140 H140       -3.5945  -20.7077  -47.9283 H         1 UNK         0.0800 
    141 H141       -4.8172  -21.0035  -44.7366 H         1 UNK         0.0800 
    142 H142       -3.2839  -20.6396  -43.9994 H         1 UNK         0.0800 
    143 H143       -3.7904  -22.3883  -46.4470 H         1 UNK         0.0600 
    144 H144       -1.3551  -21.0387  -45.9512 H         1 UNK         0.3000 
    145 H145        0.8079  -23.4922  -47.4304 H         1 UNK         0.0600 
    146 H146        1.4334  -21.5459  -48.8269 H         1 UNK         0.0600 
    147 H147       -0.0946  -22.2288  -49.3584 H         1 UNK         0.0600 
    148 H148       -0.0809  -20.7389  -48.4323 H         1 UNK         0.0600 
    149 H149        1.0254  -20.8433  -46.2056 H         1 UNK         0.3000 
    150 H150        1.8737  -22.0872  -42.9793 H         1 UNK         0.0600 
    151 H151        4.0480  -22.2782  -44.1851 H         1 UNK         0.0600 
    152 H152        3.9373  -20.7456  -43.3330 H         1 UNK         0.0600 
    153 H153        3.7027  -20.8031  -45.0798 H         1 UNK         0.0600 
    154 H154        1.8394  -19.4653  -44.1517 H         1 UNK         0.3000 
    155 H155       -1.6066  -18.8048  -43.8038 H         1 UNK         0.0600 
    156 H156       -0.9147  -18.5647  -41.4193 H         1 UNK         0.0600 
    157 H157       -0.9438  -17.0139  -42.2396 H         1 UNK         0.0600 
    158 H158        0.5969  -17.8193  -41.9209 H         1 UNK         0.0600 
    159 H159        0.4564  -16.9870  -44.3115 H         1 UNK         0.3000 
    160 H160        1.2693  -17.7279  -47.6424 H         1 UNK         0.0600 
    161 H161       -0.6238  -15.5304  -46.6762 H         1 UNK         0.0600 
    162 H162       -1.0245  -16.7094  -47.9040 H         1 UNK         0.0600 
    163 H163        0.2695  -15.5571  -48.1961 H         1 UNK         0.0600 
    164 H164        1.6836  -15.4325  -45.9550 H         1 UNK         0.3000 
    165 H165        3.9190  -16.2048  -43.9607 H         1 UNK         0.0600 
    166 H166        5.6884  -16.2555  -46.4570 H         1 UNK         0.0600 
    167 H167        6.1964  -15.6799  -44.8691 H         1 UNK         0.0600 
    168 H168        5.7545  -17.3631  -45.0957 H         1 UNK         0.0600 
    169 H169        3.5110  -14.0962  -44.3457 H         1 UNK         0.3000 
    170 H170        4.2484  -11.7643  -46.4806 H         1 UNK         0.0600 
    171 H171        2.5919  -12.2622  -48.2706 H         1 UNK         0.0600 
    172 H172        1.3849  -12.6698  -47.0572 H         1 UNK         0.0600 
    173 H173        1.9693  -11.0136  -47.2027 H         1 UNK         0.0600 
    174 H174        1.9620  -12.4101  -44.6720 H         1 UNK         0.3000 
    175 H175        3.6603  -11.2750  -41.8191 H         1 UNK         0.0600 
    176 H176        1.3346   -9.8146  -43.1885 H         1 UNK         0.0600 
    177 H177        1.7317   -9.7497  -41.4707 H         1 UNK         0.0600 
    178 H178        2.8337   -9.0643  -42.6536 H         1 UNK         0.0600 
    179 H179        0.9534  -12.0519  -42.2014 H         1 UNK         0.3000 
    180 H180        1.3514  -15.5294  -42.5055 H         1 UNK         0.0600 
    181 H181        0.5741  -14.0310  -39.9432 H         1 UNK         0.0600 
    182 H182        1.7700  -15.3164  -40.0561 H         1 UNK         0.0600 
    183 H183        0.0781  -15.6692  -40.3622 H         1 UNK         0.0600 
    184 H184       -0.9428  -13.9724  -41.9164 H         1 UNK         0.3000 
    185 H185       -2.5296  -13.8793  -43.6046 H         1 UNK         0.0600 
    186 H186       -1.6577  -11.6560  -42.8251 H         1 UNK         0.0600 
    187 H187       -1.1499  -11.2655  -44.4651 H         1 UNK         0.0600 
    188 H188       -2.8612  -11.4354  -44.0819 H         1 UNK         0.0600 
    189 H189       -1.3261  -13.4647  -46.2681 H         1 UNK         0.3000 
    190 H190       -1.5383  -22.6453  -43.6841 H         1 UNK         0.3000 
    191 H191       -2.9577  -24.5930  -42.2009 H         1 UNK         0.0600 
    192 H192        0.0467  -23.9973  -42.3401 H         1 UNK         0.0600 
    193 H193       -1.1158  -23.2214  -41.2663 H         1 UNK         0.0600 
    194 H194       -0.7475  -24.9289  -41.0753 H         1 UNK         0.0600 
    195 H195       -0.8273  -24.9416  -45.0006 H         1 UNK         0.3000 
    196 H196       -0.5631  -27.8402  -44.8117 H         1 UNK         0.0600 
    197 H197        1.2662  -26.4065  -45.7136 H         1 UNK         0.0600 
    198 H198        0.2207  -25.8900  -47.0351 H         1 UNK         0.0600 
    199 H199        0.7147  -27.5726  -46.9049 H         1 UNK         0.0600 
    200 H200       -3.1597  -27.4252  -44.6268 H         1 UNK         0.3000 
    201 H201       -5.2026  -27.9479  -45.3295 H         1 UNK         0.0600 
    202 H202       -5.4337  -29.8668  -46.8768 H         1 UNK         0.0600 
    203 H203       -4.1141  -30.1494  -45.7533 H         1 UNK         0.0600 
    204 H204       -3.7711  -29.6778  -47.4168 H         1 UNK         0.0600 
    205 H205       -4.6466  -25.5046  -46.0833 H         1 UNK         0.3000 
    206 H206       -5.3872  -23.7889  -47.1878 H         1 UNK         0.0600 
    207 H207       -7.5629  -24.9491  -47.4172 H         1 UNK         0.0600 
    208 H208       -7.0538  -25.6373  -48.9589 H         1 UNK         0.0600 
    209 H209       -7.2398  -23.9002  -48.7883 H         1 UNK         0.0600 
    210 H210       -4.1871  -26.3352  -49.2968 H         1 UNK         0.3000 
    211 H211       -2.8819  -26.4403  -51.0885 H         1 UNK         0.0600 
    212 H212       -1.2709  -25.3213  -49.5404 H         1 UNK         0.0600 
    213 H213       -0.9516  -24.8989  -51.2138 H         1 UNK         0.0600 
    214 H214       -1.7650  -23.7463  -50.1611 H         1 UNK         0.0600 
    215 H215       -5.4845  -25.2403  -51.4647 H         1 UNK         0.3000 
    216 H216       -6.8328  -24.2656  -52.9088 H         1 UNK         0.0600 
    217 H217       -6.2168  -24.1113  -55.3218 H         1 UNK         0.0600 
    218 H218       -4.5421  -24.4710  -54.9264 H         1 UNK         0.0600 
    219 H219       -5.7948  -25.6672  -54.6312 H         1 UNK         0.0600 
    220 H220       -5.1425  -22.6488  -51.1320 H         1 UNK         0.3000 
    221 H221       -4.8880  -20.5925  -50.4685 H         1 UNK         0.0600 
    222 H222       -7.2012  -19.9620  -52.3858 H         1 UNK         0.0600 
    223 H223       -7.3383  -20.4986  -50.7170 H         1 UNK         0.0600 
    224 H224       -6.6538  -18.9249  -51.0670 H         1 UNK         0.0600 
    225 H225       -5.7540  -18.6408  -53.0648 H         1 UNK         0.3000 
    226 H226       -3.2907  -17.3666  -53.2655 H         1 UNK         0.0600 
    227 H227       -5.4515  -16.3042  -53.8238 H         1 UNK         0.0600 
    228 H228       -4.3549  -16.1683  -55.1874 H         1 UNK         0.0600 
    229 H229       -5.6470  -17.3628  -55.2225 H         1 UNK         0.0600 
    230 H230       -4.2489  -20.2563  -54.9577 H         1 UNK         0.3000 
    231 H231       -2.4876  -20.1617  -57.1928 H         1 UNK         0.0600 
    232 H232       -2.8241  -22.6322  -57.1909 H         1 UNK         0.0600 
    233 H233       -4.3552  -21.8070  -56.9290 H         1 UNK         0.0600 
    234 H234       -3.5069  -22.5481  -55.5716 H         1 UNK         0.0600 
    235 H235       -1.8442  -20.6783  -53.7647 H         1 UNK         0.3000 
    236 H236        0.7976  -21.8784  -54.1945 H         1 UNK         0.0600 
    237 H237       -0.6689  -22.6092  -52.3224 H         1 UNK         0.0600 
    238 H238        0.8420  -21.9432  -51.7271 H         1 UNK         0.0600 
    239 H239       -0.6323  -20.9887  -51.6378 H         1 UNK         0.0600 
    240 H240       -0.3175  -18.6516  -54.3864 H         1 UNK         0.3000 
    241 H241        2.4019  -17.6521  -53.9375 H         1 UNK         0.0600 
    242 H242        0.1185  -15.9194  -56.6975 H         1 UNK         0.3800 
    243 H243       -0.5717  -17.2404  -55.7939 H         1 UNK         0.3800 
    244 H244        1.5698  -17.3813  -51.7096 H         1 UNK         0.0800 
    245 H245        1.7162  -15.8129  -52.4270 H         1 UNK         0.0800 
    246 H246       -0.8340  -18.6471  -51.3770 H         1 UNK         0.0800 
    247 H247       -0.1866  -17.6642  -50.0829 H         1 UNK         0.0800 
@<TRIPOS>BOND
     1    1    2 1    
     2    1  127 1    
     3    1  128 1    
     4    1  129 1    
     5    2    3 2    
     6    2    4 am   BACKBONE|DICT|INTERRES
     7    4    5 1    
     8    4  130 1    
     9    5    6 1    
    10    5   65 1    
    11    5  131 1    
    12    6    7 1    
    13    6  132 1    
    14    6  133 1    
    15    7    8 1    
    16    8    9 1    
    17    8  134 1    
    18    8  135 1    
    19    9   10 ar   
    20    9   14 ar   
    21   10   11 ar   
    22   10  136 1    
    23   11   12 ar   
    24   11  126 1    
    25   12   13 ar   
    26   12  137 1    
    27   13   14 ar   
    28   13   15 1    
    29   14  138 1    
    30   15   16 1    
    31   15  139 1    
    32   15  140 1    
    33   16   17 1    
    34   17   18 1    
    35   17  141 1    
    36   17  142 1    
    37   18   19 1    
    38   18   67 1    
    39   18  143 1    
    40   19   20 am   BACKBONE|DICT|INTERRES
    41   19  144 1    
    42   20   21 2    
    43   20   22 1    
    44   22   23 1    
    45   22   24 1    
    46   22  145 1    
    47   23  146 1    
    48   23  147 1    
    49   23  148 1    
    50   24   25 am   BACKBONE|DICT|INTERRES
    51   24  149 1    
    52   25   26 2    
    53   25   27 1    
    54   27   28 1    
    55   27   29 1    
    56   27  150 1    
    57   28  151 1    
    58   28  152 1    
    59   28  153 1    
    60   29   30 am   BACKBONE|DICT|INTERRES
    61   29  154 1    
    62   30   31 2    
    63   30   32 1    
    64   32   33 1    
    65   32   34 1    
    66   32  155 1    
    67   33  156 1    
    68   33  157 1    
    69   33  158 1    
    70   34   35 am   BACKBONE|DICT|INTERRES
    71   34  159 1    
    72   35   36 2    
    73   35   37 1    
    74   37   38 1    
    75   37   39 1    
    76   37  160 1    
    77   38  161 1    
    78   38  162 1    
    79   38  163 1    
    80   39   40 am   BACKBONE|DICT|INTERRES
    81   39  164 1    
    82   40   41 2    
    83   40   42 1    
    84   42   43 1    
    85   42   44 1    
    86   42  165 1    
    87   43  166 1    
    88   43  167 1    
    89   43  168 1    
    90   44   45 am   BACKBONE|DICT|INTERRES
    91   44  169 1    
    92   45   46 2    
    93   45   47 1    
    94   47   48 1    
    95   47   49 1    
    96   47  170 1    
    97   48  171 1    
    98   48  172 1    
    99   48  173 1    
   100   49   50 am   BACKBONE|DICT|INTERRES
   101   49  174 1    
   102   50   51 2    
   103   50   52 1    
   104   52   53 1    
   105   52   54 1    
   106   52  175 1    
   107   53  176 1    
   108   53  177 1    
   109   53  178 1    
   110   54   55 am   BACKBONE|DICT|INTERRES
   111   54  179 1    
   112   55   56 2    
   113   55   57 1    
   114   57   58 1    
   115   57   59 1    
   116   57  180 1    
   117   58  181 1    
   118   58  182 1    
   119   58  183 1    
   120   59   60 am   BACKBONE|DICT|INTERRES
   121   59  184 1    
   122   60   61 2    
   123   60   62 1    
   124   62   63 1    
   125   62   64 1    
   126   62  185 1    
   127   63  186 1    
   128   63  187 1    
   129   63  188 1    
   130   64   65 am   BACKBONE|DICT|INTERRES
   131   64  189 1    
   132   65   66 2    
   133   67   68 2    
   134   67   69 am   BACKBONE|DICT|INTERRES
   135   69   70 1    
   136   69  190 1    
   137   70   71 1    
   138   70   72 1    
   139   70  191 1    
   140   71  192 1    
   141   71  193 1    
   142   71  194 1    
   143   72   73 2    
   144   72   74 am   BACKBONE|DICT|INTERRES
   145   74   75 1    
   146   74  195 1    
   147   75   76 1    
   148   75   77 1    
   149   75  196 1    
   150   76  197 1    
   151   76  198 1    
   152   76  199 1    
   153   77   78 2    
   154   77   79 am   BACKBONE|DICT|INTERRES
   155   79   80 1    
   156   79  200 1    
   157   80   81 1    
   158   80   82 1    
   159   80  201 1    
   160   81  202 1    
   161   81  203 1    
   162   81  204 1    
   163   82   83 2    
   164   82   84 am   BACKBONE|DICT|INTERRES
   165   84   85 1    
   166   84  205 1    
   167   85   86 1    
   168   85   87 1    
   169   85  206 1    
   170   86  207 1    
   171   86  208 1    
   172   86  209 1    
   173   87   88 2    
   174   87   89 am   BACKBONE|DICT|INTERRES
   175   89   90 1    
   176   89  210 1    
   177   90   91 1    
   178   90   92 1    
   179   90  211 1    
   180   91  212 1    
   181   91  213 1    
   182   91  214 1    
   183   92   93 2    
   184   92   94 am   BACKBONE|DICT|INTERRES
   185   94   95 1    
   186   94  215 1    
   187   95   96 1    
   188   95   97 1    
   189   95  216 1    
   190   96  217 1    
   191   96  218 1    
   192   96  219 1    
   193   97   98 2    
   194   97   99 am   BACKBONE|DICT|INTERRES
   195   99  100 1    
   196   99  220 1    
   197  100  101 1    
   198  100  102 1    
   199  100  221 1    
   200  101  222 1    
   201  101  223 1    
   202  101  224 1    
   203  102  103 2    
   204  102  104 am   BACKBONE|DICT|INTERRES
   205  104  105 1    
   206  104  225 1    
   207  105  106 1    
   208  105  107 1    
   209  105  226 1    
   210  106  227 1    
   211  106  228 1    
   212  106  229 1    
   213  107  108 2    
   214  107  109 am   BACKBONE|DICT|INTERRES
   215  109  110 1    
   216  109  230 1    
   217  110  111 1    
   218  110  112 1    
   219  110  231 1    
   220  111  232 1    
   221  111  233 1    
   222  111  234 1    
   223  112  113 2    
   224  112  114 am   BACKBONE|DICT|INTERRES
   225  114  115 1    
   226  114  235 1    
   227  115  116 1    
   228  115  117 1    
   229  115  236 1    
   230  116  237 1    
   231  116  238 1    
   232  116  239 1    
   233  117  118 2    
   234  117  119 am   BACKBONE|DICT|INTERRES
   235  119  120 1    
   236  119  240 1    
   237  120  121 1    
   238  120  124 1    
   239  120  241 1    
   240  121  122 am   BACKBONE|DICT|INTERRES
   241  121  123 2    
   242  122  242 1    
   243  122  243 1    
   244  124  125 1    
   245  124  244 1    
   246  124  245 1    
   247  125  126 1    
   248  126  246 1    
   249  126  247 1    
@<TRIPOS>SUBSTRUCTURE
     1 UNK         1 GROUP             0       ****    0 ROOT    
