@<TRIPOS>MOLECULE
3R540
247   249    1
SMALL
USER_CHARGES


@<TRIPOS>ATOM
      1 CA          0.3436  -10.4839  -49.9086 C.3       0 UNK        -0.1800 
      2 C          -0.1580  -11.9006  -49.6660 C.2       0 UNK         0.5000 
      3 O          -0.8556  -12.4561  -50.5138 O.2       0 UNK        -0.5000 
      4 N           0.1883  -12.4812  -48.5104 N.am      1 UNK        -0.5000 
      5 CA         -0.1398  -13.8566  -48.1294 C.3       1 UNK         0.1400 
      6 C6          0.0537  -14.0590  -46.6064 C.3       23 UNK        -0.0398 
      7 S7         -0.3040  -15.7345  -45.9789 S.3       23 UNK        -0.2404 
      8 C8         -2.1221  -15.7641  -45.9434 C.3       23 UNK        -0.0205 
      9 C9         -2.6961  -16.3824  -47.2088 C.ar      23 UNK        -0.0193 
     10 C10        -3.3974  -15.5992  -48.1322 C.ar      23 UNK        -0.1150 
     11 C11        -3.9353  -16.1795  -49.2843 C.ar      23 UNK        -0.0193 
     12 C12        -3.7867  -17.5503  -49.4956 C.ar      23 UNK        -0.1150 
     13 C13        -3.0765  -18.3406  -48.5934 C.ar      23 UNK        -0.0193 
     14 C14        -2.5329  -17.7514  -47.4487 C.ar      23 UNK        -0.1150 
     15 C15        -2.8644  -19.8133  -48.9007 C.3       23 UNK        -0.0205 
     16 S16        -4.2301  -20.8651  -48.3180 S.3       23 UNK        -0.2404 
     17 C17        -3.8253  -21.0425  -46.5492 C.3       23 UNK        -0.0398 
     18 CA         -2.7181  -22.0979  -46.2979 C.3       11 UNK         0.1400 
     19 N          -1.8740  -21.7307  -45.1592 N.am      11 UNK        -0.5000 
     20 C          -0.6983  -22.2882  -44.8479 C.2       10 UNK         0.5000 
     21 O          -0.2264  -23.2360  -45.4776 O.2       10 UNK        -0.5000 
     22 CA          0.0663  -21.6953  -43.6404 C.3       10 UNK         0.1400 
     23 CB          1.5654  -22.0425  -43.6620 C.3       10 UNK        -0.1800 
     24 N          -0.0674  -20.2417  -43.4851 N.am      10 UNK        -0.5000 
     25 C          -1.1513  -19.5909  -43.0445 C.2       9 UNK         0.5000 
     26 O          -2.2389  -20.1386  -42.8516 O.2       9 UNK        -0.5000 
     27 CA         -0.9649  -18.0909  -42.7455 C.3       9 UNK         0.1400 
     28 CB         -2.2763  -17.3949  -42.3289 C.3       9 UNK        -0.1800 
     29 N           0.0776  -17.8524  -41.7421 N.am      9 UNK        -0.5000 
     30 C           0.1775  -18.3883  -40.5137 C.2       8 UNK         0.5000 
     31 O          -0.6319  -19.1773  -40.0254 O.2       8 UNK        -0.5000 
     32 CA          1.3850  -17.9414  -39.6756 C.3       8 UNK         0.1400 
     33 CB          2.6924  -18.5412  -40.2213 C.3       8 UNK        -0.1800 
     34 N           1.4791  -16.4835  -39.6569 N.am      8 UNK        -0.5000 
     35 C           0.8864  -15.6950  -38.7486 C.2       7 UNK         0.5000 
     36 O           0.2643  -16.1212  -37.7749 O.2       7 UNK        -0.5000 
     37 CA          1.0053  -14.1708  -38.9549 C.3       7 UNK         0.1400 
     38 CB          2.1954  -13.6130  -38.1590 C.3       7 UNK        -0.1800 
     39 N           1.1592  -13.7973  -40.3608 N.am      7 UNK        -0.5000 
     40 C           0.1896  -13.8755  -41.2832 C.2       6 UNK         0.5000 
     41 O          -0.9791  -14.1581  -41.0215 O.2       6 UNK        -0.5000 
     42 CA          0.6000  -13.6212  -42.7487 C.3       6 UNK         0.1400 
     43 CB          0.2325  -12.1909  -43.1709 C.3       6 UNK        -0.1800 
     44 N           2.0262  -13.8471  -43.0172 N.am      6 UNK        -0.5000 
     45 C           2.6463  -15.0284  -42.9024 C.2       5 UNK         0.5000 
     46 O           2.0828  -16.0609  -42.5401 O.2       5 UNK        -0.5000 
     47 CA          4.1565  -15.0412  -43.1890 C.3       5 UNK         0.1400 
     48 CB          4.9209  -14.5508  -41.9493 C.3       5 UNK        -0.1800 
     49 N           4.6501  -16.3788  -43.5315 N.am      5 UNK        -0.5000 
     50 C           4.4651  -17.0694  -44.6671 C.2       4 UNK         0.5000 
     51 O           4.9499  -18.1934  -44.8089 O.2       4 UNK        -0.5000 
     52 CA          3.7063  -16.4205  -45.8510 C.3       4 UNK         0.1400 
     53 CB          4.6627  -15.5484  -46.6834 C.3       4 UNK        -0.1800 
     54 N           3.0884  -17.3854  -46.7588 N.am      4 UNK        -0.5000 
     55 C           2.1959  -18.3364  -46.4513 C.2       3 UNK         0.5000 
     56 O           1.7575  -18.5553  -45.3191 O.2       3 UNK        -0.5000 
     57 CA          1.6640  -19.1150  -47.6644 C.3       3 UNK         0.1400 
     58 CB          0.6943  -20.2455  -47.2914 C.3       3 UNK        -0.1800 
     59 N           0.9914  -18.1679  -48.5519 N.am      3 UNK        -0.5000 
     60 C           1.3544  -17.9003  -49.8121 C.2       2 UNK         0.5000 
     61 O           2.2607  -18.4883  -50.4022 O.2       2 UNK        -0.5000 
     62 CA          0.5957  -16.7727  -50.5370 C.3       2 UNK         0.1400 
     63 CB         -0.4911  -17.3534  -51.4476 C.3       2 UNK        -0.1800 
     64 N          -0.0108  -15.7956  -49.6316 N.am      2 UNK        -0.5000 
     65 C           0.6789  -14.8488  -48.9818 C.2       1 UNK         0.5000 
     66 O           1.9049  -14.7324  -49.0381 O.2       1 UNK        -0.5000 
     67 C          -3.2830  -23.5289  -46.1790 C.2       11 UNK         0.5000 
     68 O          -3.4479  -24.2028  -47.1956 O.2       11 UNK        -0.5000 
     69 N          -3.5114  -23.9884  -44.9397 N.am      12 UNK        -0.5000 
     70 CA         -3.9172  -25.3584  -44.6239 C.3       12 UNK         0.1400 
     71 CB         -4.3371  -25.4381  -43.1487 C.3       12 UNK        -0.1800 
     72 C          -2.8135  -26.3875  -44.9324 C.2       12 UNK         0.5000 
     73 O          -3.1165  -27.4610  -45.4525 O.2       12 UNK        -0.5000 
     74 N          -1.5509  -26.0282  -44.6543 N.am      13 UNK        -0.5000 
     75 CA         -0.3711  -26.8390  -44.9731 C.3       13 UNK         0.1400 
     76 CB          0.8454  -26.3113  -44.1982 C.3       13 UNK        -0.1800 
     77 C          -0.0863  -26.8750  -46.4862 C.2       13 UNK         0.5000 
     78 O           0.3608  -27.9008  -46.9993 O.2       13 UNK        -0.5000 
     79 N          -0.4069  -25.7730  -47.1781 N.am      14 UNK        -0.5000 
     80 CA         -0.3957  -25.6551  -48.6377 C.3       14 UNK         0.1400 
     81 CB         -0.3255  -24.1648  -49.0121 C.3       14 UNK        -0.1800 
     82 C          -1.6083  -26.3291  -49.3193 C.2       14 UNK         0.5000 
     83 O          -1.7017  -26.2843  -50.5463 O.2       14 UNK        -0.5000 
     84 N          -2.5334  -26.9011  -48.5303 N.am      15 UNK        -0.5000 
     85 CA         -3.7719  -27.5765  -48.9395 C.3       15 UNK         0.1400 
     86 CB         -3.4448  -28.9040  -49.6535 C.3       15 UNK        -0.1800 
     87 C          -4.7194  -26.6749  -49.7610 C.2       15 UNK         0.5000 
     88 O          -5.4405  -27.1667  -50.6304 O.2       15 UNK        -0.5000 
     89 N          -4.6664  -25.3626  -49.4886 N.am      16 UNK        -0.5000 
     90 CA         -5.3459  -24.2615  -50.1768 C.3       16 UNK         0.1400 
     91 CB         -6.8752  -24.3696  -50.0135 C.3       16 UNK        -0.1800 
     92 C          -4.9286  -24.0598  -51.6514 C.2       16 UNK         0.5000 
     93 O          -5.5371  -23.2360  -52.3343 O.2       16 UNK        -0.5000 
     94 N          -3.8930  -24.7688  -52.1279 N.am      17 UNK        -0.5000 
     95 CA         -3.4113  -24.6921  -53.5105 C.3       17 UNK         0.1400 
     96 CB         -2.4931  -25.8884  -53.8002 C.3       17 UNK        -0.1800 
     97 C          -2.6880  -23.3680  -53.8118 C.2       17 UNK         0.5000 
     98 O          -2.7467  -22.8812  -54.9413 O.2       17 UNK        -0.5000 
     99 N          -2.0493  -22.7910  -52.7841 N.am      18 UNK        -0.5000 
    100 CA        -1.3490  -21.5074  -52.8422 C.3       18 UNK         0.1400 
    101 CB        -0.5346  -21.3226  -51.5519 C.3       18 UNK        -0.1800 
    102 C         -2.2811  -20.3055  -53.0958 C.2       18 UNK         0.5000 
    103 O         -1.8283  -19.2979  -53.6365 O.2       18 UNK        -0.5000 
    104 N         -3.5747  -20.4371  -52.7616 N.am      19 UNK        -0.5000 
    105 CA        -4.6031  -19.4101  -52.9644 C.3       19 UNK         0.1400 
    106 CB        -5.8914  -19.8243  -52.2401 C.3       19 UNK        -0.1800 
    107 C         -4.8805  -19.0608  -54.4404 C.2       19 UNK         0.5000 
    108 O         -5.4886  -18.0233  -54.7068 O.2       19 UNK        -0.5000 
    109 N         -4.3732  -19.8747  -55.3771 N.am      20 UNK        -0.5000 
    110 CA        -4.3104  -19.5689  -56.8069 C.3       20 UNK         0.1400 
    111 CB        -3.7660  -20.7948  -57.5548 C.3       20 UNK        -0.1800 
    112 C         -3.4644  -18.3173  -57.1312 C.2       20 UNK         0.5000 
    113 O         -3.7138  -17.6772  -58.1532 O.2       20 UNK        -0.5000 
    114 N         -2.5025  -17.9734  -56.2588 N.am      21 UNK        -0.5000 
    115 CA        -1.7222  -16.7376  -56.3434 C.3       21 UNK         0.1400 
    116 CB        -0.4494  -16.8774  -55.4951 C.3       21 UNK        -0.1800 
    117 C         -2.5303  -15.5004  -55.9045 C.2       21 UNK         0.5000 
    118 O         -2.3088  -14.4154  -56.4441 O.2       21 UNK        -0.5000 
    119 N         -3.4490  -15.6812  -54.9459 N.am      22 UNK        -0.5000 
    120 CA        -4.3880  -14.6448  -54.4873 C.3       22 UNK         0.1400 
    121 C         -5.5601  -14.4394  -55.4844 C.2       22 UNK         0.5000 
    122 N         -6.1517  -15.5073  -56.0064 N.am      22 UNK        -0.7600 
    123 O         -5.9331  -13.3090  -55.7854 O.2       22 UNK        -0.5000 
    124 C124       -4.9461  -14.9287  -53.0692 C.3       23 UNK        -0.0398 
    125 S125       -3.6490  -15.1023  -51.8017 S.3       23 UNK        -0.2404 
    126 C126       -4.6736  -15.3455  -50.3167 C.3       23 UNK        -0.0205 
    127 H127        0.9620  -10.4537  -50.8056 H         1 UNK         0.0600 
    128 H128        0.9387  -10.1149  -49.0728 H         1 UNK         0.0600 
    129 H129       -0.4987   -9.8069  -50.0510 H         1 UNK         0.0600 
    130 H130        0.7909  -11.9805  -47.8734 H         1 UNK         0.3000 
    131 H131       -1.1964  -14.0039  -48.3520 H         1 UNK         0.0600 
    132 H132        1.0830  -13.8257  -46.3283 H         1 UNK         0.0800 
    133 H133       -0.5686  -13.3498  -46.0594 H         1 UNK         0.0800 
    134 H134       -2.5161  -14.7604  -45.7781 H         1 UNK         0.0800 
    135 H135       -2.4451  -16.3584  -45.0893 H         1 UNK         0.0800 
    136 H136       -3.5249  -14.5402  -47.9564 H         1 UNK         0.1150 
    137 H137       -4.2105  -18.0009  -50.3785 H         1 UNK         0.1150 
    138 H138       -1.9787  -18.3525  -46.7426 H         1 UNK         0.1150 
    139 H139       -1.9184  -20.1562  -48.4863 H         1 UNK         0.0800 
    140 H140       -2.7820  -19.9372  -49.9801 H         1 UNK         0.0800 
    141 H141       -4.7374  -21.2812  -45.9990 H         1 UNK         0.0800 
    142 H142       -3.5193  -20.0646  -46.1788 H         1 UNK         0.0800 
    143 H143       -2.0493  -22.1050  -47.1598 H         1 UNK         0.0600 
    144 H144       -2.2206  -21.0094  -44.5335 H         1 UNK         0.3000 
    145 H145       -0.3625  -22.1634  -42.7523 H         1 UNK         0.0600 
    146 H146        2.0671  -21.6715  -42.7680 H         1 UNK         0.0600 
    147 H147        1.7247  -23.1204  -43.6927 H         1 UNK         0.0600 
    148 H148        2.0664  -21.6092  -44.5280 H         1 UNK         0.0600 
    149 H149        0.7538  -19.6937  -43.7171 H         1 UNK         0.3000 
    150 H150       -0.6188  -17.6299  -43.6710 H         1 UNK         0.0600 
    151 H151       -2.6504  -17.7713  -41.3764 H         1 UNK         0.0600 
    152 H152       -3.0592  -17.5524  -43.0712 H         1 UNK         0.0600 
    153 H153       -2.1342  -16.3191  -42.2312 H         1 UNK         0.0600 
    154 H154        0.8242  -17.2282  -42.0446 H         1 UNK         0.3000 
    155 H155        1.2500  -18.3150  -38.6582 H         1 UNK         0.0600 
    156 H156        2.8983  -18.2230  -41.2435 H         1 UNK         0.0600 
    157 H157        2.6473  -19.6310  -40.2231 H         1 UNK         0.0600 
    158 H158        3.5436  -18.2522  -39.6049 H         1 UNK         0.0600 
    159 H159        1.9075  -16.0571  -40.4682 H         1 UNK         0.3000 
    160 H160        0.0914  -13.7108  -38.5728 H         1 UNK         0.0600 
    161 H161        3.1426  -14.0274  -38.5066 H         1 UNK         0.0600 
    162 H162        2.1020  -13.8517  -37.0987 H         1 UNK         0.0600 
    163 H163        2.2520  -12.5275  -38.2424 H         1 UNK         0.0600 
    164 H164        2.0837  -13.5267  -40.6602 H         1 UNK         0.3000 
    165 H165        0.0295  -14.3183  -43.3650 H         1 UNK         0.0600 
    166 H166        0.4661  -12.0135  -44.2205 H         1 UNK         0.0600 
    167 H167        0.7674  -11.4475  -42.5785 H         1 UNK         0.0600 
    168 H168       -0.8350  -12.0080  -43.0412 H         1 UNK         0.0600 
    169 H169        2.5590  -13.0358  -43.2974 H         1 UNK         0.3000 
    170 H170        4.3619  -14.3553  -44.0109 H         1 UNK         0.0600 
    171 H171        4.6224  -13.5385  -41.6734 H         1 UNK         0.0600 
    172 H172        4.7431  -15.1925  -41.0849 H         1 UNK         0.0600 
    173 H173        5.9955  -14.5283  -42.1328 H         1 UNK         0.0600 
    174 H174        5.1429  -16.8466  -42.7865 H         1 UNK         0.3000 
    175 H175        2.8940  -15.7985  -45.4801 H         1 UNK         0.0600 
    176 H176        5.4328  -16.1516  -47.1659 H         1 UNK         0.0600 
    177 H177        4.1259  -15.0072  -47.4625 H         1 UNK         0.0600 
    178 H178        5.1746  -14.8052  -46.0730 H         1 UNK         0.0600 
    179 H179        3.3521  -17.2951  -47.7286 H         1 UNK         0.3000 
    180 H180        2.5274  -19.5685  -48.1555 H         1 UNK         0.0600 
    181 H181       -0.1703  -19.8747  -46.7417 H         1 UNK         0.0600 
    182 H182        1.1954  -20.9844  -46.6677 H         1 UNK         0.0600 
    183 H183        0.3392  -20.7681  -48.1793 H         1 UNK         0.0600 
    184 H184        0.2758  -17.5936  -48.1285 H         1 UNK         0.3000 
    185 H185        1.3153  -16.2493  -51.1705 H         1 UNK         0.0600 
    186 H186       -1.0179  -16.5682  -51.9889 H         1 UNK         0.0600 
    187 H187       -0.0469  -18.0132  -52.1926 H         1 UNK         0.0600 
    188 H188       -1.2272  -17.9313  -50.8894 H         1 UNK         0.0600 
    189 H189       -1.0177  -15.8231  -49.5484 H         1 UNK         0.3000 
    190 H190       -3.3495  -23.3689  -44.1592 H         1 UNK         0.3000 
    191 H191       -4.7846  -25.6058  -45.2399 H         1 UNK         0.0600 
    192 H192       -4.6623  -26.4466  -42.8898 H         1 UNK         0.0600 
    193 H193       -5.1694  -24.7660  -42.9391 H         1 UNK         0.0600 
    194 H194       -3.5166  -25.1757  -42.4796 H         1 UNK         0.0600 
    195 H195       -1.3774  -25.1097  -44.2738 H         1 UNK         0.3000 
    196 H196       -0.5625  -27.8630  -44.6450 H         1 UNK         0.0600 
    197 H197        1.1218  -25.3063  -44.5150 H         1 UNK         0.0600 
    198 H198        0.6527  -26.2867  -43.1257 H         1 UNK         0.0600 
    199 H199        1.7135  -26.9520  -44.3581 H         1 UNK         0.0600 
    200 H200       -0.7009  -24.9530  -46.6601 H         1 UNK         0.3000 
    201 H201        0.5039  -26.1434  -49.0173 H         1 UNK         0.0600 
    202 H202       -1.2462  -23.6414  -48.7568 H         1 UNK         0.0600 
    203 H203       -0.1680  -24.0431  -50.0839 H         1 UNK         0.0600 
    204 H204        0.4987  -23.6635  -48.5040 H         1 UNK         0.0600 
    205 H205       -2.3870  -26.8532  -47.5310 H         1 UNK         0.3000 
    206 H206       -4.3065  -27.8172  -48.0198 H         1 UNK         0.0600 
    207 H207       -2.7832  -29.5236  -49.0481 H         1 UNK         0.0600 
    208 H208       -4.3497  -29.4838  -49.8388 H         1 UNK         0.0600 
    209 H209       -2.9602  -28.7365  -50.6160 H         1 UNK         0.0600 
    210 H210       -4.0633  -25.0680  -48.7223 H         1 UNK         0.3000 
    211 H211       -5.0284  -23.3580  -49.6576 H         1 UNK         0.0600 
    212 H212       -7.3725  -23.4720  -50.3829 H         1 UNK         0.0600 
    213 H213       -7.1519  -24.4827  -48.9653 H         1 UNK         0.0600 
    214 H214       -7.2837  -25.2175  -50.5635 H         1 UNK         0.0600 
    215 H215       -3.4075  -25.4120  -51.5126 H         1 UNK         0.3000 
    216 H216       -4.2742  -24.7587  -54.1765 H         1 UNK         0.0600 
    217 H217       -1.5854  -25.8561  -53.1968 H         1 UNK         0.0600 
    218 H218       -2.1889  -25.9002  -54.8475 H         1 UNK         0.0600 
    219 H219       -2.9979  -26.8329  -53.5963 H         1 UNK         0.0600 
    220 H220       -2.0538  -23.2710  -51.8965 H         1 UNK         0.3000 
    221 H221       -0.6490  -21.5442  -53.6795 H         1 UNK         0.0600 
    222 H222        0.2732  -22.0521  -51.4955 H         1 UNK         0.0600 
    223 H223       -1.1494  -21.4424  -50.6608 H         1 UNK         0.0600 
    224 H224       -0.0736  -20.3358  -51.5083 H         1 UNK         0.0600 
    225 H225       -3.8905  -21.3180  -52.3807 H         1 UNK         0.3000 
    226 H226       -4.2349  -18.4904  -52.5088 H         1 UNK         0.0600 
    227 H227       -6.3353  -20.7129  -52.6891 H         1 UNK         0.0600 
    228 H228       -5.7052  -20.0353  -51.1868 H         1 UNK         0.0600 
    229 H229       -6.6363  -19.0288  -52.2850 H         1 UNK         0.0600 
    230 H230       -3.8881  -20.7094  -55.0755 H         1 UNK         0.3000 
    231 H231       -5.3282  -19.3773  -57.1528 H         1 UNK         0.0600 
    232 H232       -2.7532  -21.0428  -57.2340 H         1 UNK         0.0600 
    233 H233       -3.7366  -20.6165  -58.6305 H         1 UNK         0.0600 
    234 H234       -4.3933  -21.6705  -57.3872 H         1 UNK         0.0600 
    235 H235       -2.3433  -18.5499  -55.4383 H         1 UNK         0.3000 
    236 H236       -1.4194  -16.5890  -57.3821 H         1 UNK         0.0600 
    237 H237        0.1379  -17.7434  -55.8007 H         1 UNK         0.0600 
    238 H238        0.1866  -15.9976  -55.5990 H         1 UNK         0.0600 
    239 H239       -0.6835  -16.9875  -54.4365 H         1 UNK         0.0600 
    240 H240       -3.5957  -16.6094  -54.5798 H         1 UNK         0.3000 
    241 H241       -3.8436  -13.6997  -54.4340 H         1 UNK         0.0600 
    242 H242       -6.9108  -15.3898  -56.6582 H         1 UNK         0.3800 
    243 H243       -5.8888  -16.4394  -55.6980 H         1 UNK         0.3800 
    244 H244       -5.5474  -15.8394  -53.0710 H         1 UNK         0.0800 
    245 H245       -5.6118  -14.1213  -52.7585 H         1 UNK         0.0800 
    246 H246       -5.6031  -15.8527  -50.5802 H         1 UNK         0.0800 
    247 H247       -4.9545  -14.3738  -49.9080 H         1 UNK         0.0800 
@<TRIPOS>BOND
     1    1    2 1    
     2    1  127 1    
     3    1  128 1    
     4    1  129 1    
     5    2    3 2    
     6    2    4 am   BACKBONE|DICT|INTERRES
     7    4    5 1    
     8    4  130 1    
     9    5    6 1    
    10    5   65 1    
    11    5  131 1    
    12    6    7 1    
    13    6  132 1    
    14    6  133 1    
    15    7    8 1    
    16    8    9 1    
    17    8  134 1    
    18    8  135 1    
    19    9   10 ar   
    20    9   14 ar   
    21   10   11 ar   
    22   10  136 1    
    23   11   12 ar   
    24   11  126 1    
    25   12   13 ar   
    26   12  137 1    
    27   13   14 ar   
    28   13   15 1    
    29   14  138 1    
    30   15   16 1    
    31   15  139 1    
    32   15  140 1    
    33   16   17 1    
    34   17   18 1    
    35   17  141 1    
    36   17  142 1    
    37   18   19 1    
    38   18   67 1    
    39   18  143 1    
    40   19   20 am   BACKBONE|DICT|INTERRES
    41   19  144 1    
    42   20   21 2    
    43   20   22 1    
    44   22   23 1    
    45   22   24 1    
    46   22  145 1    
    47   23  146 1    
    48   23  147 1    
    49   23  148 1    
    50   24   25 am   BACKBONE|DICT|INTERRES
    51   24  149 1    
    52   25   26 2    
    53   25   27 1    
    54   27   28 1    
    55   27   29 1    
    56   27  150 1    
    57   28  151 1    
    58   28  152 1    
    59   28  153 1    
    60   29   30 am   BACKBONE|DICT|INTERRES
    61   29  154 1    
    62   30   31 2    
    63   30   32 1    
    64   32   33 1    
    65   32   34 1    
    66   32  155 1    
    67   33  156 1    
    68   33  157 1    
    69   33  158 1    
    70   34   35 am   BACKBONE|DICT|INTERRES
    71   34  159 1    
    72   35   36 2    
    73   35   37 1    
    74   37   38 1    
    75   37   39 1    
    76   37  160 1    
    77   38  161 1    
    78   38  162 1    
    79   38  163 1    
    80   39   40 am   BACKBONE|DICT|INTERRES
    81   39  164 1    
    82   40   41 2    
    83   40   42 1    
    84   42   43 1    
    85   42   44 1    
    86   42  165 1    
    87   43  166 1    
    88   43  167 1    
    89   43  168 1    
    90   44   45 am   BACKBONE|DICT|INTERRES
    91   44  169 1    
    92   45   46 2    
    93   45   47 1    
    94   47   48 1    
    95   47   49 1    
    96   47  170 1    
    97   48  171 1    
    98   48  172 1    
    99   48  173 1    
   100   49   50 am   BACKBONE|DICT|INTERRES
   101   49  174 1    
   102   50   51 2    
   103   50   52 1    
   104   52   53 1    
   105   52   54 1    
   106   52  175 1    
   107   53  176 1    
   108   53  177 1    
   109   53  178 1    
   110   54   55 am   BACKBONE|DICT|INTERRES
   111   54  179 1    
   112   55   56 2    
   113   55   57 1    
   114   57   58 1    
   115   57   59 1    
   116   57  180 1    
   117   58  181 1    
   118   58  182 1    
   119   58  183 1    
   120   59   60 am   BACKBONE|DICT|INTERRES
   121   59  184 1    
   122   60   61 2    
   123   60   62 1    
   124   62   63 1    
   125   62   64 1    
   126   62  185 1    
   127   63  186 1    
   128   63  187 1    
   129   63  188 1    
   130   64   65 am   BACKBONE|DICT|INTERRES
   131   64  189 1    
   132   65   66 2    
   133   67   68 2    
   134   67   69 am   BACKBONE|DICT|INTERRES
   135   69   70 1    
   136   69  190 1    
   137   70   71 1    
   138   70   72 1    
   139   70  191 1    
   140   71  192 1    
   141   71  193 1    
   142   71  194 1    
   143   72   73 2    
   144   72   74 am   BACKBONE|DICT|INTERRES
   145   74   75 1    
   146   74  195 1    
   147   75   76 1    
   148   75   77 1    
   149   75  196 1    
   150   76  197 1    
   151   76  198 1    
   152   76  199 1    
   153   77   78 2    
   154   77   79 am   BACKBONE|DICT|INTERRES
   155   79   80 1    
   156   79  200 1    
   157   80   81 1    
   158   80   82 1    
   159   80  201 1    
   160   81  202 1    
   161   81  203 1    
   162   81  204 1    
   163   82   83 2    
   164   82   84 am   BACKBONE|DICT|INTERRES
   165   84   85 1    
   166   84  205 1    
   167   85   86 1    
   168   85   87 1    
   169   85  206 1    
   170   86  207 1    
   171   86  208 1    
   172   86  209 1    
   173   87   88 2    
   174   87   89 am   BACKBONE|DICT|INTERRES
   175   89   90 1    
   176   89  210 1    
   177   90   91 1    
   178   90   92 1    
   179   90  211 1    
   180   91  212 1    
   181   91  213 1    
   182   91  214 1    
   183   92   93 2    
   184   92   94 am   BACKBONE|DICT|INTERRES
   185   94   95 1    
   186   94  215 1    
   187   95   96 1    
   188   95   97 1    
   189   95  216 1    
   190   96  217 1    
   191   96  218 1    
   192   96  219 1    
   193   97   98 2    
   194   97   99 am   BACKBONE|DICT|INTERRES
   195   99  100 1    
   196   99  220 1    
   197  100  101 1    
   198  100  102 1    
   199  100  221 1    
   200  101  222 1    
   201  101  223 1    
   202  101  224 1    
   203  102  103 2    
   204  102  104 am   BACKBONE|DICT|INTERRES
   205  104  105 1    
   206  104  225 1    
   207  105  106 1    
   208  105  107 1    
   209  105  226 1    
   210  106  227 1    
   211  106  228 1    
   212  106  229 1    
   213  107  108 2    
   214  107  109 am   BACKBONE|DICT|INTERRES
   215  109  110 1    
   216  109  230 1    
   217  110  111 1    
   218  110  112 1    
   219  110  231 1    
   220  111  232 1    
   221  111  233 1    
   222  111  234 1    
   223  112  113 2    
   224  112  114 am   BACKBONE|DICT|INTERRES
   225  114  115 1    
   226  114  235 1    
   227  115  116 1    
   228  115  117 1    
   229  115  236 1    
   230  116  237 1    
   231  116  238 1    
   232  116  239 1    
   233  117  118 2    
   234  117  119 am   BACKBONE|DICT|INTERRES
   235  119  120 1    
   236  119  240 1    
   237  120  121 1    
   238  120  124 1    
   239  120  241 1    
   240  121  122 am   BACKBONE|DICT|INTERRES
   241  121  123 2    
   242  122  242 1    
   243  122  243 1    
   244  124  125 1    
   245  124  244 1    
   246  124  245 1    
   247  125  126 1    
   248  126  246 1    
   249  126  247 1    
@<TRIPOS>SUBSTRUCTURE
     1 UNK         1 GROUP             0       ****    0 ROOT    
