@<TRIPOS>MOLECULE
3R540
247   249    1
SMALL
USER_CHARGES


@<TRIPOS>ATOM
      1 CA          6.6986  -11.8964  -48.4329 C.3       0 UNK        -0.1800 
      2 C           6.0051  -13.2386  -48.6158 C.2       0 UNK         0.5000 
      3 O           4.7812  -13.2787  -48.7175 O.2       0 UNK        -0.5000 
      4 N           6.7847  -14.3295  -48.6187 N.am      1 UNK        -0.5000 
      5 CA          6.4110  -15.7344  -48.8683 C.3       1 UNK         0.1400 
      6 C6          6.1959  -16.0585  -50.3782 C.3       23 UNK        -0.0398 
      7 S7          4.5808  -15.5740  -51.0936 S.3       23 UNK        -0.2404 
      8 C8          3.7886  -17.1901  -51.3900 C.3       23 UNK        -0.0205 
      9 C9          2.3028  -17.1446  -51.0696 C.ar      23 UNK        -0.0193 
     10 C10         1.3856  -16.6910  -52.0223 C.ar      23 UNK        -0.1150 
     11 C11         0.0209  -16.6362  -51.7222 C.ar      23 UNK        -0.0193 
     12 C12        -0.4207  -17.0345  -50.4573 C.ar      23 UNK        -0.1150 
     13 C13         0.4821  -17.5101  -49.5045 C.ar      23 UNK        -0.0193 
     14 C14         1.8423  -17.5594  -49.8164 C.ar      23 UNK        -0.1150 
     15 C15        -0.0118  -17.9549  -48.1354 C.3       23 UNK        -0.0205 
     16 S16        -0.9476  -19.5145  -48.2119 S.3       23 UNK        -0.2404 
     17 C17         0.3561  -20.7085  -48.6691 C.3       23 UNK        -0.0398 
     18 CA          0.5398  -21.9138  -47.7139 C.3       11 UNK         0.1400 
     19 N           0.9461  -21.5539  -46.3508 N.am      11 UNK        -0.5000 
     20 C           1.7186  -22.3441  -45.5868 C.2       10 UNK         0.5000 
     21 O           2.1876  -23.4157  -45.9722 O.2       10 UNK        -0.5000 
     22 CA          2.0081  -21.8815  -44.1469 C.3       10 UNK         0.1400 
     23 CB          3.1148  -20.8175  -44.1350 C.3       10 UNK        -0.1800 
     24 N           0.8262  -21.3601  -43.4650 N.am      10 UNK        -0.5000 
     25 C          -0.2585  -22.0844  -43.1471 C.2       9 UNK         0.5000 
     26 O          -0.3591  -23.2939  -43.3583 O.2       9 UNK        -0.5000 
     27 CA         -1.4499  -21.3194  -42.5264 C.3       9 UNK         0.1400 
     28 CB         -1.3646  -21.3457  -40.9931 C.3       9 UNK        -0.1800 
     29 N          -1.5428  -19.9282  -42.9754 N.am      9 UNK        -0.5000 
     30 C          -1.6237  -19.5414  -44.2556 C.2       8 UNK         0.5000 
     31 O          -1.7793  -20.3321  -45.1848 O.2       8 UNK        -0.5000 
     32 CA         -1.4296  -18.0464  -44.5704 C.3       8 UNK         0.1400 
     33 CB         -2.7528  -17.4134  -45.0285 C.3       8 UNK        -0.1800 
     34 N          -0.8521  -17.2331  -43.4957 N.am      8 UNK        -0.5000 
     35 C           0.3299  -17.4138  -42.8872 C.2       7 UNK         0.5000 
     36 O           1.0469  -18.3988  -43.0699 O.2       7 UNK        -0.5000 
     37 CA          0.7809  -16.3315  -41.8869 C.3       7 UNK         0.1400 
     38 CB          1.9122  -15.4786  -42.4812 C.3       7 UNK        -0.1800 
     39 N          -0.3086  -15.4333  -41.4982 N.am      7 UNK        -0.5000 
     40 C          -0.9601  -15.4724  -40.3285 C.2       6 UNK         0.5000 
     41 O          -0.7543  -16.3228  -39.4619 O.2       6 UNK        -0.5000 
     42 CA         -2.0000  -14.3651  -40.0601 C.3       6 UNK         0.1400 
     43 CB         -1.3983  -13.2807  -39.1527 C.3       6 UNK        -0.1800 
     44 N          -2.4991  -13.7291  -41.2805 N.am      6 UNK        -0.5000 
     45 C          -3.4373  -14.2547  -42.0780 C.2       5 UNK         0.5000 
     46 O          -4.0078  -15.3217  -41.8511 O.2       5 UNK        -0.5000 
     47 CA         -3.7763  -13.4697  -43.3619 C.3       5 UNK         0.1400 
     48 CB         -4.9251  -12.4847  -43.0988 C.3       5 UNK        -0.1800 
     49 N          -2.6490  -12.7442  -43.9652 N.am      5 UNK        -0.5000 
     50 C          -1.5005  -13.3080  -44.3589 C.2       4 UNK         0.5000 
     51 O          -1.2051  -14.4793  -44.1241 O.2       4 UNK        -0.5000 
     52 CA         -0.5004  -12.4290  -45.1158 C.3       4 UNK         0.1400 
     53 CB          0.4981  -11.7745  -44.1479 C.3       4 UNK        -0.1800 
     54 N           0.2159  -13.2887  -46.0512 N.am      4 UNK        -0.5000 
     55 C           0.6184  -12.9551  -47.2794 C.2       3 UNK         0.5000 
     56 O           0.5153  -11.8159  -47.7389 O.2       3 UNK        -0.5000 
     57 CA          1.2401  -14.0882  -48.1241 C.3       3 UNK         0.1400 
     58 CB          1.5430  -13.6455  -49.5660 C.3       3 UNK        -0.1800 
     59 N           2.4625  -14.6174  -47.5136 N.am      3 UNK        -0.5000 
     60 C           2.4991  -15.4873  -46.4928 C.2       2 UNK         0.5000 
     61 O           1.4807  -15.9513  -45.9782 O.2       2 UNK        -0.5000 
     62 CA          3.8810  -15.8660  -45.9144 C.3       2 UNK         0.1400 
     63 CB          3.9128  -17.2946  -45.3279 C.3       2 UNK        -0.1800 
     64 N           4.9906  -15.6212  -46.8448 N.am      2 UNK        -0.5000 
     65 C           5.3229  -16.3279  -47.9361 C.2       1 UNK         0.5000 
     66 O           4.8372  -17.4238  -48.2117 O.2       1 UNK        -0.5000 
     67 C          -0.6644  -22.8738  -47.7122 C.2       11 UNK         0.5000 
     68 O          -0.7230  -23.7454  -48.5792 O.2       11 UNK        -0.5000 
     69 N          -1.5659  -22.7578  -46.7221 N.am      12 UNK        -0.5000 
     70 CA         -2.7177  -23.6461  -46.5176 C.3       12 UNK         0.1400 
     71 CB         -3.4968  -23.2160  -45.2656 C.3       12 UNK        -0.1800 
     72 C          -2.3316  -25.1298  -46.3923 C.2       12 UNK         0.5000 
     73 O          -3.0441  -25.9873  -46.9111 O.2       12 UNK        -0.5000 
     74 N          -1.1861  -25.3974  -45.7518 N.am      13 UNK        -0.5000 
     75 CA         -0.6057  -26.7301  -45.5877 C.3       13 UNK         0.1400 
     76 CB          0.6015  -26.6246  -44.6430 C.3       13 UNK        -0.1800 
     77 C          -0.1962  -27.4138  -46.9106 C.2       13 UNK         0.5000 
     78 O          -0.1046  -28.6418  -46.9402 O.2       13 UNK        -0.5000 
     79 N           0.0464  -26.6248  -47.9667 N.am      14 UNK        -0.5000 
     80 CA          0.4514  -27.1016  -49.2884 C.3       14 UNK         0.1400 
     81 CB          1.6892  -26.3092  -49.7445 C.3       14 UNK        -0.1800 
     82 C          -0.6862  -26.9613  -50.3149 C.2       14 UNK         0.5000 
     83 O          -0.9547  -27.9071  -51.0582 O.2       14 UNK        -0.5000 
     84 N          -1.3196  -25.7811  -50.3562 N.am      15 UNK        -0.5000 
     85 CA         -2.2995  -25.3975  -51.3737 C.3       15 UNK         0.1400 
     86 CB         -2.2556  -23.8681  -51.5413 C.3       15 UNK        -0.1800 
     87 C          -3.7356  -25.8484  -51.0583 C.2       15 UNK         0.5000 
     88 O          -4.5778  -25.8029  -51.9561 O.2       15 UNK        -0.5000 
     89 N          -4.0126  -26.2178  -49.7973 N.am      16 UNK        -0.5000 
     90 CA         -5.3123  -26.5809  -49.2085 C.3       16 UNK         0.1400 
     91 CB         -5.9556  -27.7840  -49.9255 C.3       16 UNK        -0.1800 
     92 C          -6.2917  -25.3942  -49.0998 C.2       16 UNK         0.5000 
     93 O          -6.8343  -25.1476  -48.0225 O.2       16 UNK        -0.5000 
     94 N          -6.4745  -24.6625  -50.2050 N.am      17 UNK        -0.5000 
     95 CA         -7.2936  -23.4535  -50.3097 C.3       17 UNK         0.1400 
     96 CB         -7.7302  -23.2917  -51.7749 C.3       17 UNK        -0.1800 
     97 C          -6.5682  -22.1848  -49.8135 C.2       17 UNK         0.5000 
     98 O          -7.2024  -21.1344  -49.7080 O.2       17 UNK        -0.5000 
     99 N          -5.2606  -22.2941  -49.5302 N.am      18 UNK        -0.5000 
    100 CA        -4.3606  -21.2201  -49.0984 C.3       18 UNK         0.1400 
    101 CB        -4.7723  -20.6967  -47.7031 C.3       18 UNK        -0.1800 
    102 C         -4.2504  -20.1237  -50.1775 C.2       18 UNK         0.5000 
    103 O         -4.0770  -20.4530  -51.3518 O.2       18 UNK        -0.5000 
    104 N         -4.3774  -18.8507  -49.7813 N.am      19 UNK        -0.5000 
    105 CA        -4.2813  -17.6787  -50.6533 C.3       19 UNK         0.1400 
    106 CB        -4.3044  -16.4099  -49.7872 C.3       19 UNK        -0.1800 
    107 C         -5.3494  -17.6042  -51.7612 C.2       19 UNK         0.5000 
    108 O         -5.1290  -16.9095  -52.7525 O.2       19 UNK        -0.5000 
    109 N         -6.4618  -18.3400  -51.6170 N.am      20 UNK        -0.5000 
    110 CA        -7.4895  -18.4722  -52.6528 C.3       20 UNK         0.1400 
    111 CB        -8.7433  -19.1275  -52.0575 C.3       20 UNK        -0.1800 
    112 C         -7.0006  -19.2418  -53.8981 C.2       20 UNK         0.5000 
    113 O         -7.5520  -19.0393  -54.9807 O.2       20 UNK        -0.5000 
    114 N         -5.9524  -20.0687  -53.7489 N.am      21 UNK        -0.5000 
    115 CA        -5.2831  -20.7569  -54.8566 C.3       21 UNK         0.1400 
    116 CB        -4.3833  -21.8703  -54.2987 C.3       21 UNK        -0.1800 
    117 C         -4.4616  -19.8057  -55.7519 C.2       21 UNK         0.5000 
    118 O         -4.1646  -20.1635  -56.8925 O.2       21 UNK        -0.5000 
    119 N         -4.1141  -18.6195  -55.2334 N.am      22 UNK        -0.5000 
    120 CA        -3.3774  -17.5676  -55.9527 C.3       22 UNK         0.1400 
    121 C         -4.2508  -16.7459  -56.9480 C.2       22 UNK         0.5000 
    122 N         -5.5669  -16.9227  -56.9933 N.am      22 UNK        -0.7600 
    123 O         -3.7213  -15.9359  -57.7041 O.2       22 UNK        -0.5000 
    124 C124       -2.6119  -16.6262  -54.9849 C.3       23 UNK        -0.0398 
    125 S125       -1.4994  -17.5167  -53.8451 S.3       23 UNK        -0.2404 
    126 C126       -0.9739  -16.1517  -52.7645 C.3       23 UNK        -0.0205 
    127 H127        7.7786  -12.0062  -48.3326 H         1 UNK         0.0600 
    128 H128        6.5004  -11.2541  -49.2909 H         1 UNK         0.0600 
    129 H129        6.3223  -11.3984  -47.5393 H         1 UNK         0.0600 
    130 H130        7.7768  -14.1906  -48.4833 H         1 UNK         0.3000 
    131 H131        7.3096  -16.2825  -48.5811 H         1 UNK         0.0600 
    132 H132        6.3545  -17.1247  -50.5443 H         1 UNK         0.0800 
    133 H133        6.9737  -15.5695  -50.9658 H         1 UNK         0.0800 
    134 H134        4.2611  -17.9675  -50.7888 H         1 UNK         0.0800 
    135 H135        3.9399  -17.4776  -52.4313 H         1 UNK         0.0800 
    136 H136        1.7346  -16.3776  -52.9961 H         1 UNK         0.1150 
    137 H137       -1.4686  -16.9876  -50.2099 H         1 UNK         0.1150 
    138 H138        2.5439  -17.9170  -49.0779 H         1 UNK         0.1150 
    139 H139        0.8214  -18.0734  -47.4411 H         1 UNK         0.0800 
    140 H140       -0.6518  -17.1766  -47.7175 H         1 UNK         0.0800 
    141 H141        1.3095  -20.1861  -48.7502 H         1 UNK         0.0800 
    142 H142        0.1389  -21.0630  -49.6787 H         1 UNK         0.0800 
    143 H143        1.3584  -22.4889  -48.1538 H         1 UNK         0.0600 
    144 H144        0.5426  -20.7141  -45.9601 H         1 UNK         0.3000 
    145 H145        2.3632  -22.7472  -43.5836 H         1 UNK         0.0600 
    146 H146        3.3749  -20.5281  -43.1164 H         1 UNK         0.0600 
    147 H147        4.0229  -21.1890  -44.6119 H         1 UNK         0.0600 
    148 H148        2.8064  -19.9184  -44.6685 H         1 UNK         0.0600 
    149 H149        0.8247  -20.3633  -43.2658 H         1 UNK         0.3000 
    150 H150       -2.3685  -21.8248  -42.8265 H         1 UNK         0.0600 
    151 H151       -1.3177  -22.3706  -40.6224 H         1 UNK         0.0600 
    152 H152       -2.2391  -20.8771  -40.5406 H         1 UNK         0.0600 
    153 H153       -0.4775  -20.8239  -40.6309 H         1 UNK         0.0600 
    154 H154       -1.3987  -19.2136  -42.2774 H         1 UNK         0.3000 
    155 H155       -0.7261  -17.9991  -45.4016 H         1 UNK         0.0600 
    156 H156       -3.4718  -17.3519  -44.2107 H         1 UNK         0.0600 
    157 H157       -3.2105  -17.9949  -45.8302 H         1 UNK         0.0600 
    158 H158       -2.5950  -16.4066  -45.4149 H         1 UNK         0.0600 
    159 H159       -1.3099  -16.3434  -43.3396 H         1 UNK         0.3000 
    160 H160        1.1764  -16.8462  -41.0089 H         1 UNK         0.0600 
    161 H161        2.2166  -14.6911  -41.7918 H         1 UNK         0.0600 
    162 H162        1.6106  -15.0060  -43.4163 H         1 UNK         0.0600 
    163 H163        2.7941  -16.0858  -42.6813 H         1 UNK         0.0600 
    164 H164       -0.5870  -14.7497  -42.1919 H         1 UNK         0.3000 
    165 H165       -2.8391  -14.8221  -39.5308 H         1 UNK         0.0600 
    166 H166       -2.1395  -12.5223  -38.8998 H         1 UNK         0.0600 
    167 H167       -1.0411  -13.7087  -38.2152 H         1 UNK         0.0600 
    168 H168       -0.5533  -12.7810  -39.6282 H         1 UNK         0.0600 
    169 H169       -2.0834  -12.8471  -41.5416 H         1 UNK         0.3000 
    170 H170       -4.1189  -14.1992  -44.0985 H         1 UNK         0.0600 
    171 H171       -5.7891  -12.9955  -42.6714 H         1 UNK         0.0600 
    172 H172       -4.6297  -11.7002  -42.4014 H         1 UNK         0.0600 
    173 H173       -5.2560  -12.0079  -44.0214 H         1 UNK         0.0600 
    174 H174       -2.8073  -11.7681  -44.1698 H         1 UNK         0.3000 
    175 H175       -1.0511  -11.6578  -45.6584 H         1 UNK         0.0600 
    176 H176        1.0557  -12.5196  -43.5792 H         1 UNK         0.0600 
    177 H177        1.2185  -11.1575  -44.6852 H         1 UNK         0.0600 
    178 H178       -0.0142  -11.1294  -43.4333 H         1 UNK         0.0600 
    179 H179        0.3170  -14.2552  -45.7504 H         1 UNK         0.3000 
    180 H180        0.5007  -14.8889  -48.1808 H         1 UNK         0.0600 
    181 H181        2.2626  -12.8271  -49.5966 H         1 UNK         0.0600 
    182 H182        0.6370  -13.3094  -50.0710 H         1 UNK         0.0600 
    183 H183        1.9503  -14.4675  -50.1510 H         1 UNK         0.0600 
    184 H184        3.3345  -14.2500  -47.8861 H         1 UNK         0.3000 
    185 H185        4.0429  -15.1788  -45.0830 H         1 UNK         0.0600 
    186 H186        3.2051  -17.3981  -44.5070 H         1 UNK         0.0600 
    187 H187        3.6388  -18.0460  -46.0678 H         1 UNK         0.0600 
    188 H188        4.8996  -17.5445  -44.9391 H         1 UNK         0.0600 
    189 H189        5.4695  -14.7406  -46.7187 H         1 UNK         0.3000 
    190 H190       -1.4872  -21.9693  -46.0839 H         1 UNK         0.3000 
    191 H191       -3.3699  -23.5423  -47.3860 H         1 UNK         0.0600 
    192 H192       -2.9519  -23.4596  -44.3541 H         1 UNK         0.0600 
    193 H193       -4.4574  -23.7300  -45.2149 H         1 UNK         0.0600 
    194 H194       -3.6986  -22.1463  -45.2547 H         1 UNK         0.0600 
    195 H195       -0.6804  -24.6282  -45.3308 H         1 UNK         0.3000 
    196 H196       -1.3583  -27.3633  -45.1133 H         1 UNK         0.0600 
    197 H197        1.0423  -27.6051  -44.4583 H         1 UNK         0.0600 
    198 H198        0.3119  -26.2110  -43.6763 H         1 UNK         0.0600 
    199 H199        1.3817  -25.9858  -45.0597 H         1 UNK         0.0600 
    200 H200       -0.0923  -25.6266  -47.8693 H         1 UNK         0.3000 
    201 H201        0.7310  -28.1577  -49.2489 H         1 UNK         0.0600 
    202 H202        2.5274  -26.4637  -49.0630 H         1 UNK         0.0600 
    203 H203        1.4914  -25.2361  -49.7908 H         1 UNK         0.0600 
    204 H204        2.0139  -26.6285  -50.7359 H         1 UNK         0.0600 
    205 H205       -1.0448  -25.0458  -49.7049 H         1 UNK         0.3000 
    206 H206       -2.0186  -25.8491  -52.3285 H         1 UNK         0.0600 
    207 H207       -1.2587  -23.5310  -51.8256 H         1 UNK         0.0600 
    208 H208       -2.9433  -23.5369  -52.3211 H         1 UNK         0.0600 
    209 H209       -2.5317  -23.3516  -50.6208 H         1 UNK         0.0600 
    210 H210       -3.2520  -26.1945  -49.1285 H         1 UNK         0.3000 
    211 H211       -5.0990  -26.9024  -48.1884 H         1 UNK         0.0600 
    212 H212       -6.2547  -27.5468  -50.9469 H         1 UNK         0.0600 
    213 H213       -6.8501  -28.1146  -49.3964 H         1 UNK         0.0600 
    214 H214       -5.2700  -28.6308  -49.9648 H         1 UNK         0.0600 
    215 H215       -5.9728  -24.9543  -51.0409 H         1 UNK         0.3000 
    216 H216       -8.1893  -23.5796  -49.6977 H         1 UNK         0.0600 
    217 H217       -8.4238  -22.4587  -51.8891 H         1 UNK         0.0600 
    218 H218       -8.2411  -24.1847  -52.1351 H         1 UNK         0.0600 
    219 H219       -6.8793  -23.1051  -52.4305 H         1 UNK         0.0600 
    220 H220       -4.8325  -23.1922  -49.6920 H         1 UNK         0.3000 
    221 H221       -3.3677  -21.6620  -49.0093 H         1 UNK         0.0600 
    222 H222       -5.6720  -20.0814  -47.7375 H         1 UNK         0.0600 
    223 H223       -4.9840  -21.5232  -47.0278 H         1 UNK         0.0600 
    224 H224       -3.9741  -20.1054  -47.2520 H         1 UNK         0.0600 
    225 H225       -4.5355  -18.6690  -48.8012 H         1 UNK         0.3000 
    226 H226       -3.3198  -17.7362  -51.1648 H         1 UNK         0.0600 
    227 H227       -5.2536  -16.3018  -49.2608 H         1 UNK         0.0600 
    228 H228       -3.5081  -16.4210  -49.0425 H         1 UNK         0.0600 
    229 H229       -4.1639  -15.5175  -50.3986 H         1 UNK         0.0600 
    230 H230       -6.5700  -18.9111  -50.7893 H         1 UNK         0.3000 
    231 H231       -7.7635  -17.4673  -52.9813 H         1 UNK         0.0600 
    232 H232       -9.1172  -18.5638  -51.2026 H         1 UNK         0.0600 
    233 H233       -8.5463  -20.1457  -51.7280 H         1 UNK         0.0600 
    234 H234       -9.5465  -19.1727  -52.7941 H         1 UNK         0.0600 
    235 H235       -5.5184  -20.1628  -52.8365 H         1 UNK         0.3000 
    236 H236       -6.0491  -21.2214  -55.4812 H         1 UNK         0.0600 
    237 H237       -3.9624  -22.4710  -55.1059 H         1 UNK         0.0600 
    238 H238       -3.5475  -21.4629  -53.7290 H         1 UNK         0.0600 
    239 H239       -4.9371  -22.5455  -53.6477 H         1 UNK         0.0600 
    240 H240       -4.4096  -18.3842  -54.2952 H         1 UNK         0.3000 
    241 H241       -2.6252  -18.0635  -56.5691 H         1 UNK         0.0600 
    242 H242       -6.1165  -16.3868  -57.6466 H         1 UNK         0.3800 
    243 H243       -6.0201  -17.5880  -56.3847 H         1 UNK         0.3800 
    244 H244       -2.0062  -15.9151  -55.5495 H         1 UNK         0.0800 
    245 H245       -3.3132  -16.0300  -54.3998 H         1 UNK         0.0800 
    246 H246       -0.5245  -15.3606  -53.3669 H         1 UNK         0.0800 
    247 H247       -1.8481  -15.7148  -52.2787 H         1 UNK         0.0800 
@<TRIPOS>BOND
     1    1    2 1    
     2    1  127 1    
     3    1  128 1    
     4    1  129 1    
     5    2    3 2    
     6    2    4 am   BACKBONE|DICT|INTERRES
     7    4    5 1    
     8    4  130 1    
     9    5    6 1    
    10    5   65 1    
    11    5  131 1    
    12    6    7 1    
    13    6  132 1    
    14    6  133 1    
    15    7    8 1    
    16    8    9 1    
    17    8  134 1    
    18    8  135 1    
    19    9   10 ar   
    20    9   14 ar   
    21   10   11 ar   
    22   10  136 1    
    23   11   12 ar   
    24   11  126 1    
    25   12   13 ar   
    26   12  137 1    
    27   13   14 ar   
    28   13   15 1    
    29   14  138 1    
    30   15   16 1    
    31   15  139 1    
    32   15  140 1    
    33   16   17 1    
    34   17   18 1    
    35   17  141 1    
    36   17  142 1    
    37   18   19 1    
    38   18   67 1    
    39   18  143 1    
    40   19   20 am   BACKBONE|DICT|INTERRES
    41   19  144 1    
    42   20   21 2    
    43   20   22 1    
    44   22   23 1    
    45   22   24 1    
    46   22  145 1    
    47   23  146 1    
    48   23  147 1    
    49   23  148 1    
    50   24   25 am   BACKBONE|DICT|INTERRES
    51   24  149 1    
    52   25   26 2    
    53   25   27 1    
    54   27   28 1    
    55   27   29 1    
    56   27  150 1    
    57   28  151 1    
    58   28  152 1    
    59   28  153 1    
    60   29   30 am   BACKBONE|DICT|INTERRES
    61   29  154 1    
    62   30   31 2    
    63   30   32 1    
    64   32   33 1    
    65   32   34 1    
    66   32  155 1    
    67   33  156 1    
    68   33  157 1    
    69   33  158 1    
    70   34   35 am   BACKBONE|DICT|INTERRES
    71   34  159 1    
    72   35   36 2    
    73   35   37 1    
    74   37   38 1    
    75   37   39 1    
    76   37  160 1    
    77   38  161 1    
    78   38  162 1    
    79   38  163 1    
    80   39   40 am   BACKBONE|DICT|INTERRES
    81   39  164 1    
    82   40   41 2    
    83   40   42 1    
    84   42   43 1    
    85   42   44 1    
    86   42  165 1    
    87   43  166 1    
    88   43  167 1    
    89   43  168 1    
    90   44   45 am   BACKBONE|DICT|INTERRES
    91   44  169 1    
    92   45   46 2    
    93   45   47 1    
    94   47   48 1    
    95   47   49 1    
    96   47  170 1    
    97   48  171 1    
    98   48  172 1    
    99   48  173 1    
   100   49   50 am   BACKBONE|DICT|INTERRES
   101   49  174 1    
   102   50   51 2    
   103   50   52 1    
   104   52   53 1    
   105   52   54 1    
   106   52  175 1    
   107   53  176 1    
   108   53  177 1    
   109   53  178 1    
   110   54   55 am   BACKBONE|DICT|INTERRES
   111   54  179 1    
   112   55   56 2    
   113   55   57 1    
   114   57   58 1    
   115   57   59 1    
   116   57  180 1    
   117   58  181 1    
   118   58  182 1    
   119   58  183 1    
   120   59   60 am   BACKBONE|DICT|INTERRES
   121   59  184 1    
   122   60   61 2    
   123   60   62 1    
   124   62   63 1    
   125   62   64 1    
   126   62  185 1    
   127   63  186 1    
   128   63  187 1    
   129   63  188 1    
   130   64   65 am   BACKBONE|DICT|INTERRES
   131   64  189 1    
   132   65   66 2    
   133   67   68 2    
   134   67   69 am   BACKBONE|DICT|INTERRES
   135   69   70 1    
   136   69  190 1    
   137   70   71 1    
   138   70   72 1    
   139   70  191 1    
   140   71  192 1    
   141   71  193 1    
   142   71  194 1    
   143   72   73 2    
   144   72   74 am   BACKBONE|DICT|INTERRES
   145   74   75 1    
   146   74  195 1    
   147   75   76 1    
   148   75   77 1    
   149   75  196 1    
   150   76  197 1    
   151   76  198 1    
   152   76  199 1    
   153   77   78 2    
   154   77   79 am   BACKBONE|DICT|INTERRES
   155   79   80 1    
   156   79  200 1    
   157   80   81 1    
   158   80   82 1    
   159   80  201 1    
   160   81  202 1    
   161   81  203 1    
   162   81  204 1    
   163   82   83 2    
   164   82   84 am   BACKBONE|DICT|INTERRES
   165   84   85 1    
   166   84  205 1    
   167   85   86 1    
   168   85   87 1    
   169   85  206 1    
   170   86  207 1    
   171   86  208 1    
   172   86  209 1    
   173   87   88 2    
   174   87   89 am   BACKBONE|DICT|INTERRES
   175   89   90 1    
   176   89  210 1    
   177   90   91 1    
   178   90   92 1    
   179   90  211 1    
   180   91  212 1    
   181   91  213 1    
   182   91  214 1    
   183   92   93 2    
   184   92   94 am   BACKBONE|DICT|INTERRES
   185   94   95 1    
   186   94  215 1    
   187   95   96 1    
   188   95   97 1    
   189   95  216 1    
   190   96  217 1    
   191   96  218 1    
   192   96  219 1    
   193   97   98 2    
   194   97   99 am   BACKBONE|DICT|INTERRES
   195   99  100 1    
   196   99  220 1    
   197  100  101 1    
   198  100  102 1    
   199  100  221 1    
   200  101  222 1    
   201  101  223 1    
   202  101  224 1    
   203  102  103 2    
   204  102  104 am   BACKBONE|DICT|INTERRES
   205  104  105 1    
   206  104  225 1    
   207  105  106 1    
   208  105  107 1    
   209  105  226 1    
   210  106  227 1    
   211  106  228 1    
   212  106  229 1    
   213  107  108 2    
   214  107  109 am   BACKBONE|DICT|INTERRES
   215  109  110 1    
   216  109  230 1    
   217  110  111 1    
   218  110  112 1    
   219  110  231 1    
   220  111  232 1    
   221  111  233 1    
   222  111  234 1    
   223  112  113 2    
   224  112  114 am   BACKBONE|DICT|INTERRES
   225  114  115 1    
   226  114  235 1    
   227  115  116 1    
   228  115  117 1    
   229  115  236 1    
   230  116  237 1    
   231  116  238 1    
   232  116  239 1    
   233  117  118 2    
   234  117  119 am   BACKBONE|DICT|INTERRES
   235  119  120 1    
   236  119  240 1    
   237  120  121 1    
   238  120  124 1    
   239  120  241 1    
   240  121  122 am   BACKBONE|DICT|INTERRES
   241  121  123 2    
   242  122  242 1    
   243  122  243 1    
   244  124  125 1    
   245  124  244 1    
   246  124  245 1    
   247  125  126 1    
   248  126  246 1    
   249  126  247 1    
@<TRIPOS>SUBSTRUCTURE
     1 UNK         1 GROUP             0       ****    0 ROOT    
