@<TRIPOS>MOLECULE
3R540
247   249    1
SMALL
USER_CHARGES


@<TRIPOS>ATOM
      1 CA          4.0570   -9.5993  -48.0637 C.3       0 UNK        -0.1800 
      2 C           3.2011  -10.8242  -47.7793 C.2       0 UNK         0.5000 
      3 O           2.6897  -10.9672  -46.6699 O.2       0 UNK        -0.5000 
      4 N           3.0233  -11.6974  -48.7796 N.am      1 UNK        -0.5000 
      5 CA          2.2558  -12.9501  -48.6991 C.3       1 UNK         0.1400 
      6 C6          2.4036  -13.7713  -50.0062 C.3       23 UNK        -0.0398 
      7 S7          2.1692  -15.5635  -49.7595 S.3       23 UNK        -0.2404 
      8 C8          3.7814  -16.2141  -50.2981 C.3       23 UNK        -0.0205 
      9 C9          3.7944  -17.7349  -50.2999 C.ar      23 UNK        -0.0193 
     10 C10         3.0068  -18.4345  -51.2164 C.ar      23 UNK        -0.1150 
     11 C11         2.9948  -19.8306  -51.2237 C.ar      23 UNK        -0.0193 
     12 C12         3.8196  -20.5288  -50.3384 C.ar      23 UNK        -0.1150 
     13 C13         4.6327  -19.8439  -49.4255 C.ar      23 UNK        -0.0193 
     14 C14         4.6029  -18.4449  -49.4071 C.ar      23 UNK        -0.1150 
     15 C15         5.5873  -20.5773  -48.4822 C.3       23 UNK        -0.0205 
     16 S16         5.0422  -22.2410  -47.9655 S.3       23 UNK        -0.2404 
     17 C17         3.5777  -21.8128  -46.9732 C.3       23 UNK        -0.0398 
     18 CA          2.8686  -23.0502  -46.3741 C.3       11 UNK         0.1400 
     19 N           2.0299  -22.6736  -45.2337 N.am      11 UNK        -0.5000 
     20 C           1.4636  -23.5240  -44.3672 C.2       10 UNK         0.5000 
     21 O           1.6217  -24.7441  -44.3993 O.2       10 UNK        -0.5000 
     22 CA          0.5305  -22.9082  -43.3071 C.3       10 UNK         0.1400 
     23 CB          1.3343  -22.3649  -42.1165 C.3       10 UNK        -0.1800 
     24 N          -0.3185  -21.8484  -43.8547 N.am      10 UNK        -0.5000 
     25 C          -1.2690  -22.0492  -44.7787 C.2       9 UNK         0.5000 
     26 O          -1.5686  -23.1585  -45.2192 O.2       9 UNK        -0.5000 
     27 CA         -1.9771  -20.8039  -45.3377 C.3       9 UNK         0.1400 
     28 CB         -3.1104  -20.3541  -44.4055 C.3       9 UNK        -0.1800 
     29 N          -1.0658  -19.6870  -45.5881 N.am      9 UNK        -0.5000 
     30 C          -0.0585  -19.7084  -46.4734 C.2       8 UNK         0.5000 
     31 O           0.1959  -20.6709  -47.1939 O.2       8 UNK        -0.5000 
     32 CA          0.8559  -18.4718  -46.5198 C.3       8 UNK         0.1400 
     33 CB          0.1777  -17.3205  -47.2754 C.3       8 UNK        -0.1800 
     34 N           1.2491  -18.0268  -45.1824 N.am      8 UNK        -0.5000 
     35 C           1.9344  -18.7725  -44.3032 C.2       7 UNK         0.5000 
     36 O           2.3625  -19.8991  -44.5473 O.2       7 UNK        -0.5000 
     37 CA          2.1205  -18.1890  -42.8941 C.3       7 UNK         0.1400 
     38 CB          3.3090  -17.2176  -42.8515 C.3       7 UNK        -0.1800 
     39 N           0.9069  -17.5202  -42.4269 N.am      7 UNK        -0.5000 
     40 C          -0.2214  -18.1620  -42.0905 C.2       6 UNK         0.5000 
     41 O          -0.3382  -19.3877  -42.0949 O.2       6 UNK        -0.5000 
     42 CA         -1.4331  -17.2829  -41.7301 C.3       6 UNK         0.1400 
     43 CB         -1.3583  -16.8279  -40.2652 C.3       6 UNK        -0.1800 
     44 N          -1.5509  -16.1106  -42.5989 N.am      6 UNK        -0.5000 
     45 C          -1.8406  -16.1690  -43.9065 C.2       5 UNK         0.5000 
     46 O          -2.0842  -17.2166  -44.5029 O.2       5 UNK        -0.5000 
     47 CA         -1.8140  -14.8430  -44.6879 C.3       5 UNK         0.1400 
     48 CB         -3.1925  -14.1679  -44.6559 C.3       5 UNK        -0.1800 
     49 N          -0.8034  -13.8967  -44.2125 N.am      5 UNK        -0.5000 
     50 C           0.5194  -14.1083  -44.2126 C.2       4 UNK         0.5000 
     51 O           1.0297  -15.1858  -44.5239 O.2       4 UNK        -0.5000 
     52 CA          1.4089  -12.9185  -43.7920 C.3       4 UNK         0.1400 
     53 CB          2.9029  -13.1760  -44.0561 C.3       4 UNK        -0.1800 
     54 N           1.0238  -11.6852  -44.4776 N.am      4 UNK        -0.5000 
     55 C           0.0226  -10.8686  -44.1268 C.2       3 UNK         0.5000 
     56 O          -0.7023  -11.0602  -43.1500 O.2       3 UNK        -0.5000 
     57 CA         -0.2495   -9.6814  -45.0632 C.3       3 UNK         0.1400 
     58 CB          0.8085   -8.5803  -44.8889 C.3       3 UNK        -0.1800 
     59 N          -0.2796  -10.1228  -46.4571 N.am      3 UNK        -0.5000 
     60 C          -1.3446  -10.6845  -47.0470 C.2       2 UNK         0.5000 
     61 O          -2.4376  -10.8187  -46.4964 O.2       2 UNK        -0.5000 
     62 CA         -1.1669  -11.1774  -48.4964 C.3       2 UNK         0.1400 
     63 CB         -1.5823  -10.0823  -49.4906 C.3       2 UNK        -0.1800 
     64 N           0.2023  -11.5986  -48.7963 N.am      2 UNK        -0.5000 
     65 C           0.7672  -12.7260  -48.3394 C.2       1 UNK         0.5000 
     66 O           0.1731  -13.5484  -47.6433 O.2       1 UNK        -0.5000 
     67 C           2.0716  -23.8345  -47.4411 C.2       11 UNK         0.5000 
     68 O           2.5571  -24.8490  -47.9439 O.2       11 UNK        -0.5000 
     69 N           0.8472  -23.3733  -47.7336 N.am      12 UNK        -0.5000 
     70 CA         -0.1101  -24.0171  -48.6353 C.3       12 UNK         0.1400 
     71 CB         -1.2850  -23.0587  -48.8636 C.3       12 UNK        -0.1800 
     72 C          -0.6324  -25.3698  -48.1113 C.2       12 UNK         0.5000 
     73 O          -1.0353  -26.2139  -48.9135 O.2       12 UNK        -0.5000 
     74 N          -0.6210  -25.5436  -46.7817 N.am      13 UNK        -0.5000 
     75 CA         -0.9944  -26.7392  -46.0274 C.3       13 UNK         0.1400 
     76 CB          0.0511  -27.8556  -46.2437 C.3       13 UNK        -0.1800 
     77 C          -2.4446  -27.1622  -46.3273 C.2       13 UNK         0.5000 
     78 O          -3.3688  -26.4512  -45.9324 O.2       13 UNK        -0.5000 
     79 N          -2.6237  -28.2800  -47.0437 N.am      14 UNK        -0.5000 
     80 CA         -3.9185  -28.8292  -47.4521 C.3       14 UNK         0.1400 
     81 CB         -3.6921  -30.1932  -48.1216 C.3       14 UNK        -0.1800 
     82 C          -4.7350  -27.9037  -48.3768 C.2       14 UNK         0.5000 
     83 O          -5.9639  -27.9848  -48.3687 O.2       14 UNK        -0.5000 
     84 N          -4.0550  -27.0347  -49.1404 N.am      15 UNK        -0.5000 
     85 CA         -4.6936  -26.0240  -49.9872 C.3       15 UNK         0.1400 
     86 CB         -3.7360  -25.6300  -51.1220 C.3       15 UNK        -0.1800 
     87 C          -5.1593  -24.7846  -49.1963 C.2       15 UNK         0.5000 
     88 O          -5.9856  -24.0282  -49.7067 O.2       15 UNK        -0.5000 
     89 N          -4.6184  -24.5875  -47.9811 N.am      16 UNK        -0.5000 
     90 CA         -4.9890  -23.5854  -46.9681 C.3       16 UNK         0.1400 
     91 CB         -6.3608  -23.9500  -46.3664 C.3       16 UNK        -0.1800 
     92 C          -4.9433  -22.1093  -47.4271 C.2       16 UNK         0.5000 
     93 O          -5.5113  -21.2475  -46.7557 O.2       16 UNK        -0.5000 
     94 N          -4.2825  -21.8492  -48.5639 N.am      17 UNK        -0.5000 
     95 CA         -4.2468  -20.5906  -49.3140 C.3       17 UNK         0.1400 
     96 CB         -3.4426  -19.5106  -48.5615 C.3       17 UNK        -0.1800 
     97 C          -5.6505  -20.1215  -49.7634 C.2       17 UNK         0.5000 
     98 O          -5.9203  -18.9198  -49.8141 O.2       17 UNK        -0.5000 
     99 N          -6.5342  -21.0858  -50.0579 N.am      18 UNK        -0.5000 
    100 CA        -7.8926  -20.8458  -50.5306 C.3       18 UNK         0.1400 
    101 CB        -8.7439  -22.0938  -50.2523 C.3       18 UNK        -0.1800 
    102 C         -7.9029  -20.5100  -52.0308 C.2       18 UNK         0.5000 
    103 O         -7.1797  -21.1407  -52.8068 O.2       18 UNK        -0.5000 
    104 N         -8.7617  -19.5550  -52.4123 N.am      19 UNK        -0.5000 
    105 CA        -9.0129  -19.0957  -53.7807 C.3       19 UNK         0.1400 
    106 CB        -9.8137  -20.1646  -54.5599 C.3       19 UNK        -0.1800 
    107 C         -7.7210  -18.6322  -54.4893 C.2       19 UNK         0.5000 
    108 O         -7.1476  -17.6173  -54.0912 O.2       19 UNK        -0.5000 
    109 N         -7.2957  -19.3698  -55.5217 N.am      20 UNK        -0.5000 
    110 CA        -6.1217  -19.0743  -56.3404 C.3       20 UNK         0.1400 
    111 CB        -6.3343  -19.6961  -57.7307 C.3       20 UNK        -0.1800 
    112 C         -4.7914  -19.5615  -55.7311 C.2       20 UNK         0.5000 
    113 O         -3.7379  -19.1949  -56.2548 O.2       20 UNK        -0.5000 
    114 N         -4.8340  -20.3925  -54.6783 N.am      21 UNK        -0.5000 
    115 CA        -3.6385  -20.9278  -54.0262 C.3       21 UNK         0.1400 
    116 CB        -4.0131  -22.1394  -53.1557 C.3       21 UNK        -0.1800 
    117 C         -2.9309  -19.8496  -53.1873 C.2       21 UNK         0.5000 
    118 O         -3.5502  -19.2839  -52.2859 O.2       21 UNK        -0.5000 
    119 N         -1.6449  -19.6205  -53.4792 N.am      22 UNK        -0.5000 
    120 CA        -0.7338  -18.7220  -52.7473 C.3       22 UNK         0.1400 
    121 C         -1.2046  -17.2322  -52.6951 C.2       22 UNK         0.5000 
    122 N         -0.7440  -16.4297  -51.7433 N.am      22 UNK        -0.7600 
    123 O         -1.9388  -16.7646  -53.5628 O.2       22 UNK        -0.5000 
    124 C124       -0.3192  -19.3166  -51.3675 C.3       23 UNK        -0.0398 
    125 S125        0.4650  -20.9645  -51.5042 S.3       23 UNK        -0.2404 
    126 C126        2.1075  -20.5845  -52.2019 C.3       23 UNK        -0.0205 
    127 H127        3.4763   -8.6913  -47.9015 H         1 UNK         0.0600 
    128 H128        4.4254   -9.5903  -49.0897 H         1 UNK         0.0600 
    129 H129        4.9157   -9.5801  -47.3928 H         1 UNK         0.0600 
    130 H130        3.4650  -11.5112  -49.6688 H         1 UNK         0.3000 
    131 H131        2.6979  -13.5228  -47.8806 H         1 UNK         0.0600 
    132 H132        1.7104  -13.4257  -50.7754 H         1 UNK         0.0800 
    133 H133        3.3986  -13.6194  -50.4266 H         1 UNK         0.0800 
    134 H134        4.0011  -15.8569  -51.3053 H         1 UNK         0.0800 
    135 H135        4.5636  -15.8198  -49.6475 H         1 UNK         0.0800 
    136 H136        2.3894  -17.8866  -51.9141 H         1 UNK         0.1150 
    137 H137        3.8268  -21.6087  -50.3708 H         1 UNK         0.1150 
    138 H138        5.2265  -17.9056  -48.7078 H         1 UNK         0.1150 
    139 H139        6.5518  -20.6722  -48.9823 H         1 UNK         0.0800 
    140 H140        5.7631  -19.9795  -47.5863 H         1 UNK         0.0800 
    141 H141        2.8874  -21.2099  -47.5661 H         1 UNK         0.0800 
    142 H142        3.9312  -21.1654  -46.1705 H         1 UNK         0.0800 
    143 H143        3.6357  -23.7220  -45.9826 H         1 UNK         0.0600 
    144 H144        1.8901  -21.6768  -45.0921 H         1 UNK         0.3000 
    145 H145       -0.1227  -23.7023  -42.9392 H         1 UNK         0.0600 
    146 H146        0.6742  -21.9878  -41.3351 H         1 UNK         0.0600 
    147 H147        1.9508  -23.1474  -41.6725 H         1 UNK         0.0600 
    148 H148        1.9980  -21.5529  -42.4132 H         1 UNK         0.0600 
    149 H149       -0.1641  -20.9095  -43.5031 H         1 UNK         0.3000 
    150 H150       -2.4186  -21.0868  -46.2931 H         1 UNK         0.0600 
    151 H151       -3.8054  -21.1722  -44.2120 H         1 UNK         0.0600 
    152 H152       -3.6847  -19.5419  -44.8516 H         1 UNK         0.0600 
    153 H153       -2.7297  -20.0079  -43.4443 H         1 UNK         0.0600 
    154 H154       -1.2448  -18.8318  -45.0684 H         1 UNK         0.3000 
    155 H155        1.7668  -18.7427  -47.0582 H         1 UNK         0.0600 
    156 H156       -0.7960  -17.0735  -46.8542 H         1 UNK         0.0600 
    157 H157        0.0220  -17.5838  -48.3220 H         1 UNK         0.0600 
    158 H158        0.7872  -16.4172  -47.2502 H         1 UNK         0.0600 
    159 H159        0.9816  -17.0837  -44.9141 H         1 UNK         0.3000 
    160 H160        2.3370  -19.0149  -42.2133 H         1 UNK         0.0600 
    161 H161        3.1874  -16.3978  -43.5585 H         1 UNK         0.0600 
    162 H162        4.2362  -17.7314  -43.1081 H         1 UNK         0.0600 
    163 H163        3.4378  -16.7907  -41.8569 H         1 UNK         0.0600 
    164 H164        0.9013  -16.5117  -42.4659 H         1 UNK         0.3000 
    165 H165       -2.3327  -17.8898  -41.8533 H         1 UNK         0.0600 
    166 H166       -2.2496  -16.2686  -39.9804 H         1 UNK         0.0600 
    167 H167       -1.2857  -17.6851  -39.5944 H         1 UNK         0.0600 
    168 H168       -0.4903  -16.1932  -40.0822 H         1 UNK         0.0600 
    169 H169       -1.3648  -15.2087  -42.1859 H         1 UNK         0.3000 
    170 H170       -1.5752  -15.0775  -45.7270 H         1 UNK         0.0600 
    171 H171       -3.9665  -14.8420  -45.0252 H         1 UNK         0.0600 
    172 H172       -3.4711  -13.8680  -43.6449 H         1 UNK         0.0600 
    173 H173       -3.2096  -13.2788  -45.2867 H         1 UNK         0.0600 
    174 H174       -1.1313  -12.9838  -43.9209 H         1 UNK         0.3000 
    175 H175        1.2793  -12.7817  -42.7166 H         1 UNK         0.0600 
    176 H176        3.0931  -13.3876  -45.1094 H         1 UNK         0.0600 
    177 H177        3.5078  -12.3138  -43.7750 H         1 UNK         0.0600 
    178 H178        3.2637  -14.0251  -43.4759 H         1 UNK         0.0600 
    179 H179        1.5650  -11.4562  -45.3091 H         1 UNK         0.3000 
    180 H180       -1.2204   -9.2564  -44.7990 H         1 UNK         0.0600 
    181 H181        1.8109   -8.9324  -45.1337 H         1 UNK         0.0600 
    182 H182        0.8303   -8.2227  -43.8588 H         1 UNK         0.0600 
    183 H183        0.5912   -7.7227  -45.5257 H         1 UNK         0.0600 
    184 H184        0.5998  -10.1074  -46.9547 H         1 UNK         0.3000 
    185 H185       -1.8294  -12.0343  -48.6373 H         1 UNK         0.0600 
    186 H186       -2.6096   -9.7621  -49.3115 H         1 UNK         0.0600 
    187 H187       -0.9450   -9.2009  -49.4094 H         1 UNK         0.0600 
    188 H188       -1.5302  -10.4420  -50.5184 H         1 UNK         0.0600 
    189 H189        0.7605  -10.9720  -49.3576 H         1 UNK         0.3000 
    190 H190        0.5545  -22.4841  -47.3340 H         1 UNK         0.3000 
    191 H191        0.3884  -24.1926  -49.5906 H         1 UNK         0.0600 
    192 H192       -0.9466  -22.0876  -49.2217 H         1 UNK         0.0600 
    193 H193       -1.9779  -23.4519  -49.6051 H         1 UNK         0.0600 
    194 H194       -1.8370  -22.8933  -47.9391 H         1 UNK         0.0600 
    195 H195       -0.3727  -24.7418  -46.2154 H         1 UNK         0.3000 
    196 H196       -0.9671  -26.4593  -44.9732 H         1 UNK         0.0600 
    197 H197       -0.1929  -28.7432  -45.6586 H         1 UNK         0.0600 
    198 H198        1.0386  -27.5227  -45.9231 H         1 UNK         0.0600 
    199 H199        0.1319  -28.1540  -47.2895 H         1 UNK         0.0600 
    200 H200       -1.8044  -28.7801  -47.3569 H         1 UNK         0.3000 
    201 H201       -4.5094  -28.9865  -46.5474 H         1 UNK         0.0600 
    202 H202       -3.1963  -30.8887  -47.4442 H         1 UNK         0.0600 
    203 H203       -3.0798  -30.1031  -49.0198 H         1 UNK         0.0600 
    204 H204       -4.6397  -30.6474  -48.4144 H         1 UNK         0.0600 
    205 H205       -3.0421  -27.0172  -49.0882 H         1 UNK         0.3000 
    206 H206       -5.5836  -26.4594  -50.4468 H         1 UNK         0.0600 
    207 H207       -3.5124  -26.4864  -51.7582 H         1 UNK         0.0600 
    208 H208       -4.1762  -24.8615  -51.7585 H         1 UNK         0.0600 
    209 H209       -2.7906  -25.2451  -50.7441 H         1 UNK         0.0600 
    210 H210       -3.9713  -25.2898  -47.6432 H         1 UNK         0.3000 
    211 H211       -4.2451  -23.6732  -46.1748 H         1 UNK         0.0600 
    212 H212       -7.1623  -23.8368  -47.0974 H         1 UNK         0.0600 
    213 H213       -6.6013  -23.3147  -45.5133 H         1 UNK         0.0600 
    214 H214       -6.3723  -24.9811  -46.0124 H         1 UNK         0.0600 
    215 H215       -3.8824  -22.6442  -49.0382 H         1 UNK         0.3000 
    216 H216       -3.6999  -20.8183  -50.2280 H         1 UNK         0.0600 
    217 H217       -3.3558  -18.6016  -49.1580 H         1 UNK         0.0600 
    218 H218       -2.4290  -19.8531  -48.3579 H         1 UNK         0.0600 
    219 H219       -3.9076  -19.2391  -47.6137 H         1 UNK         0.0600 
    220 H220       -6.2491  -22.0583  -49.9949 H         1 UNK         0.3000 
    221 H221       -8.3175  -20.0102  -49.9701 H         1 UNK         0.0600 
    222 H222       -8.3716  -22.9631  -50.7962 H         1 UNK         0.0600 
    223 H223       -8.7465  -22.3410  -49.1904 H         1 UNK         0.0600 
    224 H224       -9.7799  -21.9360  -50.5544 H         1 UNK         0.0600 
    225 H225       -9.2912  -19.0772  -51.6966 H         1 UNK         0.3000 
    226 H226       -9.6453  -18.2104  -53.6993 H         1 UNK         0.0600 
    227 H227      -10.7602  -20.3767  -54.0626 H         1 UNK         0.0600 
    228 H228      -10.0541  -19.8217  -55.5672 H         1 UNK         0.0600 
    229 H229       -9.2728  -21.1076  -54.6464 H         1 UNK         0.0600 
    230 H230       -7.8113  -20.2052  -55.7580 H         1 UNK         0.3000 
    231 H231       -6.0420  -17.9922  -56.4648 H         1 UNK         0.0600 
    232 H232       -6.4188  -20.7823  -57.6768 H         1 UNK         0.0600 
    233 H233       -5.5017  -19.4646  -58.3964 H         1 UNK         0.0600 
    234 H234       -7.2392  -19.3111  -58.2013 H         1 UNK         0.0600 
    235 H235       -5.7254  -20.6132  -54.2473 H         1 UNK         0.3000 
    236 H236       -2.9559  -21.2817  -54.8021 H         1 UNK         0.0600 
    237 H237       -3.1240  -22.5840  -52.7068 H         1 UNK         0.0600 
    238 H238       -4.6837  -21.8633  -52.3424 H         1 UNK         0.0600 
    239 H239       -4.5042  -22.9139  -53.7449 H         1 UNK         0.0600 
    240 H240       -1.2336  -20.1080  -54.2614 H         1 UNK         0.3000 
    241 H241        0.1625  -18.6739  -53.3641 H         1 UNK         0.0600 
    242 H242       -1.0433  -15.4677  -51.7465 H         1 UNK         0.3800 
    243 H243       -0.0991  -16.7395  -51.0350 H         1 UNK         0.3800 
    244 H244        0.3612  -18.6616  -50.8269 H         1 UNK         0.0800 
    245 H245       -1.1965  -19.4151  -50.7268 H         1 UNK         0.0800 
    246 H246        2.5881  -21.5243  -52.4778 H         1 UNK         0.0800 
    247 H247        2.0033  -20.0242  -53.1311 H         1 UNK         0.0800 
@<TRIPOS>BOND
     1    1    2 1    
     2    1  127 1    
     3    1  128 1    
     4    1  129 1    
     5    2    3 2    
     6    2    4 am   BACKBONE|DICT|INTERRES
     7    4    5 1    
     8    4  130 1    
     9    5    6 1    
    10    5   65 1    
    11    5  131 1    
    12    6    7 1    
    13    6  132 1    
    14    6  133 1    
    15    7    8 1    
    16    8    9 1    
    17    8  134 1    
    18    8  135 1    
    19    9   10 ar   
    20    9   14 ar   
    21   10   11 ar   
    22   10  136 1    
    23   11   12 ar   
    24   11  126 1    
    25   12   13 ar   
    26   12  137 1    
    27   13   14 ar   
    28   13   15 1    
    29   14  138 1    
    30   15   16 1    
    31   15  139 1    
    32   15  140 1    
    33   16   17 1    
    34   17   18 1    
    35   17  141 1    
    36   17  142 1    
    37   18   19 1    
    38   18   67 1    
    39   18  143 1    
    40   19   20 am   BACKBONE|DICT|INTERRES
    41   19  144 1    
    42   20   21 2    
    43   20   22 1    
    44   22   23 1    
    45   22   24 1    
    46   22  145 1    
    47   23  146 1    
    48   23  147 1    
    49   23  148 1    
    50   24   25 am   BACKBONE|DICT|INTERRES
    51   24  149 1    
    52   25   26 2    
    53   25   27 1    
    54   27   28 1    
    55   27   29 1    
    56   27  150 1    
    57   28  151 1    
    58   28  152 1    
    59   28  153 1    
    60   29   30 am   BACKBONE|DICT|INTERRES
    61   29  154 1    
    62   30   31 2    
    63   30   32 1    
    64   32   33 1    
    65   32   34 1    
    66   32  155 1    
    67   33  156 1    
    68   33  157 1    
    69   33  158 1    
    70   34   35 am   BACKBONE|DICT|INTERRES
    71   34  159 1    
    72   35   36 2    
    73   35   37 1    
    74   37   38 1    
    75   37   39 1    
    76   37  160 1    
    77   38  161 1    
    78   38  162 1    
    79   38  163 1    
    80   39   40 am   BACKBONE|DICT|INTERRES
    81   39  164 1    
    82   40   41 2    
    83   40   42 1    
    84   42   43 1    
    85   42   44 1    
    86   42  165 1    
    87   43  166 1    
    88   43  167 1    
    89   43  168 1    
    90   44   45 am   BACKBONE|DICT|INTERRES
    91   44  169 1    
    92   45   46 2    
    93   45   47 1    
    94   47   48 1    
    95   47   49 1    
    96   47  170 1    
    97   48  171 1    
    98   48  172 1    
    99   48  173 1    
   100   49   50 am   BACKBONE|DICT|INTERRES
   101   49  174 1    
   102   50   51 2    
   103   50   52 1    
   104   52   53 1    
   105   52   54 1    
   106   52  175 1    
   107   53  176 1    
   108   53  177 1    
   109   53  178 1    
   110   54   55 am   BACKBONE|DICT|INTERRES
   111   54  179 1    
   112   55   56 2    
   113   55   57 1    
   114   57   58 1    
   115   57   59 1    
   116   57  180 1    
   117   58  181 1    
   118   58  182 1    
   119   58  183 1    
   120   59   60 am   BACKBONE|DICT|INTERRES
   121   59  184 1    
   122   60   61 2    
   123   60   62 1    
   124   62   63 1    
   125   62   64 1    
   126   62  185 1    
   127   63  186 1    
   128   63  187 1    
   129   63  188 1    
   130   64   65 am   BACKBONE|DICT|INTERRES
   131   64  189 1    
   132   65   66 2    
   133   67   68 2    
   134   67   69 am   BACKBONE|DICT|INTERRES
   135   69   70 1    
   136   69  190 1    
   137   70   71 1    
   138   70   72 1    
   139   70  191 1    
   140   71  192 1    
   141   71  193 1    
   142   71  194 1    
   143   72   73 2    
   144   72   74 am   BACKBONE|DICT|INTERRES
   145   74   75 1    
   146   74  195 1    
   147   75   76 1    
   148   75   77 1    
   149   75  196 1    
   150   76  197 1    
   151   76  198 1    
   152   76  199 1    
   153   77   78 2    
   154   77   79 am   BACKBONE|DICT|INTERRES
   155   79   80 1    
   156   79  200 1    
   157   80   81 1    
   158   80   82 1    
   159   80  201 1    
   160   81  202 1    
   161   81  203 1    
   162   81  204 1    
   163   82   83 2    
   164   82   84 am   BACKBONE|DICT|INTERRES
   165   84   85 1    
   166   84  205 1    
   167   85   86 1    
   168   85   87 1    
   169   85  206 1    
   170   86  207 1    
   171   86  208 1    
   172   86  209 1    
   173   87   88 2    
   174   87   89 am   BACKBONE|DICT|INTERRES
   175   89   90 1    
   176   89  210 1    
   177   90   91 1    
   178   90   92 1    
   179   90  211 1    
   180   91  212 1    
   181   91  213 1    
   182   91  214 1    
   183   92   93 2    
   184   92   94 am   BACKBONE|DICT|INTERRES
   185   94   95 1    
   186   94  215 1    
   187   95   96 1    
   188   95   97 1    
   189   95  216 1    
   190   96  217 1    
   191   96  218 1    
   192   96  219 1    
   193   97   98 2    
   194   97   99 am   BACKBONE|DICT|INTERRES
   195   99  100 1    
   196   99  220 1    
   197  100  101 1    
   198  100  102 1    
   199  100  221 1    
   200  101  222 1    
   201  101  223 1    
   202  101  224 1    
   203  102  103 2    
   204  102  104 am   BACKBONE|DICT|INTERRES
   205  104  105 1    
   206  104  225 1    
   207  105  106 1    
   208  105  107 1    
   209  105  226 1    
   210  106  227 1    
   211  106  228 1    
   212  106  229 1    
   213  107  108 2    
   214  107  109 am   BACKBONE|DICT|INTERRES
   215  109  110 1    
   216  109  230 1    
   217  110  111 1    
   218  110  112 1    
   219  110  231 1    
   220  111  232 1    
   221  111  233 1    
   222  111  234 1    
   223  112  113 2    
   224  112  114 am   BACKBONE|DICT|INTERRES
   225  114  115 1    
   226  114  235 1    
   227  115  116 1    
   228  115  117 1    
   229  115  236 1    
   230  116  237 1    
   231  116  238 1    
   232  116  239 1    
   233  117  118 2    
   234  117  119 am   BACKBONE|DICT|INTERRES
   235  119  120 1    
   236  119  240 1    
   237  120  121 1    
   238  120  124 1    
   239  120  241 1    
   240  121  122 am   BACKBONE|DICT|INTERRES
   241  121  123 2    
   242  122  242 1    
   243  122  243 1    
   244  124  125 1    
   245  124  244 1    
   246  124  245 1    
   247  125  126 1    
   248  126  246 1    
   249  126  247 1    
@<TRIPOS>SUBSTRUCTURE
     1 UNK         1 GROUP             0       ****    0 ROOT    
