@<TRIPOS>MOLECULE
3R540
247   249    1
SMALL
USER_CHARGES


@<TRIPOS>ATOM
      1 CA          4.4563  -16.1406  -48.7367 C.3       0 UNK        -0.1800 
      2 C           3.7506  -14.8103  -48.5149 C.2       0 UNK         0.5000 
      3 O           4.0504  -13.8365  -49.2038 O.2       0 UNK        -0.5000 
      4 N           2.8319  -14.7615  -47.5406 N.am      1 UNK        -0.5000 
      5 CA          1.9859  -13.6283  -47.1210 C.3       1 UNK         0.1400 
      6 C6          1.0222  -13.1165  -48.2256 C.3       23 UNK        -0.0398 
      7 S7         -0.1899  -14.3898  -48.7224 S.3       23 UNK        -0.2404 
      8 C8          0.4209  -14.8800  -50.3663 C.3       23 UNK        -0.0205 
      9 C9          0.2334  -16.3714  -50.5934 C.ar      23 UNK        -0.0193 
     10 C10        -0.7686  -16.8558  -51.4405 C.ar      23 UNK        -0.1150 
     11 C11        -0.9164  -18.2326  -51.6451 C.ar      23 UNK        -0.0193 
     12 C12        -0.0590  -19.1222  -50.9910 C.ar      23 UNK        -0.1150 
     13 C13         0.9292  -18.6501  -50.1246 C.ar      23 UNK        -0.0193 
     14 C14         1.0775  -17.2743  -49.9446 C.ar      23 UNK        -0.1150 
     15 C15         1.8315  -19.6195  -49.3749 C.3       23 UNK        -0.0205 
     16 S16         1.6732  -19.4434  -47.5676 S.3       23 UNK        -0.2404 
     17 C17        -0.0325  -20.0296  -47.2774 C.3       23 UNK        -0.0398 
     18 CA         -0.0607  -21.4643  -46.7064 C.3       11 UNK         0.1400 
     19 N           0.6051  -21.5663  -45.4015 N.am      11 UNK        -0.5000 
     20 C           0.8721  -22.7117  -44.7581 C.2       10 UNK         0.5000 
     21 O           0.5364  -23.8212  -45.1736 O.2       10 UNK        -0.5000 
     22 CA          1.5937  -22.5946  -43.4075 C.3       10 UNK         0.1400 
     23 CB          3.0833  -22.2711  -43.6014 C.3       10 UNK        -0.1800 
     24 N           0.9665  -21.5724  -42.5727 N.am      10 UNK        -0.5000 
     25 C          -0.1243  -21.7827  -41.8227 C.2       9 UNK         0.5000 
     26 O          -0.6633  -22.8827  -41.6962 O.2       9 UNK        -0.5000 
     27 CA         -0.7310  -20.5616  -41.1024 C.3       9 UNK         0.1400 
     28 CB         -0.1315  -20.4194  -39.6954 C.3       9 UNK        -0.1800 
     29 N          -0.5613  -19.3012  -41.8289 N.am      9 UNK        -0.5000 
     30 C          -1.0792  -19.0459  -43.0390 C.2       8 UNK         0.5000 
     31 O          -1.7806  -19.8402  -43.6625 O.2       8 UNK        -0.5000 
     32 CA         -0.7052  -17.7056  -43.6958 C.3       8 UNK         0.1400 
     33 CB         -1.6614  -16.5953  -43.2414 C.3       8 UNK        -0.1800 
     34 N           0.6804  -17.2943  -43.4594 N.am      8 UNK        -0.5000 
     35 C           1.7626  -18.0194  -43.7794 C.2       7 UNK         0.5000 
     36 O           1.7125  -19.1623  -44.2318 O.2       7 UNK        -0.5000 
     37 CA          3.1281  -17.3687  -43.5239 C.3       7 UNK         0.1400 
     38 CB          3.4269  -16.2989  -44.5849 C.3       7 UNK        -0.1800 
     39 N           3.1776  -16.7877  -42.1845 N.am      7 UNK        -0.5000 
     40 C           3.4699  -17.4928  -41.0823 C.2       6 UNK         0.5000 
     41 O           3.8439  -18.6659  -41.0994 O.2       6 UNK        -0.5000 
     42 CA          3.2902  -16.7831  -39.7272 C.3       6 UNK         0.1400 
     43 CB          4.6027  -16.1240  -39.2797 C.3       6 UNK        -0.1800 
     44 N           2.2224  -15.7823  -39.7367 N.am      6 UNK        -0.5000 
     45 C           0.9187  -16.0697  -39.8639 C.2       5 UNK         0.5000 
     46 O           0.4789  -17.2115  -39.9980 O.2       5 UNK        -0.5000 
     47 CA         -0.0580  -14.8793  -39.8870 C.3       5 UNK         0.1400 
     48 CB         -0.4934  -14.5177  -38.4594 C.3       5 UNK        -0.1800 
     49 N           0.4681  -13.6819  -40.5461 N.am      5 UNK        -0.5000 
     50 C           0.9439  -13.6153  -41.7972 C.2       4 UNK         0.5000 
     51 O           1.0328  -14.5895  -42.5487 O.2       4 UNK        -0.5000 
     52 CA          1.4288  -12.2406  -42.2974 C.3       4 UNK         0.1400 
     53 CB          1.2430  -11.0850  -41.2877 C.3       4 UNK        -0.1800 
     54 N           2.8170  -12.3025  -42.7570 N.am      4 UNK        -0.5000 
     55 C           3.8969  -12.6604  -42.0438 C.2       3 UNK         0.5000 
     56 O           3.8474  -12.9902  -40.8576 O.2       3 UNK        -0.5000 
     57 CA          5.2603  -12.6709  -42.7694 C.3       3 UNK         0.1400 
     58 CB          6.0080  -13.9941  -42.5339 C.3       3 UNK        -0.1800 
     59 N           5.1367  -12.4393  -44.2123 N.am      3 UNK        -0.5000 
     60 C           5.1642  -11.2337  -44.7975 C.2       2 UNK         0.5000 
     61 O           5.3534  -10.1812  -44.1871 O.2       2 UNK        -0.5000 
     62 CA          4.9073  -11.1905  -46.3171 C.3       2 UNK         0.1400 
     63 CB          6.2355  -11.2411  -47.0871 C.3       2 UNK        -0.1800 
     64 N           4.0322  -12.2581  -46.8113 N.am      2 UNK        -0.5000 
     65 C           2.7539  -12.4561  -46.4640 C.2       1 UNK         0.5000 
     66 O           2.1777  -11.7670  -45.6224 O.2       1 UNK        -0.5000 
     67 C          -1.4951  -22.0331  -46.7017 C.2       11 UNK         0.5000 
     68 O          -1.9266  -22.5670  -47.7217 O.2       11 UNK        -0.5000 
     69 N          -2.1839  -21.9768  -45.5530 N.am      12 UNK        -0.5000 
     70 CA         -3.4857  -22.6071  -45.3208 C.3       12 UNK         0.1400 
     71 CB         -3.9825  -22.2382  -43.9144 C.3       12 UNK        -0.1800 
     72 C          -3.4820  -24.1401  -45.4972 C.2       12 UNK         0.5000 
     73 O          -4.5145  -24.7036  -45.8611 O.2       12 UNK        -0.5000 
     74 N          -2.3343  -24.7812  -45.2385 N.am      13 UNK        -0.5000 
     75 CA         -2.1281  -26.2167  -45.4152 C.3       13 UNK         0.1400 
     76 CB         -1.3149  -26.7567  -44.2278 C.3       13 UNK        -0.1800 
     77 C          -1.4124  -26.5209  -46.7418 C.2       13 UNK         0.5000 
     78 O          -1.7860  -27.4744  -47.4257 O.2       13 UNK        -0.5000 
     79 N          -0.3867  -25.7243  -47.0737 N.am      14 UNK        -0.5000 
     80 CA          0.4797  -25.9290  -48.2359 C.3       14 UNK         0.1400 
     81 CB          1.7788  -25.1327  -48.0367 C.3       14 UNK        -0.1800 
     82 C          -0.1731  -25.5638  -49.5825 C.2       14 UNK         0.5000 
     83 O           0.2236  -26.1205  -50.6076 O.2       14 UNK        -0.5000 
     84 N          -1.1372  -24.6374  -49.5675 N.am      15 UNK        -0.5000 
     85 CA         -1.8449  -24.1374  -50.7398 C.3       15 UNK         0.1400 
     86 CB         -1.2383  -22.7817  -51.1567 C.3       15 UNK        -0.1800 
     87 C          -3.3509  -24.0968  -50.4288 C.2       15 UNK         0.5000 
     88 O          -3.9334  -25.1520  -50.1747 O.2       15 UNK        -0.5000 
     89 N          -3.9570  -22.9003  -50.4819 N.am      16 UNK        -0.5000 
     90 CA         -5.3820  -22.6088  -50.2685 C.3       16 UNK         0.1400 
     91 CB         -5.8043  -22.9383  -48.8231 C.3       16 UNK        -0.1800 
     92 C          -6.3187  -23.2353  -51.3265 C.2       16 UNK         0.5000 
     93 O          -7.5110  -23.4082  -51.0684 O.2       16 UNK        -0.5000 
     94 N          -5.7691  -23.5535  -52.5064 N.am      17 UNK        -0.5000 
     95 CA         -6.5032  -24.0641  -53.6579 C.3       17 UNK         0.1400 
     96 CB         -5.5189  -24.7513  -54.6176 C.3       17 UNK        -0.1800 
     97 C          -7.2452  -22.9230  -54.3706 C.2       17 UNK         0.5000 
     98 O          -6.6036  -21.9787  -54.8403 O.2       17 UNK        -0.5000 
     99 N          -8.5729  -23.0508  -54.4848 N.am      18 UNK        -0.5000 
    100 CA        -9.4426  -22.0942  -55.1758 C.3       18 UNK         0.1400 
    101 CB       -10.9105  -22.4682  -54.9241 C.3       18 UNK        -0.1800 
    102 C         -9.1580  -22.0029  -56.6874 C.2       18 UNK         0.5000 
    103 O         -9.3125  -20.9305  -57.2705 O.2       18 UNK        -0.5000 
    104 N         -8.6871  -23.1093  -57.2817 N.am      19 UNK        -0.5000 
    105 CA        -8.2395  -23.1966  -58.6748 C.3       19 UNK         0.1400 
    106 CB        -7.9893  -24.6712  -59.0251 C.3       19 UNK        -0.1800 
    107 C         -6.9819  -22.3526  -58.9704 C.2       19 UNK         0.5000 
    108 O         -6.7881  -21.9364  -60.1128 O.2       19 UNK        -0.5000 
    109 N         -6.1687  -22.0958  -57.9365 N.am      20 UNK        -0.5000 
    110 CA        -4.9996  -21.2157  -57.9800 C.3       20 UNK         0.1400 
    111 CB        -3.9033  -21.8197  -57.0846 C.3       20 UNK        -0.1800 
    112 C         -5.3386  -19.7780  -57.5321 C.2       20 UNK         0.5000 
    113 O         -4.4320  -18.9485  -57.4516 O.2       20 UNK        -0.5000 
    114 N         -6.6184  -19.5161  -57.2170 N.am      21 UNK        -0.5000 
    115 CA        -7.1680  -18.2874  -56.6313 C.3       21 UNK         0.1400 
    116 CB        -7.0195  -17.0950  -57.5992 C.3       21 UNK        -0.1800 
    117 C         -6.6221  -17.9903  -55.2168 C.2       21 UNK         0.5000 
    118 O         -6.6054  -16.8322  -54.7952 O.2       21 UNK        -0.5000 
    119 N         -6.1880  -19.0401  -54.5100 N.am      22 UNK        -0.5000 
    120 CA        -5.6670  -18.9891  -53.1419 C.3       22 UNK         0.1400 
    121 C         -6.7905  -19.2319  -52.0935 C.2       22 UNK         0.5000 
    122 N         -6.5811  -18.8254  -50.8493 N.am      22 UNK        -0.7600 
    123 O         -7.8418  -19.7982  -52.3842 O.2       22 UNK        -0.5000 
    124 C124       -4.4887  -19.9852  -52.9926 C.3       23 UNK        -0.0398 
    125 S125       -3.3471  -19.5472  -51.6389 S.3       23 UNK        -0.2404 
    126 C126       -1.9947  -18.7678  -52.5740 C.3       23 UNK        -0.0205 
    127 H127        5.5255  -16.0324  -48.5548 H         1 UNK         0.0600 
    128 H128        4.0760  -16.9197  -48.0753 H         1 UNK         0.0600 
    129 H129        4.3167  -16.4718  -49.7658 H         1 UNK         0.0600 
    130 H130        2.6558  -15.6098  -47.0232 H         1 UNK         0.3000 
    131 H131        1.3641  -14.0325  -46.3198 H         1 UNK         0.0600 
    132 H132        1.5731  -12.7513  -49.0932 H         1 UNK         0.0800 
    133 H133        0.4464  -12.2641  -47.8603 H         1 UNK         0.0800 
    134 H134       -0.0994  -14.3004  -51.1302 H         1 UNK         0.0800 
    135 H135        1.4800  -14.6415  -50.4685 H         1 UNK         0.0800 
    136 H136       -1.4298  -16.1626  -51.9413 H         1 UNK         0.1150 
    137 H137       -0.1726  -20.1837  -51.1494 H         1 UNK         0.1150 
    138 H138        1.8367  -16.9064  -49.2730 H         1 UNK         0.1150 
    139 H139        1.6186  -20.6526  -49.6546 H         1 UNK         0.0800 
    140 H140        2.8673  -19.4287  -49.6585 H         1 UNK         0.0800 
    141 H141       -0.5953  -19.9743  -48.2107 H         1 UNK         0.0800 
    142 H142       -0.5212  -19.3382  -46.5904 H         1 UNK         0.0800 
    143 H143        0.5057  -22.0936  -47.3945 H         1 UNK         0.0600 
    144 H144        0.9411  -20.6934  -45.0007 H         1 UNK         0.3000 
    145 H145        1.5270  -23.5619  -42.9047 H         1 UNK         0.0600 
    146 H146        3.6007  -22.2139  -42.6437 H         1 UNK         0.0600 
    147 H147        3.2341  -21.3234  -44.1186 H         1 UNK         0.0600 
    148 H148        3.5743  -23.0461  -44.1912 H         1 UNK         0.0600 
    149 H149        1.3100  -20.6265  -42.6822 H         1 UNK         0.3000 
    150 H150       -1.8029  -20.7430  -41.0001 H         1 UNK         0.0600 
    151 H151       -0.2370  -21.3446  -39.1274 H         1 UNK         0.0600 
    152 H152       -0.6345  -19.6339  -39.1311 H         1 UNK         0.0600 
    153 H153        0.9309  -20.1750  -39.7353 H         1 UNK         0.0600 
    154 H154       -0.0251  -18.5766  -41.3606 H         1 UNK         0.3000 
    155 H155       -0.8209  -17.8244  -44.7742 H         1 UNK         0.0600 
    156 H156       -2.6905  -16.8348  -43.5116 H         1 UNK         0.0600 
    157 H157       -1.4151  -15.6412  -43.7078 H         1 UNK         0.0600 
    158 H158       -1.6313  -16.4627  -42.1614 H         1 UNK         0.0600 
    159 H159        0.8138  -16.3556  -43.0912 H         1 UNK         0.3000 
    160 H160        3.8896  -18.1464  -43.6164 H         1 UNK         0.0600 
    161 H161        2.7736  -15.4312  -44.4891 H         1 UNK         0.0600 
    162 H162        3.2922  -16.7123  -45.5844 H         1 UNK         0.0600 
    163 H163        4.4585  -15.9569  -44.5230 H         1 UNK         0.0600 
    164 H164        2.8091  -15.8516  -42.0777 H         1 UNK         0.3000 
    165 H165        3.0270  -17.5461  -38.9914 H         1 UNK         0.0600 
    166 H166        4.5054  -15.6843  -38.2870 H         1 UNK         0.0600 
    167 H167        5.4115  -16.8544  -39.2342 H         1 UNK         0.0600 
    168 H168        4.9104  -15.3363  -39.9664 H         1 UNK         0.0600 
    169 H169        2.5045  -14.8127  -39.6782 H         1 UNK         0.3000 
    170 H170       -0.9458  -15.1897  -40.4377 H         1 UNK         0.0600 
    171 H171        0.3448  -14.1563  -37.8622 H         1 UNK         0.0600 
    172 H172       -1.2615  -13.7441  -38.4642 H         1 UNK         0.0600 
    173 H173       -0.9119  -15.3852  -37.9470 H         1 UNK         0.0600 
    174 H174        0.4610  -12.8335  -39.9990 H         1 UNK         0.3000 
    175 H175        0.8236  -12.0109  -43.1752 H         1 UNK         0.0600 
    176 H176        1.8127  -11.2393  -40.3706 H         1 UNK         0.0600 
    177 H177        1.5702  -10.1393  -41.7200 H         1 UNK         0.0600 
    178 H178        0.1940  -10.9623  -41.0154 H         1 UNK         0.0600 
    179 H179        2.9424  -12.0762  -43.7368 H         1 UNK         0.3000 
    180 H180        5.8612  -11.8731  -42.3282 H         1 UNK         0.0600 
    181 H181        6.9209  -14.0477  -43.1273 H         1 UNK         0.0600 
    182 H182        5.3934  -14.8588  -42.7780 H         1 UNK         0.0600 
    183 H183        6.3010  -14.0902  -41.4882 H         1 UNK         0.0600 
    184 H184        4.9718  -13.2489  -44.7921 H         1 UNK         0.3000 
    185 H185        4.4205  -10.2384  -46.5377 H         1 UNK         0.0600 
    186 H186        6.0750  -11.1195  -48.1586 H         1 UNK         0.0600 
    187 H187        6.9050  -10.4416  -46.7669 H         1 UNK         0.0600 
    188 H188        6.7545  -12.1876  -46.9309 H         1 UNK         0.0600 
    189 H189        4.3953  -12.8352  -47.5630 H         1 UNK         0.3000 
    190 H190       -1.7999  -21.4420  -44.7793 H         1 UNK         0.3000 
    191 H191       -4.1868  -22.1926  -46.0455 H         1 UNK         0.0600 
    192 H192       -4.1326  -21.1629  -43.8193 H         1 UNK         0.0600 
    193 H193       -3.2745  -22.5483  -43.1447 H         1 UNK         0.0600 
    194 H194       -4.9382  -22.7165  -43.6962 H         1 UNK         0.0600 
    195 H195       -1.5206  -24.2385  -44.9753 H         1 UNK         0.3000 
    196 H196       -3.0872  -26.7387  -45.4255 H         1 UNK         0.0600 
    197 H197       -1.8401  -26.5940  -43.2865 H         1 UNK         0.0600 
    198 H198       -0.3385  -26.2766  -44.1518 H         1 UNK         0.0600 
    199 H199       -1.1470  -27.8299  -44.3256 H         1 UNK         0.0600 
    200 H200       -0.1100  -24.9875  -46.4293 H         1 UNK         0.3000 
    201 H201        0.7415  -26.9885  -48.2787 H         1 UNK         0.0600 
    202 H202        2.2819  -25.4215  -47.1136 H         1 UNK         0.0600 
    203 H203        1.5916  -24.0603  -47.9939 H         1 UNK         0.0600 
    204 H204        2.4760  -25.3107  -48.8564 H         1 UNK         0.0600 
    205 H205       -1.4206  -24.2211  -48.6856 H         1 UNK         0.3000 
    206 H206       -1.7297  -24.8307  -51.5754 H         1 UNK         0.0600 
    207 H207       -1.7264  -22.3815  -52.0463 H         1 UNK         0.0600 
    208 H208       -1.3225  -22.0419  -50.3600 H         1 UNK         0.0600 
    209 H209       -0.1798  -22.8870  -51.3951 H         1 UNK         0.0600 
    210 H210       -3.3791  -22.0935  -50.6747 H         1 UNK         0.3000 
    211 H211       -5.4848  -21.5304  -50.3893 H         1 UNK         0.0600 
    212 H212       -5.7896  -24.0105  -48.6261 H         1 UNK         0.0600 
    213 H213       -6.8135  -22.5811  -48.6160 H         1 UNK         0.0600 
    214 H214       -5.1388  -22.4574  -48.1086 H         1 UNK         0.0600 
    215 H215       -4.7872  -23.3714  -52.6433 H         1 UNK         0.3000 
    216 H216       -7.2238  -24.8108  -53.3175 H         1 UNK         0.0600 
    217 H217       -6.0358  -25.1419  -55.4951 H         1 UNK         0.0600 
    218 H218       -4.7480  -24.0649  -54.9697 H         1 UNK         0.0600 
    219 H219       -5.0210  -25.5919  -54.1337 H         1 UNK         0.0600 
    220 H220       -9.0277  -23.8464  -54.0600 H         1 UNK         0.3000 
    221 H221       -9.2610  -21.1064  -54.7461 H         1 UNK         0.0600 
    222 H222      -11.1464  -23.4604  -55.3106 H         1 UNK         0.0600 
    223 H223      -11.1425  -22.4577  -53.8589 H         1 UNK         0.0600 
    224 H224      -11.5827  -21.7585  -55.4084 H         1 UNK         0.0600 
    225 H225       -8.5982  -23.9469  -56.7256 H         1 UNK         0.3000 
    226 H226       -9.0438  -22.8228  -59.3118 H         1 UNK         0.0600 
    227 H227       -8.8927  -25.2671  -58.8938 H         1 UNK         0.0600 
    228 H228       -7.6796  -24.7787  -60.0655 H         1 UNK         0.0600 
    229 H229       -7.2057  -25.1054  -58.4027 H         1 UNK         0.0600 
    230 H230       -6.4188  -22.4450  -57.0205 H         1 UNK         0.3000 
    231 H231       -4.6126  -21.1591  -58.9993 H         1 UNK         0.0600 
    232 H232       -2.9781  -21.2469  -57.1578 H         1 UNK         0.0600 
    233 H233       -3.6729  -22.8440  -57.3780 H         1 UNK         0.0600 
    234 H234       -4.1980  -21.8289  -56.0350 H         1 UNK         0.0600 
    235 H235       -7.2946  -20.2601  -57.3376 H         1 UNK         0.3000 
    236 H236       -8.2356  -18.4696  -56.5027 H         1 UNK         0.0600 
    237 H237       -5.9788  -16.7913  -57.7144 H         1 UNK         0.0600 
    238 H238       -7.4103  -17.3385  -58.5872 H         1 UNK         0.0600 
    239 H239       -7.5730  -16.2276  -57.2381 H         1 UNK         0.0600 
    240 H240       -6.3130  -19.9732  -54.8887 H         1 UNK         0.3000 
    241 H241       -5.2782  -17.9835  -52.9693 H         1 UNK         0.0600 
    242 H242       -5.7182  -18.3764  -50.5828 H         1 UNK         0.3800 
    243 H243       -7.3009  -18.9690  -50.1588 H         1 UNK         0.3800 
    244 H244       -3.9124  -20.0245  -53.9186 H         1 UNK         0.0800 
    245 H245       -4.8534  -20.9996  -52.8433 H         1 UNK         0.0800 
    246 H246       -2.3992  -17.9657  -53.1936 H         1 UNK         0.0800 
    247 H247       -1.5553  -19.4974  -53.2559 H         1 UNK         0.0800 
@<TRIPOS>BOND
     1    1    2 1    
     2    1  127 1    
     3    1  128 1    
     4    1  129 1    
     5    2    3 2    
     6    2    4 am   BACKBONE|DICT|INTERRES
     7    4    5 1    
     8    4  130 1    
     9    5    6 1    
    10    5   65 1    
    11    5  131 1    
    12    6    7 1    
    13    6  132 1    
    14    6  133 1    
    15    7    8 1    
    16    8    9 1    
    17    8  134 1    
    18    8  135 1    
    19    9   10 ar   
    20    9   14 ar   
    21   10   11 ar   
    22   10  136 1    
    23   11   12 ar   
    24   11  126 1    
    25   12   13 ar   
    26   12  137 1    
    27   13   14 ar   
    28   13   15 1    
    29   14  138 1    
    30   15   16 1    
    31   15  139 1    
    32   15  140 1    
    33   16   17 1    
    34   17   18 1    
    35   17  141 1    
    36   17  142 1    
    37   18   19 1    
    38   18   67 1    
    39   18  143 1    
    40   19   20 am   BACKBONE|DICT|INTERRES
    41   19  144 1    
    42   20   21 2    
    43   20   22 1    
    44   22   23 1    
    45   22   24 1    
    46   22  145 1    
    47   23  146 1    
    48   23  147 1    
    49   23  148 1    
    50   24   25 am   BACKBONE|DICT|INTERRES
    51   24  149 1    
    52   25   26 2    
    53   25   27 1    
    54   27   28 1    
    55   27   29 1    
    56   27  150 1    
    57   28  151 1    
    58   28  152 1    
    59   28  153 1    
    60   29   30 am   BACKBONE|DICT|INTERRES
    61   29  154 1    
    62   30   31 2    
    63   30   32 1    
    64   32   33 1    
    65   32   34 1    
    66   32  155 1    
    67   33  156 1    
    68   33  157 1    
    69   33  158 1    
    70   34   35 am   BACKBONE|DICT|INTERRES
    71   34  159 1    
    72   35   36 2    
    73   35   37 1    
    74   37   38 1    
    75   37   39 1    
    76   37  160 1    
    77   38  161 1    
    78   38  162 1    
    79   38  163 1    
    80   39   40 am   BACKBONE|DICT|INTERRES
    81   39  164 1    
    82   40   41 2    
    83   40   42 1    
    84   42   43 1    
    85   42   44 1    
    86   42  165 1    
    87   43  166 1    
    88   43  167 1    
    89   43  168 1    
    90   44   45 am   BACKBONE|DICT|INTERRES
    91   44  169 1    
    92   45   46 2    
    93   45   47 1    
    94   47   48 1    
    95   47   49 1    
    96   47  170 1    
    97   48  171 1    
    98   48  172 1    
    99   48  173 1    
   100   49   50 am   BACKBONE|DICT|INTERRES
   101   49  174 1    
   102   50   51 2    
   103   50   52 1    
   104   52   53 1    
   105   52   54 1    
   106   52  175 1    
   107   53  176 1    
   108   53  177 1    
   109   53  178 1    
   110   54   55 am   BACKBONE|DICT|INTERRES
   111   54  179 1    
   112   55   56 2    
   113   55   57 1    
   114   57   58 1    
   115   57   59 1    
   116   57  180 1    
   117   58  181 1    
   118   58  182 1    
   119   58  183 1    
   120   59   60 am   BACKBONE|DICT|INTERRES
   121   59  184 1    
   122   60   61 2    
   123   60   62 1    
   124   62   63 1    
   125   62   64 1    
   126   62  185 1    
   127   63  186 1    
   128   63  187 1    
   129   63  188 1    
   130   64   65 am   BACKBONE|DICT|INTERRES
   131   64  189 1    
   132   65   66 2    
   133   67   68 2    
   134   67   69 am   BACKBONE|DICT|INTERRES
   135   69   70 1    
   136   69  190 1    
   137   70   71 1    
   138   70   72 1    
   139   70  191 1    
   140   71  192 1    
   141   71  193 1    
   142   71  194 1    
   143   72   73 2    
   144   72   74 am   BACKBONE|DICT|INTERRES
   145   74   75 1    
   146   74  195 1    
   147   75   76 1    
   148   75   77 1    
   149   75  196 1    
   150   76  197 1    
   151   76  198 1    
   152   76  199 1    
   153   77   78 2    
   154   77   79 am   BACKBONE|DICT|INTERRES
   155   79   80 1    
   156   79  200 1    
   157   80   81 1    
   158   80   82 1    
   159   80  201 1    
   160   81  202 1    
   161   81  203 1    
   162   81  204 1    
   163   82   83 2    
   164   82   84 am   BACKBONE|DICT|INTERRES
   165   84   85 1    
   166   84  205 1    
   167   85   86 1    
   168   85   87 1    
   169   85  206 1    
   170   86  207 1    
   171   86  208 1    
   172   86  209 1    
   173   87   88 2    
   174   87   89 am   BACKBONE|DICT|INTERRES
   175   89   90 1    
   176   89  210 1    
   177   90   91 1    
   178   90   92 1    
   179   90  211 1    
   180   91  212 1    
   181   91  213 1    
   182   91  214 1    
   183   92   93 2    
   184   92   94 am   BACKBONE|DICT|INTERRES
   185   94   95 1    
   186   94  215 1    
   187   95   96 1    
   188   95   97 1    
   189   95  216 1    
   190   96  217 1    
   191   96  218 1    
   192   96  219 1    
   193   97   98 2    
   194   97   99 am   BACKBONE|DICT|INTERRES
   195   99  100 1    
   196   99  220 1    
   197  100  101 1    
   198  100  102 1    
   199  100  221 1    
   200  101  222 1    
   201  101  223 1    
   202  101  224 1    
   203  102  103 2    
   204  102  104 am   BACKBONE|DICT|INTERRES
   205  104  105 1    
   206  104  225 1    
   207  105  106 1    
   208  105  107 1    
   209  105  226 1    
   210  106  227 1    
   211  106  228 1    
   212  106  229 1    
   213  107  108 2    
   214  107  109 am   BACKBONE|DICT|INTERRES
   215  109  110 1    
   216  109  230 1    
   217  110  111 1    
   218  110  112 1    
   219  110  231 1    
   220  111  232 1    
   221  111  233 1    
   222  111  234 1    
   223  112  113 2    
   224  112  114 am   BACKBONE|DICT|INTERRES
   225  114  115 1    
   226  114  235 1    
   227  115  116 1    
   228  115  117 1    
   229  115  236 1    
   230  116  237 1    
   231  116  238 1    
   232  116  239 1    
   233  117  118 2    
   234  117  119 am   BACKBONE|DICT|INTERRES
   235  119  120 1    
   236  119  240 1    
   237  120  121 1    
   238  120  124 1    
   239  120  241 1    
   240  121  122 am   BACKBONE|DICT|INTERRES
   241  121  123 2    
   242  122  242 1    
   243  122  243 1    
   244  124  125 1    
   245  124  244 1    
   246  124  245 1    
   247  125  126 1    
   248  126  246 1    
   249  126  247 1    
@<TRIPOS>SUBSTRUCTURE
     1 UNK         1 GROUP             0       ****    0 ROOT    
