@<TRIPOS>MOLECULE
3R540
247   249    1
SMALL
USER_CHARGES


@<TRIPOS>ATOM
      1 CA          4.1270  -17.7117  -48.6756 C.3       0 UNK        -0.1800 
      2 C           3.6417  -16.5322  -47.8467 C.2       0 UNK         0.5000 
      3 O           3.4105  -16.6769  -46.6490 O.2       0 UNK        -0.5000 
      4 N           3.5142  -15.3497  -48.4635 N.am      1 UNK        -0.5000 
      5 CA          2.9787  -14.1268  -47.8429 C.3       1 UNK         0.1400 
      6 C6          2.6286  -13.0411  -48.8903 C.3       23 UNK        -0.0398 
      7 S7          1.2761  -13.5785  -49.9946 S.3       23 UNK        -0.2404 
      8 C8          2.1855  -14.0667  -51.4945 C.3       23 UNK        -0.0205 
      9 C9          1.5841  -15.3114  -52.1287 C.ar      23 UNK        -0.0193 
     10 C10         0.9464  -15.2462  -53.3713 C.ar      23 UNK        -0.1150 
     11 C11         0.4210  -16.4002  -53.9621 C.ar      23 UNK        -0.0193 
     12 C12         0.5479  -17.6283  -53.3013 C.ar      23 UNK        -0.1150 
     13 C13         1.1894  -17.7063  -52.0618 C.ar      23 UNK        -0.0193 
     14 C14         1.6989  -16.5440  -51.4819 C.ar      23 UNK        -0.1150 
     15 C15         1.3988  -19.0468  -51.3754 C.3       23 UNK        -0.0205 
     16 S16         0.4313  -19.2112  -49.8412 S.3       23 UNK        -0.2404 
     17 C17         1.0762  -20.8218  -49.2813 C.3       23 UNK        -0.0398 
     18 CA          0.2278  -21.5675  -48.2260 C.3       11 UNK         0.1400 
     19 N           0.0446  -20.8265  -46.9759 N.am      11 UNK        -0.5000 
     20 C          -0.2239  -21.4268  -45.8065 C.2       10 UNK         0.5000 
     21 O          -0.3212  -22.6476  -45.6738 O.2       10 UNK        -0.5000 
     22 CA         -0.4731  -20.5128  -44.5968 C.3       10 UNK         0.1400 
     23 CB          0.8476  -19.9467  -44.0533 C.3       10 UNK        -0.1800 
     24 N          -1.3929  -19.4237  -44.9235 N.am      10 UNK        -0.5000 
     25 C          -2.7006  -19.6032  -45.1687 C.2       9 UNK         0.5000 
     26 O          -3.2502  -20.7028  -45.1377 O.2       9 UNK        -0.5000 
     27 CA         -3.5415  -18.3660  -45.5327 C.3       9 UNK         0.1400 
     28 CB         -4.2606  -17.8232  -44.2892 C.3       9 UNK        -0.1800 
     29 N          -2.7520  -17.3074  -46.1599 N.am      9 UNK        -0.5000 
     30 C          -2.2066  -17.4125  -47.3817 C.2       8 UNK         0.5000 
     31 O          -2.3706  -18.3905  -48.1116 O.2       8 UNK        -0.5000 
     32 CA         -1.3105  -16.2544  -47.8656 C.3       8 UNK         0.1400 
     33 CB         -2.1247  -15.3035  -48.7509 C.3       8 UNK        -0.1800 
     34 N          -0.6885  -15.4750  -46.7934 N.am      8 UNK        -0.5000 
     35 C           0.1049  -15.9643  -45.8317 C.2       7 UNK         0.5000 
     36 O           0.3918  -17.1572  -45.7317 O.2       7 UNK        -0.5000 
     37 CA          0.6104  -14.9744  -44.7607 C.3       7 UNK         0.1400 
     38 CB          0.2435  -13.4966  -45.0311 C.3       7 UNK        -0.1800 
     39 N           0.1466  -15.3584  -43.4272 N.am      7 UNK        -0.5000 
     40 C          -1.1231  -15.5690  -43.0499 C.2       6 UNK         0.5000 
     41 O          -2.0952  -15.4657  -43.7996 O.2       6 UNK        -0.5000 
     42 CA         -1.3384  -15.9271  -41.5717 C.3       6 UNK         0.1400 
     43 CB         -0.9177  -17.3781  -41.2878 C.3       6 UNK        -0.1800 
     44 N          -0.6101  -15.0121  -40.6917 N.am      6 UNK        -0.5000 
     45 C          -0.9732  -13.7396  -40.4683 C.2       5 UNK         0.5000 
     46 O          -1.9978  -13.2334  -40.9277 O.2       5 UNK        -0.5000 
     47 CA         -0.0561  -12.8825  -39.5742 C.3       5 UNK         0.1400 
     48 CB         -0.6208  -12.8028  -38.1472 C.3       5 UNK        -0.1800 
     49 N           1.3201  -13.3745  -39.5094 N.am      5 UNK        -0.5000 
     50 C           2.2263  -13.2518  -40.4880 C.2       4 UNK         0.5000 
     51 O           2.0023  -12.6768  -41.5547 O.2       4 UNK        -0.5000 
     52 CA          3.6229  -13.8624  -40.2323 C.3       4 UNK         0.1400 
     53 CB          3.7113  -14.7194  -38.9487 C.3       4 UNK        -0.1800 
     54 N           4.1256  -14.6341  -41.3716 N.am      4 UNK        -0.5000 
     55 C           3.5272  -15.6533  -41.9999 C.2       3 UNK         0.5000 
     56 O           2.3827  -16.0356  -41.7436 O.2       3 UNK        -0.5000 
     57 CA          4.3634  -16.3713  -43.0836 C.3       3 UNK         0.1400 
     58 CB          3.6483  -17.6186  -43.6326 C.3       3 UNK        -0.1800 
     59 N           4.7528  -15.5082  -44.2059 N.am      3 UNK        -0.5000 
     60 C           5.6750  -14.5315  -44.1648 C.2       2 UNK         0.5000 
     61 O           6.2817  -14.2245  -43.1369 O.2       2 UNK        -0.5000 
     62 CA          6.0128  -13.7782  -45.4711 C.3       2 UNK         0.1400 
     63 CB          7.4411  -14.1136  -45.9298 C.3       2 UNK        -0.1800 
     64 N           5.0956  -14.0658  -46.5725 N.am      2 UNK        -0.5000 
     65 C           3.8630  -13.5597  -46.7060 C.2       1 UNK         0.5000 
     66 O           3.4009  -12.7038  -45.9525 O.2       1 UNK        -0.5000 
     67 C          -1.1022  -22.1216  -48.7762 C.2       11 UNK         0.5000 
     68 O          -1.0964  -23.2079  -49.3541 O.2       11 UNK        -0.5000 
     69 N          -2.2233  -21.4251  -48.5279 N.am      12 UNK        -0.5000 
     70 CA         -3.5711  -21.9276  -48.8062 C.3       12 UNK         0.1400 
     71 CB         -4.6083  -20.8243  -48.5684 C.3       12 UNK        -0.1800 
     72 C          -3.9121  -23.1754  -47.9741 C.2       12 UNK         0.5000 
     73 O          -4.4291  -24.1429  -48.5296 O.2       12 UNK        -0.5000 
     74 N          -3.5828  -23.1547  -46.6739 N.am      13 UNK        -0.5000 
     75 CA         -3.7459  -24.2887  -45.7628 C.3       13 UNK         0.1400 
     76 CB         -3.4666  -23.8491  -44.3182 C.3       13 UNK        -0.1800 
     77 C          -2.8668  -25.4899  -46.1513 C.2       13 UNK         0.5000 
     78 O          -3.3538  -26.6205  -46.1367 O.2       13 UNK        -0.5000 
     79 N          -1.6125  -25.2261  -46.5475 N.am      14 UNK        -0.5000 
     80 CA         -0.6782  -26.2313  -47.0657 C.3       14 UNK         0.1400 
     81 CB          0.7079  -25.5975  -47.2533 C.3       14 UNK        -0.1800 
     82 C          -1.1618  -26.8831  -48.3776 C.2       14 UNK         0.5000 
     83 O          -0.9669  -28.0834  -48.5701 O.2       14 UNK        -0.5000 
     84 N          -1.8220  -26.0900  -49.2311 N.am      15 UNK        -0.5000 
     85 CA         -2.4774  -26.5258  -50.4648 C.3       15 UNK         0.1400 
     86 CB         -2.5653  -25.3253  -51.4215 C.3       15 UNK        -0.1800 
     87 C          -3.8765  -27.1392  -50.2393 C.2       15 UNK         0.5000 
     88 O          -4.5307  -27.4975  -51.2187 O.2       15 UNK        -0.5000 
     89 N          -4.3385  -27.2168  -48.9807 N.am      16 UNK        -0.5000 
     90 CA         -5.6532  -27.7052  -48.5426 C.3       16 UNK         0.1400 
     91 CB         -5.7567  -29.2299  -48.7526 C.3       16 UNK        -0.1800 
     92 C          -6.8340  -26.9313  -49.1720 C.2       16 UNK         0.5000 
     93 O          -7.8873  -27.5140  -49.4346 O.2       16 UNK        -0.5000 
     94 N          -6.6146  -25.6330  -49.4274 N.am      17 UNK        -0.5000 
     95 CA         -7.4940  -24.6712  -50.0986 C.3       17 UNK         0.1400 
     96 CB         -8.7835  -24.4436  -49.2836 C.3       17 UNK        -0.1800 
     97 C          -7.7823  -24.9875  -51.5840 C.2       17 UNK         0.5000 
     98 O          -8.6539  -24.3472  -52.1744 O.2       17 UNK        -0.5000 
     99 N          -7.0471  -25.9374  -52.1816 N.am      18 UNK        -0.5000 
    100 CA        -7.1806  -26.3204  -53.5899 C.3       18 UNK         0.1400 
    101 CB        -6.7165  -27.7754  -53.7603 C.3       18 UNK        -0.1800 
    102 C         -6.3989  -25.3901  -54.5380 C.2       18 UNK         0.5000 
    103 O         -6.6366  -25.4223  -55.7464 O.2       18 UNK        -0.5000 
    104 N         -5.4841  -24.5862  -53.9860 N.am      19 UNK        -0.5000 
    105 CA        -4.6449  -23.6233  -54.6877 C.3       19 UNK         0.1400 
    106 CB        -3.4501  -24.3490  -55.3399 C.3       19 UNK        -0.1800 
    107 C         -4.1906  -22.5403  -53.6949 C.2       19 UNK         0.5000 
    108 O         -4.5358  -22.6062  -52.5110 O.2       19 UNK        -0.5000 
    109 N         -3.4153  -21.5746  -54.2049 N.am      20 UNK        -0.5000 
    110 CA        -2.8597  -20.4191  -53.4969 C.3       20 UNK         0.1400 
    111 CB        -1.8526  -20.8616  -52.4139 C.3       20 UNK        -0.1800 
    112 C         -3.9550  -19.4487  -53.0019 C.2       20 UNK         0.5000 
    113 O         -4.9239  -19.2246  -53.7297 O.2       20 UNK        -0.5000 
    114 N         -3.7521  -18.8440  -51.8198 N.am      21 UNK        -0.5000 
    115 CA        -4.5681  -17.7902  -51.1908 C.3       21 UNK         0.1400 
    116 CB        -6.0311  -18.2439  -50.9964 C.3       21 UNK        -0.1800 
    117 C         -4.4856  -16.4177  -51.8997 C.2       21 UNK         0.5000 
    118 O         -5.2047  -15.4929  -51.5201 O.2       21 UNK        -0.5000 
    119 N         -3.6061  -16.3019  -52.8999 N.am      22 UNK        -0.5000 
    120 CA        -3.3606  -15.1092  -53.7248 C.3       22 UNK         0.1400 
    121 C         -2.3999  -14.0581  -53.0978 C.2       22 UNK         0.5000 
    122 N         -1.7973  -14.3126  -51.9456 N.am      22 UNK        -0.7600 
    123 O         -2.2131  -12.9820  -53.6593 O.2       22 UNK        -0.5000 
    124 C124       -2.9572  -15.4892  -55.1798 C.3       23 UNK        -0.0398 
    125 S125       -1.9204  -16.9892  -55.3587 S.3       23 UNK        -0.2404 
    126 C126       -0.2219  -16.3324  -55.3419 C.3       23 UNK        -0.0205 
    127 H127        4.3842  -17.4169  -49.6930 H         1 UNK         0.0600 
    128 H128        5.0102  -18.1549  -48.2160 H         1 UNK         0.0600 
    129 H129        3.3495  -18.4732  -48.7255 H         1 UNK         0.0600 
    130 H130        3.7514  -15.2744  -49.4410 H         1 UNK         0.3000 
    131 H131        2.0446  -14.4163  -47.3631 H         1 UNK         0.0600 
    132 H132        2.2853  -12.1302  -48.3961 H         1 UNK         0.0800 
    133 H133        3.5074  -12.7544  -49.4698 H         1 UNK         0.0800 
    134 H134        2.1834  -13.2311  -52.1960 H         1 UNK         0.0800 
    135 H135        3.2317  -14.2678  -51.2632 H         1 UNK         0.0800 
    136 H136        0.8623  -14.2964  -53.8804 H         1 UNK         0.1150 
    137 H137        0.1664  -18.5261  -53.7668 H         1 UNK         0.1150 
    138 H138        2.1917  -16.6039  -50.5247 H         1 UNK         0.1150 
    139 H139        1.1454  -19.8650  -52.0511 H         1 UNK         0.0800 
    140 H140        2.4590  -19.1596  -51.1443 H         1 UNK         0.0800 
    141 H141        2.0752  -20.6526  -48.8777 H         1 UNK         0.0800 
    142 H142        1.2195  -21.4662  -50.1507 H         1 UNK         0.0800 
    143 H143        0.8187  -22.4502  -47.9724 H         1 UNK         0.0600 
    144 H144        0.0851  -19.8179  -47.0264 H         1 UNK         0.3000 
    145 H145       -0.9294  -21.1147  -43.8079 H         1 UNK         0.0600 
    146 H146        0.6767  -19.2687  -43.2174 H         1 UNK         0.0600 
    147 H147        1.4945  -20.7485  -43.6960 H         1 UNK         0.0600 
    148 H148        1.4010  -19.4016  -44.8182 H         1 UNK         0.0600 
    149 H149       -0.9820  -18.5038  -45.0448 H         1 UNK         0.3000 
    150 H150       -4.3057  -18.6752  -46.2472 H         1 UNK         0.0600 
    151 H151       -4.9743  -18.5543  -43.9076 H         1 UNK         0.0600 
    152 H152       -4.8161  -16.9128  -44.5149 H         1 UNK         0.0600 
    153 H153       -3.5634  -17.6031  -43.4812 H         1 UNK         0.0600 
    154 H154       -2.5471  -16.4935  -45.5901 H         1 UNK         0.3000 
    155 H155       -0.5064  -16.6844  -48.4654 H         1 UNK         0.0600 
    156 H156       -2.9512  -14.8502  -48.2021 H         1 UNK         0.0600 
    157 H157       -2.5490  -15.8353  -49.6014 H         1 UNK         0.0600 
    158 H158       -1.5033  -14.4989  -49.1422 H         1 UNK         0.0600 
    159 H159       -0.9131  -14.4913  -46.7709 H         1 UNK         0.3000 
    160 H160        1.6980  -15.0562  -44.7527 H         1 UNK         0.0600 
    161 H161       -0.8328  -13.3242  -44.9980 H         1 UNK         0.0600 
    162 H162        0.6042  -13.1593  -46.0025 H         1 UNK         0.0600 
    163 H163        0.7004  -12.8476  -44.2834 H         1 UNK         0.0600 
    164 H164        0.8794  -15.5221  -42.7408 H         1 UNK         0.3000 
    165 H165       -2.4061  -15.8405  -41.3584 H         1 UNK         0.0600 
    166 H166        0.1508  -17.5300  -41.4421 H         1 UNK         0.0600 
    167 H167       -1.1500  -17.6605  -40.2610 H         1 UNK         0.0600 
    168 H168       -1.4447  -18.0727  -41.9434 H         1 UNK         0.0600 
    169 H169        0.2675  -15.3406  -40.3147 H         1 UNK         0.3000 
    170 H170       -0.0425  -11.8731  -39.9911 H         1 UNK         0.0600 
    171 H171       -0.6503  -13.7833  -37.6702 H         1 UNK         0.0600 
    172 H172       -1.6381  -12.4090  -38.1507 H         1 UNK         0.0600 
    173 H173       -0.0209  -12.1417  -37.5214 H         1 UNK         0.0600 
    174 H174        1.5867  -13.8583  -38.6641 H         1 UNK         0.3000 
    175 H175        4.3024  -13.0175  -40.1135 H         1 UNK         0.0600 
    176 H176        4.7190  -15.1126  -38.8137 H         1 UNK         0.0600 
    177 H177        3.4822  -14.1324  -38.0585 H         1 UNK         0.0600 
    178 H178        3.0293  -15.5703  -38.9782 H         1 UNK         0.0600 
    179 H179        5.0358  -14.3557  -41.7295 H         1 UNK         0.3000 
    180 H180        5.2774  -16.7154  -42.5954 H         1 UNK         0.0600 
    181 H181        2.7126  -17.3588  -44.1283 H         1 UNK         0.0600 
    182 H182        3.4094  -18.3196  -42.8319 H         1 UNK         0.0600 
    183 H183        4.2714  -18.1496  -44.3522 H         1 UNK         0.0600 
    184 H184        4.3067  -15.7198  -45.0927 H         1 UNK         0.3000 
    185 H185        5.9692  -12.7097  -45.2495 H         1 UNK         0.0600 
    186 H186        7.7152  -13.5423  -46.8170 H         1 UNK         0.0600 
    187 H187        8.1695  -13.8733  -45.1542 H         1 UNK         0.0600 
    188 H188        7.5496  -15.1732  -46.1649 H         1 UNK         0.0600 
    189 H189        5.3878  -14.7751  -47.2288 H         1 UNK         0.3000 
    190 H190       -2.1529  -20.5072  -48.1037 H         1 UNK         0.3000 
    191 H191       -3.6152  -22.2100  -49.8592 H         1 UNK         0.0600 
    192 H192       -4.3498  -19.9185  -49.1131 H         1 UNK         0.0600 
    193 H193       -5.5950  -21.1421  -48.9071 H         1 UNK         0.0600 
    194 H194       -4.6922  -20.5694  -47.5131 H         1 UNK         0.0600 
    195 H195       -3.2153  -22.2997  -46.2673 H         1 UNK         0.3000 
    196 H196       -4.7875  -24.6118  -45.8201 H         1 UNK         0.0600 
    197 H197       -3.5806  -24.6841  -43.6259 H         1 UNK         0.0600 
    198 H198       -4.1613  -23.0703  -44.0036 H         1 UNK         0.0600 
    199 H199       -2.4547  -23.4607  -44.2016 H         1 UNK         0.0600 
    200 H200       -1.2703  -24.2732  -46.4781 H         1 UNK         0.3000 
    201 H201       -0.5923  -27.0196  -46.3151 H         1 UNK         0.0600 
    202 H202        1.0653  -25.1436  -46.3288 H         1 UNK         0.0600 
    203 H203        0.6964  -24.8276  -48.0242 H         1 UNK         0.0600 
    204 H204        1.4405  -26.3477  -47.5530 H         1 UNK         0.0600 
    205 H205       -1.8823  -25.0988  -49.0232 H         1 UNK         0.3000 
    206 H206       -1.8627  -27.2928  -50.9398 H         1 UNK         0.0600 
    207 H207       -1.5778  -24.9185  -51.6394 H         1 UNK         0.0600 
    208 H208       -3.0150  -25.6120  -52.3720 H         1 UNK         0.0600 
    209 H209       -3.1707  -24.5216  -51.0013 H         1 UNK         0.0600 
    210 H210       -3.7446  -26.8689  -48.2380 H         1 UNK         0.3000 
    211 H211       -5.7062  -27.5147  -47.4700 H         1 UNK         0.0600 
    212 H212       -5.7699  -29.4925  -49.8109 H         1 UNK         0.0600 
    213 H213       -6.6689  -29.6264  -48.3055 H         1 UNK         0.0600 
    214 H214       -4.9178  -29.7486  -48.2885 H         1 UNK         0.0600 
    215 H215       -5.7136  -25.2467  -49.1461 H         1 UNK         0.3000 
    216 H216       -6.9422  -23.7299  -50.1032 H         1 UNK         0.0600 
    217 H217       -8.5557  -24.2021  -48.2454 H         1 UNK         0.0600 
    218 H218       -9.4288  -25.3222  -49.2912 H         1 UNK         0.0600 
    219 H219       -9.3616  -23.6122  -49.6882 H         1 UNK         0.0600 
    220 H220       -6.3377  -26.4270  -51.6473 H         1 UNK         0.3000 
    221 H221       -8.2341  -26.2708  -53.8732 H         1 UNK         0.0600 
    222 H222       -5.6467  -27.8815  -53.5791 H         1 UNK         0.0600 
    223 H223       -7.2417  -28.4421  -53.0760 H         1 UNK         0.0600 
    224 H224       -6.9108  -28.1292  -54.7734 H         1 UNK         0.0600 
    225 H225       -5.3927  -24.5590  -52.9786 H         1 UNK         0.3000 
    226 H226       -5.2391  -23.1325  -55.4612 H         1 UNK         0.0600 
    227 H227       -3.7834  -25.1399  -56.0119 H         1 UNK         0.0600 
    228 H228       -2.8439  -23.6645  -55.9335 H         1 UNK         0.0600 
    229 H229       -2.7970  -24.8007  -54.5933 H         1 UNK         0.0600 
    230 H230       -3.2236  -21.5970  -55.1963 H         1 UNK         0.3000 
    231 H231       -2.2951  -19.8616  -54.2451 H         1 UNK         0.0600 
    232 H232       -1.3235  -20.0045  -52.0022 H         1 UNK         0.0600 
    233 H233       -1.0989  -21.5311  -52.8281 H         1 UNK         0.0600 
    234 H234       -2.3369  -21.3819  -51.5895 H         1 UNK         0.0600 
    235 H235       -2.9228  -19.1007  -51.3017 H         1 UNK         0.3000 
    236 H236       -4.1404  -17.6426  -50.1986 H         1 UNK         0.0600 
    237 H237       -6.5563  -17.5756  -50.3133 H         1 UNK         0.0600 
    238 H238       -6.5841  -18.2430  -51.9359 H         1 UNK         0.0600 
    239 H239       -6.0911  -19.2477  -50.5787 H         1 UNK         0.0600 
    240 H240       -3.0544  -17.1090  -53.1490 H         1 UNK         0.3000 
    241 H241       -4.3109  -14.5774  -53.8024 H         1 UNK         0.0600 
    242 H242       -1.9124  -15.2062  -51.5013 H         1 UNK         0.3800 
    243 H243       -1.1658  -13.6317  -51.5554 H         1 UNK         0.3800 
    244 H244       -3.8716  -15.6964  -55.7371 H         1 UNK         0.0800 
    245 H245       -2.4971  -14.6541  -55.7107 H         1 UNK         0.0800 
    246 H246        0.3829  -16.9262  -56.0284 H         1 UNK         0.0800 
    247 H247       -0.2115  -15.3143  -55.7335 H         1 UNK         0.0800 
@<TRIPOS>BOND
     1    1    2 1    
     2    1  127 1    
     3    1  128 1    
     4    1  129 1    
     5    2    3 2    
     6    2    4 am   BACKBONE|DICT|INTERRES
     7    4    5 1    
     8    4  130 1    
     9    5    6 1    
    10    5   65 1    
    11    5  131 1    
    12    6    7 1    
    13    6  132 1    
    14    6  133 1    
    15    7    8 1    
    16    8    9 1    
    17    8  134 1    
    18    8  135 1    
    19    9   10 ar   
    20    9   14 ar   
    21   10   11 ar   
    22   10  136 1    
    23   11   12 ar   
    24   11  126 1    
    25   12   13 ar   
    26   12  137 1    
    27   13   14 ar   
    28   13   15 1    
    29   14  138 1    
    30   15   16 1    
    31   15  139 1    
    32   15  140 1    
    33   16   17 1    
    34   17   18 1    
    35   17  141 1    
    36   17  142 1    
    37   18   19 1    
    38   18   67 1    
    39   18  143 1    
    40   19   20 am   BACKBONE|DICT|INTERRES
    41   19  144 1    
    42   20   21 2    
    43   20   22 1    
    44   22   23 1    
    45   22   24 1    
    46   22  145 1    
    47   23  146 1    
    48   23  147 1    
    49   23  148 1    
    50   24   25 am   BACKBONE|DICT|INTERRES
    51   24  149 1    
    52   25   26 2    
    53   25   27 1    
    54   27   28 1    
    55   27   29 1    
    56   27  150 1    
    57   28  151 1    
    58   28  152 1    
    59   28  153 1    
    60   29   30 am   BACKBONE|DICT|INTERRES
    61   29  154 1    
    62   30   31 2    
    63   30   32 1    
    64   32   33 1    
    65   32   34 1    
    66   32  155 1    
    67   33  156 1    
    68   33  157 1    
    69   33  158 1    
    70   34   35 am   BACKBONE|DICT|INTERRES
    71   34  159 1    
    72   35   36 2    
    73   35   37 1    
    74   37   38 1    
    75   37   39 1    
    76   37  160 1    
    77   38  161 1    
    78   38  162 1    
    79   38  163 1    
    80   39   40 am   BACKBONE|DICT|INTERRES
    81   39  164 1    
    82   40   41 2    
    83   40   42 1    
    84   42   43 1    
    85   42   44 1    
    86   42  165 1    
    87   43  166 1    
    88   43  167 1    
    89   43  168 1    
    90   44   45 am   BACKBONE|DICT|INTERRES
    91   44  169 1    
    92   45   46 2    
    93   45   47 1    
    94   47   48 1    
    95   47   49 1    
    96   47  170 1    
    97   48  171 1    
    98   48  172 1    
    99   48  173 1    
   100   49   50 am   BACKBONE|DICT|INTERRES
   101   49  174 1    
   102   50   51 2    
   103   50   52 1    
   104   52   53 1    
   105   52   54 1    
   106   52  175 1    
   107   53  176 1    
   108   53  177 1    
   109   53  178 1    
   110   54   55 am   BACKBONE|DICT|INTERRES
   111   54  179 1    
   112   55   56 2    
   113   55   57 1    
   114   57   58 1    
   115   57   59 1    
   116   57  180 1    
   117   58  181 1    
   118   58  182 1    
   119   58  183 1    
   120   59   60 am   BACKBONE|DICT|INTERRES
   121   59  184 1    
   122   60   61 2    
   123   60   62 1    
   124   62   63 1    
   125   62   64 1    
   126   62  185 1    
   127   63  186 1    
   128   63  187 1    
   129   63  188 1    
   130   64   65 am   BACKBONE|DICT|INTERRES
   131   64  189 1    
   132   65   66 2    
   133   67   68 2    
   134   67   69 am   BACKBONE|DICT|INTERRES
   135   69   70 1    
   136   69  190 1    
   137   70   71 1    
   138   70   72 1    
   139   70  191 1    
   140   71  192 1    
   141   71  193 1    
   142   71  194 1    
   143   72   73 2    
   144   72   74 am   BACKBONE|DICT|INTERRES
   145   74   75 1    
   146   74  195 1    
   147   75   76 1    
   148   75   77 1    
   149   75  196 1    
   150   76  197 1    
   151   76  198 1    
   152   76  199 1    
   153   77   78 2    
   154   77   79 am   BACKBONE|DICT|INTERRES
   155   79   80 1    
   156   79  200 1    
   157   80   81 1    
   158   80   82 1    
   159   80  201 1    
   160   81  202 1    
   161   81  203 1    
   162   81  204 1    
   163   82   83 2    
   164   82   84 am   BACKBONE|DICT|INTERRES
   165   84   85 1    
   166   84  205 1    
   167   85   86 1    
   168   85   87 1    
   169   85  206 1    
   170   86  207 1    
   171   86  208 1    
   172   86  209 1    
   173   87   88 2    
   174   87   89 am   BACKBONE|DICT|INTERRES
   175   89   90 1    
   176   89  210 1    
   177   90   91 1    
   178   90   92 1    
   179   90  211 1    
   180   91  212 1    
   181   91  213 1    
   182   91  214 1    
   183   92   93 2    
   184   92   94 am   BACKBONE|DICT|INTERRES
   185   94   95 1    
   186   94  215 1    
   187   95   96 1    
   188   95   97 1    
   189   95  216 1    
   190   96  217 1    
   191   96  218 1    
   192   96  219 1    
   193   97   98 2    
   194   97   99 am   BACKBONE|DICT|INTERRES
   195   99  100 1    
   196   99  220 1    
   197  100  101 1    
   198  100  102 1    
   199  100  221 1    
   200  101  222 1    
   201  101  223 1    
   202  101  224 1    
   203  102  103 2    
   204  102  104 am   BACKBONE|DICT|INTERRES
   205  104  105 1    
   206  104  225 1    
   207  105  106 1    
   208  105  107 1    
   209  105  226 1    
   210  106  227 1    
   211  106  228 1    
   212  106  229 1    
   213  107  108 2    
   214  107  109 am   BACKBONE|DICT|INTERRES
   215  109  110 1    
   216  109  230 1    
   217  110  111 1    
   218  110  112 1    
   219  110  231 1    
   220  111  232 1    
   221  111  233 1    
   222  111  234 1    
   223  112  113 2    
   224  112  114 am   BACKBONE|DICT|INTERRES
   225  114  115 1    
   226  114  235 1    
   227  115  116 1    
   228  115  117 1    
   229  115  236 1    
   230  116  237 1    
   231  116  238 1    
   232  116  239 1    
   233  117  118 2    
   234  117  119 am   BACKBONE|DICT|INTERRES
   235  119  120 1    
   236  119  240 1    
   237  120  121 1    
   238  120  124 1    
   239  120  241 1    
   240  121  122 am   BACKBONE|DICT|INTERRES
   241  121  123 2    
   242  122  242 1    
   243  122  243 1    
   244  124  125 1    
   245  124  244 1    
   246  124  245 1    
   247  125  126 1    
   248  126  246 1    
   249  126  247 1    
@<TRIPOS>SUBSTRUCTURE
     1 UNK         1 GROUP             0       ****    0 ROOT    
