@<TRIPOS>MOLECULE
3R540
247   249    1
SMALL
USER_CHARGES


@<TRIPOS>ATOM
      1 CA          2.0828  -18.2838  -48.9279 C.3       0 UNK        -0.1800 
      2 C           2.2451  -17.1300  -47.9498 C.2       0 UNK         0.5000 
      3 O           2.8729  -17.2986  -46.9043 O.2       0 UNK        -0.5000 
      4 N           1.6764  -15.9652  -48.2837 N.am      1 UNK        -0.5000 
      5 CA          1.7504  -14.7321  -47.4966 C.3       1 UNK         0.1400 
      6 C6          0.7585  -13.6416  -47.9874 C.3       23 UNK        -0.0398 
      7 S7          0.7610  -13.3462  -49.7956 S.3       23 UNK        -0.2404 
      8 C8         -0.9141  -13.8754  -50.2887 C.3       23 UNK        -0.0205 
      9 C9         -1.1014  -15.3780  -50.1452 C.ar      23 UNK        -0.0193 
     10 C10        -0.6707  -16.2457  -51.1529 C.ar      23 UNK        -0.1150 
     11 C11        -0.8008  -17.6301  -51.0014 C.ar      23 UNK        -0.0193 
     12 C12        -1.3577  -18.1457  -49.8278 C.ar      23 UNK        -0.1150 
     13 C13        -1.7906  -17.2848  -48.8152 C.ar      23 UNK        -0.0193 
     14 C14        -1.6836  -15.9043  -48.9903 C.ar      23 UNK        -0.1150 
     15 C15        -2.3136  -17.8384  -47.5035 C.3       23 UNK        -0.0205 
     16 S16        -0.9685  -17.8603  -46.2786 S.3       23 UNK        -0.2404 
     17 C17        -1.3057  -19.3916  -45.3627 C.3       23 UNK        -0.0398 
     18 CA         -0.6730  -20.6271  -46.0570 C.3       11 UNK         0.1400 
     19 N           0.0520  -21.4893  -45.1223 N.am      11 UNK        -0.5000 
     20 C           0.8721  -22.4842  -45.4966 C.2       10 UNK         0.5000 
     21 O           1.1355  -22.7454  -46.6698 O.2       10 UNK        -0.5000 
     22 CA          1.4574  -23.3728  -44.3818 C.3       10 UNK         0.1400 
     23 CB          2.8010  -22.8090  -43.8971 C.3       10 UNK        -0.1800 
     24 N           0.5603  -23.5215  -43.2368 N.am      10 UNK        -0.5000 
     25 C          -0.6828  -24.0221  -43.2830 C.2       9 UNK         0.5000 
     26 O          -1.1783  -24.5206  -44.2939 O.2       9 UNK        -0.5000 
     27 CA         -1.5330  -23.8887  -42.0038 C.3       9 UNK         0.1400 
     28 CB         -1.5845  -25.2268  -41.2522 C.3       9 UNK        -0.1800 
     29 N          -1.0591  -22.8409  -41.0902 N.am      9 UNK        -0.5000 
     30 C          -1.0356  -21.5272  -41.3605 C.2       8 UNK         0.5000 
     31 O          -1.4557  -21.0485  -42.4168 O.2       8 UNK        -0.5000 
     32 CA         -0.4074  -20.6379  -40.2660 C.3       8 UNK         0.1400 
     33 CB          1.0892  -20.9655  -40.0721 C.3       8 UNK        -0.1800 
     34 N          -0.5981  -19.1941  -40.4599 N.am      8 UNK        -0.5000 
     35 C          -0.0906  -18.4049  -41.4179 C.2       7 UNK         0.5000 
     36 O           0.6349  -18.7878  -42.3389 O.2       7 UNK        -0.5000 
     37 CA         -0.4109  -16.9099  -41.2846 C.3       7 UNK         0.1400 
     38 CB          0.6796  -16.1961  -40.4620 C.3       7 UNK        -0.1800 
     39 N          -0.5193  -16.3093  -42.6112 N.am      7 UNK        -0.5000 
     40 C          -1.1140  -15.1400  -42.8702 C.2       6 UNK         0.5000 
     41 O          -1.6362  -14.4306  -42.0065 O.2       6 UNK        -0.5000 
     42 CA         -1.1760  -14.6983  -44.3426 C.3       6 UNK         0.1400 
     43 CB         -2.5774  -14.9545  -44.9195 C.3       6 UNK        -0.1800 
     44 N          -0.8719  -13.2754  -44.4741 N.am      6 UNK        -0.5000 
     45 C           0.3523  -12.7458  -44.3763 C.2       5 UNK         0.5000 
     46 O           1.3796  -13.4237  -44.2827 O.2       5 UNK        -0.5000 
     47 CA          0.4638  -11.2100  -44.4686 C.3       5 UNK         0.1400 
     48 CB         -0.8407  -10.4486  -44.1391 C.3       5 UNK        -0.1800 
     49 N           1.6003  -10.7124  -43.6906 N.am      5 UNK        -0.5000 
     50 C           1.7365  -10.6779  -42.3558 C.2       4 UNK         0.5000 
     51 O           0.8344  -10.9744  -41.5715 O.2       4 UNK        -0.5000 
     52 CA          3.1141  -10.2591  -41.7890 C.3       4 UNK         0.1400 
     53 CB          3.5783  -11.2282  -40.6873 C.3       4 UNK        -0.1800 
     54 N           4.1596  -10.1982  -42.8123 N.am      4 UNK        -0.5000 
     55 C           4.4355   -9.1493  -43.5994 C.2       3 UNK         0.5000 
     56 O           3.8916   -8.0504  -43.4916 O.2       3 UNK        -0.5000 
     57 CA          5.4622   -9.3899  -44.7288 C.3       3 UNK         0.1400 
     58 CB          6.8546   -8.8994  -44.3040 C.3       3 UNK        -0.1800 
     59 N           5.5549  -10.7971  -45.1423 N.am      3 UNK        -0.5000 
     60 C           4.5536  -11.4986  -45.6929 C.2       2 UNK         0.5000 
     61 O           3.4650  -10.9962  -45.9847 O.2       2 UNK        -0.5000 
     62 CA          4.7940  -13.0060  -45.9018 C.3       2 UNK         0.1400 
     63 CB          5.3671  -13.6722  -44.6365 C.3       2 UNK        -0.1800 
     64 N           3.5284  -13.6620  -46.2181 N.am      2 UNK        -0.5000 
     65 C           3.1923  -14.1884  -47.3985 C.2       1 UNK         0.5000 
     66 O           3.9475  -14.2416  -48.3732 O.2       1 UNK        -0.5000 
     67 C          -1.7335  -21.4242  -46.8373 C.2       11 UNK         0.5000 
     68 O          -1.8039  -21.3134  -48.0606 O.2       11 UNK        -0.5000 
     69 N          -2.5148  -22.2427  -46.1168 N.am      12 UNK        -0.5000 
     70 CA         -3.5288  -23.1247  -46.6934 C.3       12 UNK         0.1400 
     71 CB         -4.3718  -23.7624  -45.5800 C.3       12 UNK        -0.1800 
     72 C          -2.9114  -24.1979  -47.6035 C.2       12 UNK         0.5000 
     73 O          -3.4658  -24.4697  -48.6676 O.2       12 UNK        -0.5000 
     74 N          -1.7580  -24.7463  -47.1960 N.am      13 UNK        -0.5000 
     75 CA         -0.9573  -25.6829  -47.9838 C.3       13 UNK         0.1400 
     76 CB          0.1928  -26.2324  -47.1273 C.3       13 UNK        -0.1800 
     77 C          -0.4298  -25.0564  -49.2885 C.2       13 UNK         0.5000 
     78 O          -0.5937  -25.6568  -50.3508 O.2       13 UNK        -0.5000 
     79 N           0.1386  -23.8437  -49.2000 N.am      14 UNK        -0.5000 
     80 CA          0.6155  -23.0563  -50.3437 C.3       14 UNK         0.1400 
     81 CB          1.3341  -21.7975  -49.8361 C.3       14 UNK        -0.1800 
     82 C          -0.5088  -22.6729  -51.3248 C.2       14 UNK         0.5000 
     83 O          -0.2899  -22.6671  -52.5358 O.2       14 UNK        -0.5000 
     84 N          -1.7015  -22.4055  -50.7804 N.am      15 UNK        -0.5000 
     85 CA         -2.9369  -22.1433  -51.5151 C.3       15 UNK         0.1400 
     86 CB         -3.8904  -21.3718  -50.5895 C.3       15 UNK        -0.1800 
     87 C          -3.6147  -23.4086  -52.0869 C.2       15 UNK         0.5000 
     88 O          -4.6708  -23.2728  -52.7060 O.2       15 UNK        -0.5000 
     89 N          -3.0185  -24.5930  -51.8783 N.am      16 UNK        -0.5000 
     90 CA         -3.4665  -25.9206  -52.3118 C.3       16 UNK         0.1400 
     91 CB         -3.5375  -26.0173  -53.8483 C.3       16 UNK        -0.1800 
     92 C          -4.7758  -26.3423  -51.6213 C.2       16 UNK         0.5000 
     93 O          -5.8003  -26.5271  -52.2785 O.2       16 UNK        -0.5000 
     94 N          -4.7063  -26.4598  -50.2892 N.am      17 UNK        -0.5000 
     95 CA         -5.8016  -26.7646  -49.3623 C.3       17 UNK         0.1400 
     96 CB         -6.4042  -28.1597  -49.6322 C.3       17 UNK        -0.1800 
     97 C          -6.8485  -25.6341  -49.3266 C.2       17 UNK         0.5000 
     98 O          -8.0525  -25.8956  -49.3301 O.2       17 UNK        -0.5000 
     99 N          -6.3450  -24.3906  -49.3005 N.am      18 UNK        -0.5000 
    100 CA        -7.0921  -23.1281  -49.2645 C.3       18 UNK         0.1400 
    101 CB        -7.8744  -22.9924  -47.9416 C.3       18 UNK        -0.1800 
    102 C         -7.9687  -22.8764  -50.5128 C.2       18 UNK         0.5000 
    103 O         -8.9500  -22.1358  -50.4319 O.2       18 UNK        -0.5000 
    104 N         -7.5896  -23.4670  -51.6553 N.am      19 UNK        -0.5000 
    105 CA        -8.2478  -23.2765  -52.9512 C.3       19 UNK         0.1400 
    106 CB        -7.8698  -24.4448  -53.8747 C.3       19 UNK        -0.1800 
    107 C         -7.8904  -21.9336  -53.6200 C.2       19 UNK         0.5000 
    108 O         -8.5957  -21.5113  -54.5367 O.2       19 UNK        -0.5000 
    109 N         -6.7946  -21.3105  -53.1613 N.am      20 UNK        -0.5000 
    110 CA        -6.1500  -20.1043  -53.6911 C.3       20 UNK         0.1400 
    111 CB        -7.0940  -18.8849  -53.6516 C.3       20 UNK        -0.1800 
    112 C         -5.5158  -20.3470  -55.0750 C.2       20 UNK         0.5000 
    113 O         -5.4618  -19.4365  -55.9044 O.2       20 UNK        -0.5000 
    114 N         -5.0124  -21.5731  -55.2887 N.am      21 UNK        -0.5000 
    115 CA        -4.3838  -22.0252  -56.5350 C.3       21 UNK         0.1400 
    116 CB        -4.1148  -23.5319  -56.4367 C.3       21 UNK        -0.1800 
    117 C         -3.0849  -21.2741  -56.8894 C.2       21 UNK         0.5000 
    118 O         -2.6941  -21.2528  -58.0571 O.2       21 UNK        -0.5000 
    119 N         -2.4559  -20.6594  -55.8811 N.am      22 UNK        -0.5000 
    120 CA        -1.3190  -19.7418  -56.0192 C.3       22 UNK         0.1400 
    121 C         -1.6620  -18.3632  -56.6649 C.2       22 UNK         0.5000 
    122 N         -2.9278  -17.9941  -56.8342 N.am      22 UNK        -0.7600 
    123 O         -0.7570  -17.6194  -57.0335 O.2       22 UNK        -0.5000 
    124 C124       -0.5652  -19.5848  -54.6741 C.3       23 UNK        -0.0398 
    125 S125       -1.5876  -18.8860  -53.3291 S.3       23 UNK        -0.2404 
    126 C126       -0.2996  -18.5644  -52.0893 C.3       23 UNK        -0.0205 
    127 H127        1.2534  -18.9173  -48.6158 H         1 UNK         0.0600 
    128 H128        2.9871  -18.8916  -48.9571 H         1 UNK         0.0600 
    129 H129        1.8848  -17.9259  -49.9380 H         1 UNK         0.0600 
    130 H130        1.1744  -15.8849  -49.1571 H         1 UNK         0.3000 
    131 H131        1.4452  -15.0075  -46.4852 H         1 UNK         0.0600 
    132 H132       -0.2477  -13.9050  -47.6660 H         1 UNK         0.0800 
    133 H133        0.9611  -12.6894  -47.4939 H         1 UNK         0.0800 
    134 H134       -1.6572  -13.3361  -49.6992 H         1 UNK         0.0800 
    135 H135       -1.0832  -13.5858  -51.3269 H         1 UNK         0.0800 
    136 H136       -0.2219  -15.8435  -52.0506 H         1 UNK         0.1150 
    137 H137       -1.4301  -19.2158  -49.6929 H         1 UNK         0.1150 
    138 H138       -2.0179  -15.2429  -48.2052 H         1 UNK         0.1150 
    139 H139       -3.1348  -17.2240  -47.1321 H         1 UNK         0.0800 
    140 H140       -2.7232  -18.8358  -47.6585 H         1 UNK         0.0800 
    141 H141       -2.3786  -19.4943  -45.1868 H         1 UNK         0.0800 
    142 H142       -0.8717  -19.2507  -44.3745 H         1 UNK         0.0800 
    143 H143        0.0664  -20.2869  -46.7859 H         1 UNK         0.0600 
    144 H144       -0.1418  -21.3494  -44.1378 H         1 UNK         0.3000 
    145 H145        1.6304  -24.3656  -44.8009 H         1 UNK         0.0600 
    146 H146        3.2635  -23.4669  -43.1611 H         1 UNK         0.0600 
    147 H147        3.5025  -22.7062  -44.7261 H         1 UNK         0.0600 
    148 H148        2.6836  -21.8243  -43.4422 H         1 UNK         0.0600 
    149 H149        0.8835  -23.1425  -42.3597 H         1 UNK         0.3000 
    150 H150       -2.5474  -23.6303  -42.3148 H         1 UNK         0.0600 
    151 H151       -1.9592  -26.0230  -41.8971 H         1 UNK         0.0600 
    152 H152       -2.2490  -25.1702  -40.3898 H         1 UNK         0.0600 
    153 H153       -0.5978  -25.5282  -40.8982 H         1 UNK         0.0600 
    154 H154       -0.7066  -23.1591  -40.1987 H         1 UNK         0.3000 
    155 H155       -0.9248  -20.8785  -39.3361 H         1 UNK         0.0600 
    156 H156        1.6576  -20.8401  -40.9943 H         1 UNK         0.0600 
    157 H157        1.5376  -20.3225  -39.3146 H         1 UNK         0.0600 
    158 H158        1.2325  -21.9945  -39.7410 H         1 UNK         0.0600 
    159 H159       -1.1957  -18.7594  -39.7708 H         1 UNK         0.3000 
    160 H160       -1.3716  -16.8076  -40.7750 H         1 UNK         0.0600 
    161 H161        1.6482  -16.2391  -40.9617 H         1 UNK         0.0600 
    162 H162        0.7953  -16.6573  -39.4804 H         1 UNK         0.0600 
    163 H163        0.4358  -15.1465  -40.2973 H         1 UNK         0.0600 
    164 H164       -0.1251  -16.8674  -43.3586 H         1 UNK         0.3000 
    165 H165       -0.4471  -15.2694  -44.9201 H         1 UNK         0.0600 
    166 H166       -2.6205  -14.7025  -45.9785 H         1 UNK         0.0600 
    167 H167       -2.8564  -16.0040  -44.8212 H         1 UNK         0.0600 
    168 H168       -3.3387  -14.3676  -44.4042 H         1 UNK         0.0600 
    169 H169       -1.6652  -12.6527  -44.5139 H         1 UNK         0.3000 
    170 H170        0.7071  -10.9932  -45.5094 H         1 UNK         0.0600 
    171 H171       -1.2424  -10.7229  -43.1631 H         1 UNK         0.0600 
    172 H172       -0.6750   -9.3711  -44.1390 H         1 UNK         0.0600 
    173 H173       -1.6133  -10.6493  -44.8821 H         1 UNK         0.0600 
    174 H174        2.4179  -10.5038  -44.2511 H         1 UNK         0.3000 
    175 H175        2.9914   -9.2707  -41.3417 H         1 UNK         0.0600 
    176 H176        4.5422  -10.9265  -40.2768 H         1 UNK         0.0600 
    177 H177        3.6771  -12.2469  -41.0645 H         1 UNK         0.0600 
    178 H178        2.8703  -11.2521  -39.8580 H         1 UNK         0.0600 
    179 H179        4.6628  -11.0563  -42.9811 H         1 UNK         0.3000 
    180 H180        5.1411   -8.8053  -45.5935 H         1 UNK         0.0600 
    181 H181        7.2379   -9.4633  -43.4525 H         1 UNK         0.0600 
    182 H182        6.8271   -7.8477  -44.0156 H         1 UNK         0.0600 
    183 H183        7.5719   -8.9920  -45.1197 H         1 UNK         0.0600 
    184 H184        6.4266  -11.2655  -44.9404 H         1 UNK         0.3000 
    185 H185        5.5088  -13.1207  -46.7187 H         1 UNK         0.0600 
    186 H186        4.7276  -13.5054  -43.7684 H         1 UNK         0.0600 
    187 H187        5.4623  -14.7497  -44.7732 H         1 UNK         0.0600 
    188 H188        6.3617  -13.2957  -44.3962 H         1 UNK         0.0600 
    189 H189        2.8216  -13.6112  -45.4873 H         1 UNK         0.3000 
    190 H190       -2.3635  -22.3117  -45.1210 H         1 UNK         0.3000 
    191 H191       -4.1930  -22.5124  -47.3064 H         1 UNK         0.0600 
    192 H192       -4.8615  -23.0018  -44.9717 H         1 UNK         0.0600 
    193 H193       -5.1548  -24.3949  -46.0005 H         1 UNK         0.0600 
    194 H194       -3.7696  -24.3851  -44.9184 H         1 UNK         0.0600 
    195 H195       -1.4072  -24.5027  -46.2750 H         1 UNK         0.3000 
    196 H196       -1.6038  -26.5202  -48.2546 H         1 UNK         0.0600 
    197 H197        0.7558  -26.9904  -47.6732 H         1 UNK         0.0600 
    198 H198       -0.1812  -26.6974  -46.2149 H         1 UNK         0.0600 
    199 H199        0.8937  -25.4493  -46.8405 H         1 UNK         0.0600 
    200 H200        0.2701  -23.4272  -48.2825 H         1 UNK         0.3000 
    201 H201        1.3377  -23.6663  -50.8899 H         1 UNK         0.0600 
    202 H202        2.1833  -22.0552  -49.2032 H         1 UNK         0.0600 
    203 H203        0.6643  -21.1640  -49.2545 H         1 UNK         0.0600 
    204 H204        1.7159  -21.2007  -50.6653 H         1 UNK         0.0600 
    205 H205       -1.7665  -22.3636  -49.7679 H         1 UNK         0.3000 
    206 H206       -2.7049  -21.5045  -52.3684 H         1 UNK         0.0600 
    207 H207       -3.4701  -20.4043  -50.3158 H         1 UNK         0.0600 
    208 H208       -4.8533  -21.1805  -51.0599 H         1 UNK         0.0600 
    209 H209       -4.0766  -21.9222  -49.6687 H         1 UNK         0.0600 
    210 H210       -2.1649  -24.5955  -51.3328 H         1 UNK         0.3000 
    211 H211       -2.6995  -26.6226  -51.9814 H         1 UNK         0.0600 
    212 H212       -4.3479  -25.4126  -54.2534 H         1 UNK         0.0600 
    213 H213       -3.7170  -27.0460  -54.1622 H         1 UNK         0.0600 
    214 H214       -2.6046  -25.6934  -54.3092 H         1 UNK         0.0600 
    215 H215       -3.8478  -26.1614  -49.8412 H         1 UNK         0.3000 
    216 H216       -5.3552  -26.7916  -48.3671 H         1 UNK         0.0600 
    217 H217       -7.1117  -28.4345  -48.8493 H         1 UNK         0.0600 
    218 H218       -5.6297  -28.9263  -49.6528 H         1 UNK         0.0600 
    219 H219       -6.9403  -28.1978  -50.5808 H         1 UNK         0.0600 
    220 H220       -5.3324  -24.3094  -49.2871 H         1 UNK         0.3000 
    221 H221       -6.3442  -22.3364  -49.2702 H         1 UNK         0.0600 
    222 H222       -8.6965  -23.7058  -47.8811 H         1 UNK         0.0600 
    223 H223       -7.2251  -23.1539  -47.0812 H         1 UNK         0.0600 
    224 H224       -8.3014  -21.9942  -47.8389 H         1 UNK         0.0600 
    225 H225       -6.7701  -24.0602  -51.6539 H         1 UNK         0.3000 
    226 H226       -9.3294  -23.2951  -52.8022 H         1 UNK         0.0600 
    227 H227       -8.1653  -25.4006  -53.4417 H         1 UNK         0.0600 
    228 H228       -8.3666  -24.3585  -54.8418 H         1 UNK         0.0600 
    229 H229       -6.7954  -24.4800  -54.0595 H         1 UNK         0.0600 
    230 H230       -6.2584  -21.8218  -52.4723 H         1 UNK         0.3000 
    231 H231       -5.3173  -19.8856  -53.0220 H         1 UNK         0.0600 
    232 H232       -7.9056  -18.9722  -54.3740 H         1 UNK         0.0600 
    233 H233       -6.5522  -17.9672  -53.8833 H         1 UNK         0.0600 
    234 H234       -7.5351  -18.7596  -52.6627 H         1 UNK         0.0600 
    235 H235       -5.0754  -22.2550  -54.5409 H         1 UNK         0.3000 
    236 H236       -5.0941  -21.8538  -57.3462 H         1 UNK         0.0600 
    237 H237       -5.0279  -24.0847  -56.2151 H         1 UNK         0.0600 
    238 H238       -3.7182  -23.9212  -57.3752 H         1 UNK         0.0600 
    239 H239       -3.3846  -23.7494  -55.6572 H         1 UNK         0.0600 
    240 H240       -2.8559  -20.7236  -54.9579 H         1 UNK         0.3000 
    241 H241       -0.6210  -20.2143  -56.7129 H         1 UNK         0.0600 
    242 H242       -3.1273  -17.1024  -57.2586 H         1 UNK         0.3800 
    243 H243       -3.6946  -18.5833  -56.5304 H         1 UNK         0.3800 
    244 H244       -0.1937  -20.5572  -54.3477 H         1 UNK         0.0800 
    245 H245        0.3199  -18.9617  -54.8128 H         1 UNK         0.0800 
    246 H246        0.0272  -19.5111  -51.6569 H         1 UNK         0.0800 
    247 H247        0.5765  -18.1251  -52.5687 H         1 UNK         0.0800 
@<TRIPOS>BOND
     1    1    2 1    
     2    1  127 1    
     3    1  128 1    
     4    1  129 1    
     5    2    3 2    
     6    2    4 am   BACKBONE|DICT|INTERRES
     7    4    5 1    
     8    4  130 1    
     9    5    6 1    
    10    5   65 1    
    11    5  131 1    
    12    6    7 1    
    13    6  132 1    
    14    6  133 1    
    15    7    8 1    
    16    8    9 1    
    17    8  134 1    
    18    8  135 1    
    19    9   10 ar   
    20    9   14 ar   
    21   10   11 ar   
    22   10  136 1    
    23   11   12 ar   
    24   11  126 1    
    25   12   13 ar   
    26   12  137 1    
    27   13   14 ar   
    28   13   15 1    
    29   14  138 1    
    30   15   16 1    
    31   15  139 1    
    32   15  140 1    
    33   16   17 1    
    34   17   18 1    
    35   17  141 1    
    36   17  142 1    
    37   18   19 1    
    38   18   67 1    
    39   18  143 1    
    40   19   20 am   BACKBONE|DICT|INTERRES
    41   19  144 1    
    42   20   21 2    
    43   20   22 1    
    44   22   23 1    
    45   22   24 1    
    46   22  145 1    
    47   23  146 1    
    48   23  147 1    
    49   23  148 1    
    50   24   25 am   BACKBONE|DICT|INTERRES
    51   24  149 1    
    52   25   26 2    
    53   25   27 1    
    54   27   28 1    
    55   27   29 1    
    56   27  150 1    
    57   28  151 1    
    58   28  152 1    
    59   28  153 1    
    60   29   30 am   BACKBONE|DICT|INTERRES
    61   29  154 1    
    62   30   31 2    
    63   30   32 1    
    64   32   33 1    
    65   32   34 1    
    66   32  155 1    
    67   33  156 1    
    68   33  157 1    
    69   33  158 1    
    70   34   35 am   BACKBONE|DICT|INTERRES
    71   34  159 1    
    72   35   36 2    
    73   35   37 1    
    74   37   38 1    
    75   37   39 1    
    76   37  160 1    
    77   38  161 1    
    78   38  162 1    
    79   38  163 1    
    80   39   40 am   BACKBONE|DICT|INTERRES
    81   39  164 1    
    82   40   41 2    
    83   40   42 1    
    84   42   43 1    
    85   42   44 1    
    86   42  165 1    
    87   43  166 1    
    88   43  167 1    
    89   43  168 1    
    90   44   45 am   BACKBONE|DICT|INTERRES
    91   44  169 1    
    92   45   46 2    
    93   45   47 1    
    94   47   48 1    
    95   47   49 1    
    96   47  170 1    
    97   48  171 1    
    98   48  172 1    
    99   48  173 1    
   100   49   50 am   BACKBONE|DICT|INTERRES
   101   49  174 1    
   102   50   51 2    
   103   50   52 1    
   104   52   53 1    
   105   52   54 1    
   106   52  175 1    
   107   53  176 1    
   108   53  177 1    
   109   53  178 1    
   110   54   55 am   BACKBONE|DICT|INTERRES
   111   54  179 1    
   112   55   56 2    
   113   55   57 1    
   114   57   58 1    
   115   57   59 1    
   116   57  180 1    
   117   58  181 1    
   118   58  182 1    
   119   58  183 1    
   120   59   60 am   BACKBONE|DICT|INTERRES
   121   59  184 1    
   122   60   61 2    
   123   60   62 1    
   124   62   63 1    
   125   62   64 1    
   126   62  185 1    
   127   63  186 1    
   128   63  187 1    
   129   63  188 1    
   130   64   65 am   BACKBONE|DICT|INTERRES
   131   64  189 1    
   132   65   66 2    
   133   67   68 2    
   134   67   69 am   BACKBONE|DICT|INTERRES
   135   69   70 1    
   136   69  190 1    
   137   70   71 1    
   138   70   72 1    
   139   70  191 1    
   140   71  192 1    
   141   71  193 1    
   142   71  194 1    
   143   72   73 2    
   144   72   74 am   BACKBONE|DICT|INTERRES
   145   74   75 1    
   146   74  195 1    
   147   75   76 1    
   148   75   77 1    
   149   75  196 1    
   150   76  197 1    
   151   76  198 1    
   152   76  199 1    
   153   77   78 2    
   154   77   79 am   BACKBONE|DICT|INTERRES
   155   79   80 1    
   156   79  200 1    
   157   80   81 1    
   158   80   82 1    
   159   80  201 1    
   160   81  202 1    
   161   81  203 1    
   162   81  204 1    
   163   82   83 2    
   164   82   84 am   BACKBONE|DICT|INTERRES
   165   84   85 1    
   166   84  205 1    
   167   85   86 1    
   168   85   87 1    
   169   85  206 1    
   170   86  207 1    
   171   86  208 1    
   172   86  209 1    
   173   87   88 2    
   174   87   89 am   BACKBONE|DICT|INTERRES
   175   89   90 1    
   176   89  210 1    
   177   90   91 1    
   178   90   92 1    
   179   90  211 1    
   180   91  212 1    
   181   91  213 1    
   182   91  214 1    
   183   92   93 2    
   184   92   94 am   BACKBONE|DICT|INTERRES
   185   94   95 1    
   186   94  215 1    
   187   95   96 1    
   188   95   97 1    
   189   95  216 1    
   190   96  217 1    
   191   96  218 1    
   192   96  219 1    
   193   97   98 2    
   194   97   99 am   BACKBONE|DICT|INTERRES
   195   99  100 1    
   196   99  220 1    
   197  100  101 1    
   198  100  102 1    
   199  100  221 1    
   200  101  222 1    
   201  101  223 1    
   202  101  224 1    
   203  102  103 2    
   204  102  104 am   BACKBONE|DICT|INTERRES
   205  104  105 1    
   206  104  225 1    
   207  105  106 1    
   208  105  107 1    
   209  105  226 1    
   210  106  227 1    
   211  106  228 1    
   212  106  229 1    
   213  107  108 2    
   214  107  109 am   BACKBONE|DICT|INTERRES
   215  109  110 1    
   216  109  230 1    
   217  110  111 1    
   218  110  112 1    
   219  110  231 1    
   220  111  232 1    
   221  111  233 1    
   222  111  234 1    
   223  112  113 2    
   224  112  114 am   BACKBONE|DICT|INTERRES
   225  114  115 1    
   226  114  235 1    
   227  115  116 1    
   228  115  117 1    
   229  115  236 1    
   230  116  237 1    
   231  116  238 1    
   232  116  239 1    
   233  117  118 2    
   234  117  119 am   BACKBONE|DICT|INTERRES
   235  119  120 1    
   236  119  240 1    
   237  120  121 1    
   238  120  124 1    
   239  120  241 1    
   240  121  122 am   BACKBONE|DICT|INTERRES
   241  121  123 2    
   242  122  242 1    
   243  122  243 1    
   244  124  125 1    
   245  124  244 1    
   246  124  245 1    
   247  125  126 1    
   248  126  246 1    
   249  126  247 1    
@<TRIPOS>SUBSTRUCTURE
     1 UNK         1 GROUP             0       ****    0 ROOT    
