@<TRIPOS>MOLECULE
3R540
247   249    1
SMALL
USER_CHARGES


@<TRIPOS>ATOM
      1 CA          4.2601  -14.3383  -43.4162 C.3       0 UNK        -0.1800 
      2 C           4.4199  -13.7826  -44.8247 C.2       0 UNK         0.5000 
      3 O           5.5162  -13.8329  -45.3803 O.2       0 UNK        -0.5000 
      4 N           3.3278  -13.2424  -45.3815 N.am      1 UNK        -0.5000 
      5 CA          3.2601  -12.4756  -46.6341 C.3       1 UNK         0.1400 
      6 C6          3.6953  -13.2548  -47.9044 C.3       23 UNK        -0.0398 
      7 S7          2.6222  -14.6891  -48.2387 S.3       23 UNK        -0.2404 
      8 C8          3.6652  -15.5939  -49.4246 C.3       23 UNK        -0.0205 
      9 C9          2.9249  -16.7456  -50.0916 C.ar      23 UNK        -0.0193 
     10 C10         1.8533  -16.4830  -50.9495 C.ar      23 UNK        -0.1150 
     11 C11         1.1820  -17.5234  -51.6011 C.ar      23 UNK        -0.0193 
     12 C12         1.6178  -18.8389  -51.4099 C.ar      23 UNK        -0.1150 
     13 C13         2.7092  -19.1156  -50.5791 C.ar      23 UNK        -0.0193 
     14 C14         3.3453  -18.0664  -49.9072 C.ar      23 UNK        -0.1150 
     15 C15         3.2528  -20.5348  -50.4682 C.3       23 UNK        -0.0205 
     16 S16         2.7328  -21.3799  -48.9443 S.3       23 UNK        -0.2404 
     17 C17         0.9767  -21.7016  -49.3027 C.3       23 UNK        -0.0398 
     18 CA          0.3319  -22.6791  -48.2919 C.3       11 UNK         0.1400 
     19 N           0.2590  -22.1335  -46.9324 N.am      11 UNK        -0.5000 
     20 C          -0.1295  -22.8248  -45.8513 C.2       10 UNK         0.5000 
     21 O          -0.4304  -24.0182  -45.8754 O.2       10 UNK        -0.5000 
     22 CA         -0.2494  -22.0489  -44.5271 C.3       10 UNK         0.1400 
     23 CB          1.1258  -21.8615  -43.8695 C.3       10 UNK        -0.1800 
     24 N          -0.9088  -20.7526  -44.6894 N.am      10 UNK        -0.5000 
     25 C          -2.1845  -20.5970  -45.0730 C.2       9 UNK         0.5000 
     26 O          -2.9516  -21.5346  -45.2889 O.2       9 UNK        -0.5000 
     27 CA         -2.6777  -19.1565  -45.3006 C.3       9 UNK         0.1400 
     28 CB         -3.0166  -18.4711  -43.9687 C.3       9 UNK        -0.1800 
     29 N          -1.7165  -18.3415  -46.0406 N.am      9 UNK        -0.5000 
     30 C          -1.2903  -18.6046  -47.2842 C.2       8 UNK         0.5000 
     31 O          -1.6947  -19.5454  -47.9655 O.2       8 UNK        -0.5000 
     32 CA         -0.1816  -17.6919  -47.8319 C.3       8 UNK         0.1400 
     33 CB         -0.7777  -16.3607  -48.3119 C.3       8 UNK        -0.1800 
     34 N           0.8733  -17.4440  -46.8457 N.am      8 UNK        -0.5000 
     35 C           1.6314  -18.4018  -46.2923 C.2       7 UNK         0.5000 
     36 O           1.5311  -19.5947  -46.5652 O.2       7 UNK        -0.5000 
     37 CA          2.6122  -17.9714  -45.1899 C.3       7 UNK         0.1400 
     38 CB          3.8846  -17.3462  -45.7786 C.3       7 UNK        -0.1800 
     39 N           1.9899  -17.0612  -44.2274 N.am      7 UNK        -0.5000 
     40 C           1.0302  -17.4357  -43.3689 C.2       6 UNK         0.5000 
     41 O           0.6046  -18.5872  -43.2801 O.2       6 UNK        -0.5000 
     42 CA          0.4143  -16.3360  -42.4843 C.3       6 UNK         0.1400 
     43 CB          1.2502  -16.1319  -41.2118 C.3       6 UNK        -0.1800 
     44 N           0.2383  -15.0471  -43.1594 N.am      6 UNK        -0.5000 
     45 C          -0.5073  -14.8416  -44.2549 C.2       5 UNK         0.5000 
     46 O          -1.0582  -15.7527  -44.8731 O.2       5 UNK        -0.5000 
     47 CA         -0.6806  -13.3795  -44.7200 C.3       5 UNK         0.1400 
     48 CB         -1.9916  -13.1721  -45.4991 C.3       5 UNK        -0.1800 
     49 N          -0.6542  -12.4422  -43.5927 N.am      5 UNK        -0.5000 
     50 C           0.4236  -11.7836  -43.1568 C.2       4 UNK         0.5000 
     51 O           1.5460  -11.9006  -43.6581 O.2       4 UNK        -0.5000 
     52 CA          0.2239  -10.8842  -41.9295 C.3       4 UNK         0.1400 
     53 CB          0.2426  -11.7155  -40.6363 C.3       4 UNK        -0.1800 
     54 N           1.3111   -9.9156  -41.8942 N.am      4 UNK        -0.5000 
     55 C           1.2024   -8.6142  -41.6080 C.2       3 UNK         0.5000 
     56 O           0.1646   -8.0836  -41.2096 O.2       3 UNK        -0.5000 
     57 CA          2.4663   -7.7532  -41.8176 C.3       3 UNK         0.1400 
     58 CB          3.1859   -7.5210  -40.4801 C.3       3 UNK        -0.1800 
     59 N           3.4163   -8.3337  -42.7740 N.am      3 UNK        -0.5000 
     60 C           3.2008   -8.4581  -44.0912 C.2       2 UNK         0.5000 
     61 O           2.1830   -8.0540  -44.6554 O.2       2 UNK        -0.5000 
     62 CA          4.2703   -9.1886  -44.9172 C.3       2 UNK         0.1400 
     63 CB          5.6077   -9.4195  -44.1818 C.3       2 UNK        -0.1800 
     64 N           3.7074  -10.4692  -45.3252 N.am      2 UNK        -0.5000 
     65 C           3.9799  -11.1196  -46.4623 C.2       1 UNK         0.5000 
     66 O           4.7572  -10.7018  -47.3228 O.2       1 UNK        -0.5000 
     67 C          -1.0494  -23.1425  -48.7941 C.2       11 UNK         0.5000 
     68 O          -1.1603  -24.2563  -49.3068 O.2       11 UNK        -0.5000 
     69 N          -2.0798  -22.3060  -48.6034 N.am      12 UNK        -0.5000 
     70 CA         -3.4680  -22.6138  -48.9446 C.3       12 UNK         0.1400 
     71 CB         -4.3428  -21.3706  -48.7331 C.3       12 UNK        -0.1800 
     72 C          -4.0194  -23.8100  -48.1508 C.2       12 UNK         0.5000 
     73 O          -4.6712  -24.6704  -48.7399 O.2       12 UNK        -0.5000 
     74 N          -3.7212  -23.8679  -46.8446 N.am      13 UNK        -0.5000 
     75 CA         -4.0878  -24.9737  -45.9590 C.3       13 UNK         0.1400 
     76 CB         -3.7684  -24.6073  -44.5021 C.3       13 UNK        -0.1800 
     77 C          -3.4122  -26.2990  -46.3523 C.2       13 UNK         0.5000 
     78 O          -4.0888  -27.3262  -46.4056 O.2       13 UNK        -0.5000 
     79 N          -2.1099  -26.2504  -46.6689 N.am      14 UNK        -0.5000 
     80 CA         -1.3263  -27.3914  -47.1530 C.3       14 UNK         0.1400 
     81 CB          0.1560  -26.9972  -47.2356 C.3       14 UNK        -0.1800 
     82 C          -1.8233  -27.9304  -48.5086 C.2       14 UNK         0.5000 
     83 O          -1.8237  -29.1431  -48.7212 O.2       14 UNK        -0.5000 
     84 N          -2.2765  -27.0210  -49.3798 N.am      15 UNK        -0.5000 
     85 CA         -2.9042  -27.3173  -50.6673 C.3       15 UNK         0.1400 
     86 CB         -2.7114  -26.1016  -51.5852 C.3       15 UNK        -0.1800 
     87 C          -4.4002  -27.6854  -50.5580 C.2       15 UNK         0.5000 
     88 O          -5.0295  -27.9237  -51.5893 O.2       15 UNK        -0.5000 
     89 N          -4.9606  -27.6951  -49.3375 N.am      16 UNK        -0.5000 
     90 CA         -6.3624  -27.9778  -49.0001 C.3       16 UNK         0.1400 
     91 CB         -6.6780  -29.4696  -49.2331 C.3       16 UNK        -0.1800 
     92 C          -7.3663  -27.0363  -49.7035 C.2       16 UNK         0.5000 
     93 O          -8.4733  -27.4549  -50.0459 O.2       16 UNK        -0.5000 
     94 N          -6.9383  -25.7858  -49.9303 N.am      17 UNK        -0.5000 
     95 CA         -7.6152  -24.7022  -50.6492 C.3       17 UNK         0.1400 
     96 CB         -8.8991  -24.2726  -49.9111 C.3       17 UNK        -0.1800 
     97 C          -7.8623  -24.9742  -52.1508 C.2       17 UNK         0.5000 
     98 O          -8.5700  -24.1949  -52.7911 O.2       17 UNK        -0.5000 
     99 N          -7.2662  -26.0397  -52.7077 N.am      18 UNK        -0.5000 
    100 CA        -7.3495  -26.3830  -54.1308 C.3       18 UNK         0.1400 
    101 CB        -7.0654  -27.8829  -54.3042 C.3       18 UNK        -0.1800 
    102 C         -6.3868  -25.5465  -54.9962 C.2       18 UNK         0.5000 
    103 O         -6.5712  -25.4682  -56.2116 O.2       18 UNK        -0.5000 
    104 N         -5.3855  -24.9361  -54.3563 N.am      19 UNK        -0.5000 
    105 CA        -4.3877  -24.0472  -54.9323 C.3       19 UNK         0.1400 
    106 CB        -3.2667  -24.8764  -55.5874 C.3       19 UNK        -0.1800 
    107 C         -3.8476  -23.1498  -53.8079 C.2       19 UNK         0.5000 
    108 O         -4.2013  -23.3480  -52.6426 O.2       19 UNK        -0.5000 
    109 N         -3.0050  -22.1768  -54.1807 N.am      20 UNK        -0.5000 
    110 CA        -2.2445  -21.2699  -53.3066 C.3       20 UNK         0.1400 
    111 CB        -1.2294  -22.0610  -52.4587 C.3       20 UNK        -0.1800 
    112 C         -3.0869  -20.3075  -52.4402 C.2       20 UNK         0.5000 
    113 O         -2.5261  -19.6047  -51.5995 O.2       20 UNK        -0.5000 
    114 N         -4.4023  -20.2416  -52.6804 N.am      21 UNK        -0.5000 
    115 CA        -5.3560  -19.3623  -52.0042 C.3       21 UNK         0.1400 
    116 CB        -6.7562  -19.9952  -52.0970 C.3       21 UNK        -0.1800 
    117 C         -5.2984  -17.9287  -52.5723 C.2       21 UNK         0.5000 
    118 O         -6.2942  -17.4206  -53.0906 O.2       21 UNK        -0.5000 
    119 N         -4.1125  -17.3162  -52.4914 N.am      22 UNK        -0.5000 
    120 CA        -3.8087  -15.9648  -52.9854 C.3       22 UNK         0.1400 
    121 C         -4.3516  -14.7969  -52.1074 C.2       22 UNK         0.5000 
    122 N         -4.8762  -15.0460  -50.9134 N.am      22 UNK        -0.7600 
    123 O         -4.3121  -13.6433  -52.5271 O.2       22 UNK        -0.5000 
    124 C124       -2.2991  -15.8056  -53.3057 C.3       23 UNK        -0.0398 
    125 S125       -1.2037  -16.0861  -51.8694 S.3       23 UNK        -0.2404 
    126 C126        0.0360  -17.2274  -52.5648 C.3       23 UNK        -0.0205 
    127 H127        4.9612  -13.8472  -42.7414 H         1 UNK         0.0600 
    128 H128        3.2543  -14.1760  -43.0290 H         1 UNK         0.0600 
    129 H129        4.4673  -15.4076  -43.4010 H         1 UNK         0.0600 
    130 H130        2.5084  -13.1333  -44.7942 H         1 UNK         0.3000 
    131 H131        2.2076  -12.2190  -46.7655 H         1 UNK         0.0600 
    132 H132        3.6456  -12.6083  -48.7822 H         1 UNK         0.0800 
    133 H133        4.7324  -13.5825  -47.8279 H         1 UNK         0.0800 
    134 H134        4.0116  -14.9070  -50.1981 H         1 UNK         0.0800 
    135 H135        4.5561  -15.9544  -48.9079 H         1 UNK         0.0800 
    136 H136        1.5420  -15.4603  -51.1100 H         1 UNK         0.1150 
    137 H137        1.1287  -19.6464  -51.9355 H         1 UNK         0.1150 
    138 H138        4.1902  -18.2788  -49.2673 H         1 UNK         0.1150 
    139 H139        2.9582  -21.1290  -51.3346 H         1 UNK         0.0800 
    140 H140        4.3430  -20.5005  -50.4881 H         1 UNK         0.0800 
    141 H141        0.9262  -22.1185  -50.3092 H         1 UNK         0.0800 
    142 H142        0.4379  -20.7526  -49.3256 H         1 UNK         0.0800 
    143 H143        0.9618  -23.5701  -48.2431 H         1 UNK         0.0600 
    144 H144        0.5500  -21.1644  -46.8191 H         1 UNK         0.3000 
    145 H145       -0.8631  -22.6472  -43.8506 H         1 UNK         0.0600 
    146 H146        1.0336  -21.3842  -42.8938 H         1 UNK         0.0600 
    147 H147        1.6188  -22.8223  -43.7169 H         1 UNK         0.0600 
    148 H148        1.7872  -21.2471  -44.4802 H         1 UNK         0.0600 
    149 H149       -0.3461  -19.9294  -44.5016 H         1 UNK         0.3000 
    150 H150       -3.5906  -19.2096  -45.8971 H         1 UNK         0.0600 
    151 H151       -3.7627  -19.0423  -43.4151 H         1 UNK         0.0600 
    152 H152       -3.4238  -17.4730  -44.1316 H         1 UNK         0.0600 
    153 H153       -2.1383  -18.3725  -43.3308 H         1 UNK         0.0600 
    154 H154       -1.3518  -17.5184  -45.5681 H         1 UNK         0.3000 
    155 H155        0.2708  -18.1945  -48.6892 H         1 UNK         0.0600 
    156 H156       -0.0456  -15.7737  -48.8636 H         1 UNK         0.0600 
    157 H157       -1.1409  -15.7536  -47.4848 H         1 UNK         0.0600 
    158 H158       -1.6217  -16.5334  -48.9802 H         1 UNK         0.0600 
    159 H159        0.9971  -16.4887  -46.5482 H         1 UNK         0.3000 
    160 H160        2.9118  -18.8750  -44.6541 H         1 UNK         0.0600 
    161 H161        3.6915  -16.3686  -46.2145 H         1 UNK         0.0600 
    162 H162        4.3047  -17.9778  -46.5626 H         1 UNK         0.0600 
    163 H163        4.6530  -17.2262  -45.0155 H         1 UNK         0.0600 
    164 H164        2.2668  -16.0931  -44.2561 H         1 UNK         0.3000 
    165 H165       -0.5772  -16.6808  -42.1838 H         1 UNK         0.0600 
    166 H166        2.2520  -15.7665  -41.4385 H         1 UNK         0.0600 
    167 H167        0.7764  -15.4180  -40.5377 H         1 UNK         0.0600 
    168 H168        1.3605  -17.0690  -40.6643 H         1 UNK         0.0600 
    169 H169        0.6426  -14.2421  -42.7058 H         1 UNK         0.3000 
    170 H170        0.1443  -13.1639  -45.4018 H         1 UNK         0.0600 
    171 H171       -2.0192  -13.7865  -46.3992 H         1 UNK         0.0600 
    172 H172       -2.8628  -13.4317  -44.8966 H         1 UNK         0.0600 
    173 H173       -2.1003  -12.1350  -45.8170 H         1 UNK         0.0600 
    174 H174       -1.5296  -12.3205  -43.1027 H         1 UNK         0.3000 
    175 H175       -0.7367  -10.3743  -42.0285 H         1 UNK         0.0600 
    176 H176        0.1110  -11.0800  -39.7603 H         1 UNK         0.0600 
    177 H177       -0.5634  -12.4502  -40.6270 H         1 UNK         0.0600 
    178 H178        1.1829  -12.2556  -40.5179 H         1 UNK         0.0600 
    179 H179        2.1866  -10.2586  -42.2640 H         1 UNK         0.3000 
    180 H180        2.1426   -6.7849  -42.2049 H         1 UNK         0.0600 
    181 H181        3.5473   -8.4558  -40.0499 H         1 UNK         0.0600 
    182 H182        2.5171   -7.0613  -39.7512 H         1 UNK         0.0600 
    183 H183        4.0394   -6.8537  -40.6015 H         1 UNK         0.0600 
    184 H184        4.2801   -8.6897  -42.3907 H         1 UNK         0.3000 
    185 H185        4.4596   -8.5718  -45.7983 H         1 UNK         0.0600 
    186 H186        6.3440   -9.8666  -44.8500 H         1 UNK         0.0600 
    187 H187        6.0310   -8.4796  -43.8252 H         1 UNK         0.0600 
    188 H188        5.4956  -10.0883  -43.3276 H         1 UNK         0.0600 
    189 H189        3.0203  -10.8720  -44.6962 H         1 UNK         0.3000 
    190 H190       -1.9044  -21.3824  -48.2123 H         1 UNK         0.3000 
    191 H191       -3.4990  -22.8729  -50.0045 H         1 UNK         0.0600 
    192 H192       -3.9595  -20.5243  -49.3018 H         1 UNK         0.0600 
    193 H193       -5.3664  -21.5522  -49.0629 H         1 UNK         0.0600 
    194 H194       -4.3779  -21.0750  -47.6841 H         1 UNK         0.0600 
    195 H195       -3.2222  -23.0917  -46.4185 H         1 UNK         0.3000 
    196 H196       -5.1672  -25.1174  -46.0404 H         1 UNK         0.0600 
    197 H197       -4.0419  -25.4181  -43.8258 H         1 UNK         0.0600 
    198 H198       -4.3224  -23.7224  -44.1889 H         1 UNK         0.0600 
    199 H199       -2.7068  -24.4043  -44.3601 H         1 UNK         0.0600 
    200 H200       -1.6107  -25.3709  -46.5605 H         1 UNK         0.3000 
    201 H201       -1.4241  -28.1961  -46.4216 H         1 UNK         0.0600 
    202 H202        0.5376  -26.6940  -46.2605 H         1 UNK         0.0600 
    203 H203        0.3141  -26.1695  -47.9278 H         1 UNK         0.0600 
    204 H204        0.7655  -27.8343  -47.5780 H         1 UNK         0.0600 
    205 H205       -2.1806  -26.0379  -49.1455 H         1 UNK         0.3000 
    206 H206       -2.3963  -28.1696  -51.1227 H         1 UNK         0.0600 
    207 H207       -1.6544  -25.8856  -51.7410 H         1 UNK         0.0600 
    208 H208       -3.1580  -26.2666  -52.5658 H         1 UNK         0.0600 
    209 H209       -3.1715  -25.2116  -51.1562 H         1 UNK         0.0600 
    210 H210       -4.3740  -27.4526  -48.5485 H         1 UNK         0.3000 
    211 H211       -6.4631  -27.7810  -47.9320 H         1 UNK         0.0600 
    212 H212       -6.6517  -29.7277  -50.2923 H         1 UNK         0.0600 
    213 H213       -7.6699  -29.7243  -48.8583 H         1 UNK         0.0600 
    214 H214       -5.9632  -30.1084  -48.7142 H         1 UNK         0.0600 
    215 H215       -6.0166  -25.5370  -49.5712 H         1 UNK         0.3000 
    216 H216       -6.9236  -23.8587  -50.6166 H         1 UNK         0.0600 
    217 H217       -8.6971  -24.0600  -48.8612 H         1 UNK         0.0600 
    218 H218       -9.6699  -25.0422  -49.9566 H         1 UNK         0.0600 
    219 H219       -9.3183  -23.3657  -50.3483 H         1 UNK         0.0600 
    220 H220       -6.6856  -26.6394  -52.1320 H         1 UNK         0.3000 
    221 H221       -8.3654  -26.1897  -54.4817 H         1 UNK         0.0600 
    222 H222       -6.0377  -28.1321  -54.0389 H         1 UNK         0.0600 
    223 H223       -7.7287  -28.4862  -53.6840 H         1 UNK         0.0600 
    224 H224       -7.2179  -28.1902  -55.3395 H         1 UNK         0.0600 
    225 H225       -5.3387  -24.9976  -53.3467 H         1 UNK         0.3000 
    226 H226       -4.8624  -23.4086  -55.6799 H         1 UNK         0.0600 
    227 H227       -3.6601  -25.5282  -56.3675 H         1 UNK         0.0600 
    228 H228       -2.5190  -24.2347  -56.0542 H         1 UNK         0.0600 
    229 H229       -2.7520  -25.5031  -54.8585 H         1 UNK         0.0600 
    230 H230       -2.8086  -22.0765  -55.1672 H         1 UNK         0.3000 
    231 H231       -1.6721  -20.6256  -53.9754 H         1 UNK         0.0600 
    232 H232       -0.5926  -21.3852  -51.8895 H         1 UNK         0.0600 
    233 H233       -0.5779  -22.6691  -53.0861 H         1 UNK         0.0600 
    234 H234       -1.7229  -22.7234  -51.7479 H         1 UNK         0.0600 
    235 H235       -4.7774  -20.8392  -53.4011 H         1 UNK         0.3000 
    236 H236       -5.0939  -19.2966  -50.9471 H         1 UNK         0.0600 
    237 H237       -7.4954  -19.3893  -51.5717 H         1 UNK         0.0600 
    238 H238       -7.0864  -20.0957  -53.1316 H         1 UNK         0.0600 
    239 H239       -6.7698  -20.9871  -51.6439 H         1 UNK         0.0600 
    240 H240       -3.3450  -17.8174  -52.0543 H         1 UNK         0.3000 
    241 H241       -4.3325  -15.8577  -53.9373 H         1 UNK         0.0600 
    242 H242       -4.9105  -15.9868  -50.5571 H         1 UNK         0.3800 
    243 H243       -5.2311  -14.2837  -50.3580 H         1 UNK         0.3800 
    244 H244       -2.0308  -16.5027  -54.1005 H         1 UNK         0.0800 
    245 H245       -2.0928  -14.8129  -53.7092 H         1 UNK         0.0800 
    246 H246       -0.4665  -18.1507  -52.8567 H         1 UNK         0.0800 
    247 H247        0.4531  -16.7938  -53.4745 H         1 UNK         0.0800 
@<TRIPOS>BOND
     1    1    2 1    
     2    1  127 1    
     3    1  128 1    
     4    1  129 1    
     5    2    3 2    
     6    2    4 am   BACKBONE|DICT|INTERRES
     7    4    5 1    
     8    4  130 1    
     9    5    6 1    
    10    5   65 1    
    11    5  131 1    
    12    6    7 1    
    13    6  132 1    
    14    6  133 1    
    15    7    8 1    
    16    8    9 1    
    17    8  134 1    
    18    8  135 1    
    19    9   10 ar   
    20    9   14 ar   
    21   10   11 ar   
    22   10  136 1    
    23   11   12 ar   
    24   11  126 1    
    25   12   13 ar   
    26   12  137 1    
    27   13   14 ar   
    28   13   15 1    
    29   14  138 1    
    30   15   16 1    
    31   15  139 1    
    32   15  140 1    
    33   16   17 1    
    34   17   18 1    
    35   17  141 1    
    36   17  142 1    
    37   18   19 1    
    38   18   67 1    
    39   18  143 1    
    40   19   20 am   BACKBONE|DICT|INTERRES
    41   19  144 1    
    42   20   21 2    
    43   20   22 1    
    44   22   23 1    
    45   22   24 1    
    46   22  145 1    
    47   23  146 1    
    48   23  147 1    
    49   23  148 1    
    50   24   25 am   BACKBONE|DICT|INTERRES
    51   24  149 1    
    52   25   26 2    
    53   25   27 1    
    54   27   28 1    
    55   27   29 1    
    56   27  150 1    
    57   28  151 1    
    58   28  152 1    
    59   28  153 1    
    60   29   30 am   BACKBONE|DICT|INTERRES
    61   29  154 1    
    62   30   31 2    
    63   30   32 1    
    64   32   33 1    
    65   32   34 1    
    66   32  155 1    
    67   33  156 1    
    68   33  157 1    
    69   33  158 1    
    70   34   35 am   BACKBONE|DICT|INTERRES
    71   34  159 1    
    72   35   36 2    
    73   35   37 1    
    74   37   38 1    
    75   37   39 1    
    76   37  160 1    
    77   38  161 1    
    78   38  162 1    
    79   38  163 1    
    80   39   40 am   BACKBONE|DICT|INTERRES
    81   39  164 1    
    82   40   41 2    
    83   40   42 1    
    84   42   43 1    
    85   42   44 1    
    86   42  165 1    
    87   43  166 1    
    88   43  167 1    
    89   43  168 1    
    90   44   45 am   BACKBONE|DICT|INTERRES
    91   44  169 1    
    92   45   46 2    
    93   45   47 1    
    94   47   48 1    
    95   47   49 1    
    96   47  170 1    
    97   48  171 1    
    98   48  172 1    
    99   48  173 1    
   100   49   50 am   BACKBONE|DICT|INTERRES
   101   49  174 1    
   102   50   51 2    
   103   50   52 1    
   104   52   53 1    
   105   52   54 1    
   106   52  175 1    
   107   53  176 1    
   108   53  177 1    
   109   53  178 1    
   110   54   55 am   BACKBONE|DICT|INTERRES
   111   54  179 1    
   112   55   56 2    
   113   55   57 1    
   114   57   58 1    
   115   57   59 1    
   116   57  180 1    
   117   58  181 1    
   118   58  182 1    
   119   58  183 1    
   120   59   60 am   BACKBONE|DICT|INTERRES
   121   59  184 1    
   122   60   61 2    
   123   60   62 1    
   124   62   63 1    
   125   62   64 1    
   126   62  185 1    
   127   63  186 1    
   128   63  187 1    
   129   63  188 1    
   130   64   65 am   BACKBONE|DICT|INTERRES
   131   64  189 1    
   132   65   66 2    
   133   67   68 2    
   134   67   69 am   BACKBONE|DICT|INTERRES
   135   69   70 1    
   136   69  190 1    
   137   70   71 1    
   138   70   72 1    
   139   70  191 1    
   140   71  192 1    
   141   71  193 1    
   142   71  194 1    
   143   72   73 2    
   144   72   74 am   BACKBONE|DICT|INTERRES
   145   74   75 1    
   146   74  195 1    
   147   75   76 1    
   148   75   77 1    
   149   75  196 1    
   150   76  197 1    
   151   76  198 1    
   152   76  199 1    
   153   77   78 2    
   154   77   79 am   BACKBONE|DICT|INTERRES
   155   79   80 1    
   156   79  200 1    
   157   80   81 1    
   158   80   82 1    
   159   80  201 1    
   160   81  202 1    
   161   81  203 1    
   162   81  204 1    
   163   82   83 2    
   164   82   84 am   BACKBONE|DICT|INTERRES
   165   84   85 1    
   166   84  205 1    
   167   85   86 1    
   168   85   87 1    
   169   85  206 1    
   170   86  207 1    
   171   86  208 1    
   172   86  209 1    
   173   87   88 2    
   174   87   89 am   BACKBONE|DICT|INTERRES
   175   89   90 1    
   176   89  210 1    
   177   90   91 1    
   178   90   92 1    
   179   90  211 1    
   180   91  212 1    
   181   91  213 1    
   182   91  214 1    
   183   92   93 2    
   184   92   94 am   BACKBONE|DICT|INTERRES
   185   94   95 1    
   186   94  215 1    
   187   95   96 1    
   188   95   97 1    
   189   95  216 1    
   190   96  217 1    
   191   96  218 1    
   192   96  219 1    
   193   97   98 2    
   194   97   99 am   BACKBONE|DICT|INTERRES
   195   99  100 1    
   196   99  220 1    
   197  100  101 1    
   198  100  102 1    
   199  100  221 1    
   200  101  222 1    
   201  101  223 1    
   202  101  224 1    
   203  102  103 2    
   204  102  104 am   BACKBONE|DICT|INTERRES
   205  104  105 1    
   206  104  225 1    
   207  105  106 1    
   208  105  107 1    
   209  105  226 1    
   210  106  227 1    
   211  106  228 1    
   212  106  229 1    
   213  107  108 2    
   214  107  109 am   BACKBONE|DICT|INTERRES
   215  109  110 1    
   216  109  230 1    
   217  110  111 1    
   218  110  112 1    
   219  110  231 1    
   220  111  232 1    
   221  111  233 1    
   222  111  234 1    
   223  112  113 2    
   224  112  114 am   BACKBONE|DICT|INTERRES
   225  114  115 1    
   226  114  235 1    
   227  115  116 1    
   228  115  117 1    
   229  115  236 1    
   230  116  237 1    
   231  116  238 1    
   232  116  239 1    
   233  117  118 2    
   234  117  119 am   BACKBONE|DICT|INTERRES
   235  119  120 1    
   236  119  240 1    
   237  120  121 1    
   238  120  124 1    
   239  120  241 1    
   240  121  122 am   BACKBONE|DICT|INTERRES
   241  121  123 2    
   242  122  242 1    
   243  122  243 1    
   244  124  125 1    
   245  124  244 1    
   246  124  245 1    
   247  125  126 1    
   248  126  246 1    
   249  126  247 1    
@<TRIPOS>SUBSTRUCTURE
     1 UNK         1 GROUP             0       ****    0 ROOT    
