@<TRIPOS>MOLECULE
3R540
247   249    1
SMALL
USER_CHARGES


@<TRIPOS>ATOM
      1 CA         -0.1101  -13.9305  -46.1270 C.3       0 UNK        -0.1800 
      2 C           0.9136  -12.9703  -46.7171 C.2       0 UNK         0.5000 
      3 O           1.0237  -11.8327  -46.2616 O.2       0 UNK        -0.5000 
      4 N           1.6453  -13.4231  -47.7425 N.am      1 UNK        -0.5000 
      5 CA          2.5715  -12.6102  -48.5436 C.3       1 UNK         0.1400 
      6 C6          2.9562  -13.2995  -49.8786 C.3       23 UNK        -0.0398 
      7 S7          1.5144  -13.8806  -50.8340 S.3       23 UNK        -0.2404 
      8 C8          1.6793  -15.6797  -50.6162 C.3       23 UNK        -0.0205 
      9 C9          0.4353  -16.4033  -51.0988 C.ar      23 UNK        -0.0193 
     10 C10         0.3180  -16.7820  -52.4390 C.ar      23 UNK        -0.1150 
     11 C11        -0.8288  -17.4393  -52.8929 C.ar      23 UNK        -0.0193 
     12 C12        -1.8600  -17.7200  -51.9905 C.ar      23 UNK        -0.1150 
     13 C13        -1.7582  -17.3355  -50.6490 C.ar      23 UNK        -0.0193 
     14 C14        -0.6039  -16.6841  -50.2071 C.ar      23 UNK        -0.1150 
     15 C15        -2.9142  -17.5836  -49.6921 C.3       23 UNK        -0.0205 
     16 S16        -3.0489  -19.3338  -49.2220 S.3       23 UNK        -0.2404 
     17 C17        -1.9059  -19.4246  -47.8000 C.3       23 UNK        -0.0398 
     18 CA         -1.4718  -20.8685  -47.4449 C.3       11 UNK         0.1400 
     19 N          -0.4515  -20.8847  -46.3913 N.am      11 UNK        -0.5000 
     20 C           0.2366  -21.9708  -46.0098 C.2       10 UNK         0.5000 
     21 O           0.1365  -23.0680  -46.5558 O.2       10 UNK        -0.5000 
     22 CA          1.1409  -21.8321  -44.7717 C.3       10 UNK         0.1400 
     23 CB          2.4906  -21.1993  -45.1392 C.3       10 UNK        -0.1800 
     24 N           0.5005  -21.0733  -43.6961 N.am      10 UNK        -0.5000 
     25 C          -0.6098  -21.4701  -43.0566 C.2       9 UNK         0.5000 
     26 O          -1.1641  -22.5487  -43.2647 O.2       9 UNK        -0.5000 
     27 CA         -1.2372  -20.4835  -42.0552 C.3       9 UNK         0.1400 
     28 CB         -0.5567  -20.5938  -40.6834 C.3       9 UNK        -0.1800 
     29 N          -1.1987  -19.0970  -42.5247 N.am      9 UNK        -0.5000 
     30 C          -1.8387  -18.6460  -43.6141 C.2       8 UNK         0.5000 
     31 O          -2.5763  -19.3444  -44.3084 O.2       8 UNK        -0.5000 
     32 CA         -1.5589  -17.1923  -44.0393 C.3       8 UNK         0.1400 
     33 CB         -2.3789  -16.2009  -43.2025 C.3       8 UNK        -0.1800 
     34 N          -0.1379  -16.8582  -43.9509 N.am      8 UNK        -0.5000 
     35 C           0.8219  -17.4352  -44.6867 C.2       7 UNK         0.5000 
     36 O           0.5949  -18.2461  -45.5849 O.2       7 UNK        -0.5000 
     37 CA          2.2767  -17.0925  -44.3192 C.3       7 UNK         0.1400 
     38 CB          2.7523  -15.8125  -45.0188 C.3       7 UNK        -0.1800 
     39 N           2.4551  -16.9567  -42.8736 N.am      7 UNK        -0.5000 
     40 C           2.4555  -17.9894  -42.0198 C.2       6 UNK         0.5000 
     41 O           2.3607  -19.1640  -42.3739 O.2       6 UNK        -0.5000 
     42 CA          2.5263  -17.6521  -40.5200 C.3       6 UNK         0.1400 
     43 CB          3.9826  -17.5194  -40.0539 C.3       6 UNK        -0.1800 
     44 N           1.7862  -16.4316  -40.1940 N.am      6 UNK        -0.5000 
     45 C           0.4471  -16.3654  -40.1729 C.2       5 UNK         0.5000 
     46 O          -0.2812  -17.3293  -40.4047 O.2       5 UNK        -0.5000 
     47 CA         -0.1974  -14.9960  -39.8862 C.3       5 UNK         0.1400 
     48 CB         -0.4176  -14.8128  -38.3775 C.3       5 UNK        -0.1800 
     49 N           0.5605  -13.8563  -40.4025 N.am      5 UNK        -0.5000 
     50 C           0.8936  -13.6580  -41.6849 C.2       4 UNK         0.5000 
     51 O           0.6115  -14.4443  -42.5886 O.2       4 UNK        -0.5000 
     52 CA          1.7104  -12.3919  -42.0148 C.3       4 UNK         0.1400 
     53 CB          1.7000  -11.3350  -40.8889 C.3       4 UNK        -0.1800 
     54 N           3.0959  -12.6862  -42.3931 N.am      4 UNK        -0.5000 
     55 C           3.9842  -13.4647  -41.7600 C.2       3 UNK         0.5000 
     56 O           3.7058  -14.1625  -40.7825 O.2       3 UNK        -0.5000 
     57 CA          5.4315  -13.4449  -42.3060 C.3       3 UNK         0.1400 
     58 CB          6.3287  -14.5103  -41.6500 C.3       3 UNK        -0.1800 
     59 N           5.5363  -13.5944  -43.7606 N.am      3 UNK        -0.5000 
     60 C           5.2461  -12.6714  -44.6869 C.2       2 UNK         0.5000 
     61 O           4.7472  -11.5773  -44.4198 O.2       2 UNK        -0.5000 
     62 CA          5.5638  -13.0164  -46.1525 C.3       2 UNK         0.1400 
     63 CB          6.3812  -14.3121  -46.3381 C.3       2 UNK        -0.1800 
     64 N           4.3194  -13.1330  -46.9068 N.am      2 UNK        -0.5000 
     65 C           3.8564  -12.2294  -47.7796 C.2       1 UNK         0.5000 
     66 O           4.4110  -11.1569  -48.0240 O.2       1 UNK        -0.5000 
     67 C          -2.6720  -21.7756  -47.0876 C.2       11 UNK         0.5000 
     68 O          -3.1133  -22.5590  -47.9300 O.2       11 UNK        -0.5000 
     69 N          -3.1604  -21.6903  -45.8424 N.am      12 UNK        -0.5000 
     70 CA         -4.2420  -22.5290  -45.3205 C.3       12 UNK         0.1400 
     71 CB         -4.6285  -22.0628  -43.9097 C.3       12 UNK        -0.1800 
     72 C          -3.9046  -24.0325  -45.3325 C.2       12 UNK         0.5000 
     73 O          -4.7784  -24.8450  -45.6331 O.2       12 UNK        -0.5000 
     74 N          -2.6455  -24.3677  -45.0271 N.am      13 UNK        -0.5000 
     75 CA         -2.1260  -25.7302  -45.0235 C.3       13 UNK         0.1400 
     76 CB         -0.8752  -25.7931  -44.1303 C.3       13 UNK        -0.1800 
     77 C          -1.8253  -26.2572  -46.4387 C.2       13 UNK         0.5000 
     78 O          -2.4112  -27.2588  -46.8502 O.2       13 UNK        -0.5000 
     79 N          -0.8867  -25.6086  -47.1402 N.am      14 UNK        -0.5000 
     80 CA         -0.2694  -26.1331  -48.3596 C.3       14 UNK         0.1400 
     81 CB          1.1487  -25.5581  -48.4995 C.3       14 UNK        -0.1800 
     82 C          -1.0870  -25.8507  -49.6277 C.2       14 UNK         0.5000 
     83 O          -1.1812  -26.7263  -50.4908 O.2       14 UNK        -0.5000 
     84 N          -1.6600  -24.6430  -49.7235 N.am      15 UNK        -0.5000 
     85 CA         -2.4591  -24.2014  -50.8713 C.3       15 UNK         0.1400 
     86 CB         -2.1407  -22.7259  -51.1702 C.3       15 UNK        -0.1800 
     87 C          -3.9683  -24.4149  -50.6489 C.2       15 UNK         0.5000 
     88 O          -4.7597  -24.0415  -51.5160 O.2       15 UNK        -0.5000 
     89 N          -4.3404  -24.9780  -49.4883 N.am      16 UNK        -0.5000 
     90 CA         -5.7031  -25.2428  -49.0175 C.3       16 UNK         0.1400 
     91 CB         -6.3394  -26.3905  -49.8257 C.3       16 UNK        -0.1800 
     92 C          -6.5734  -23.9689  -48.9637 C.2       16 UNK         0.5000 
     93 O          -7.7463  -24.0034  -49.3383 O.2       16 UNK        -0.5000 
     94 N          -5.9578  -22.8641  -48.5147 N.am      17 UNK        -0.5000 
     95 CA         -6.5024  -21.5036  -48.4589 C.3       17 UNK         0.1400 
     96 CB         -7.7166  -21.4159  -47.5103 C.3       17 UNK        -0.1800 
     97 C          -6.7712  -20.9370  -49.8676 C.2       17 UNK         0.5000 
     98 O          -7.8277  -20.3554  -50.1199 O.2       17 UNK        -0.5000 
     99 N          -5.7803  -21.1261  -50.7492 N.am      18 UNK        -0.5000 
    100 CA        -5.7228  -20.6979  -52.1465 C.3       18 UNK         0.1400 
    101 CB        -5.7266  -19.1600  -52.2608 C.3       18 UNK        -0.1800 
    102 C         -6.7907  -21.3722  -53.0284 C.2       18 UNK         0.5000 
    103 O         -7.5098  -20.6939  -53.7655 O.2       18 UNK        -0.5000 
    104 N         -6.8626  -22.7068  -52.9569 N.am      19 UNK        -0.5000 
    105 CA        -7.7451  -23.5461  -53.7674 C.3       19 UNK         0.1400 
    106 CB        -7.8649  -24.9271  -53.1029 C.3       19 UNK        -0.1800 
    107 C         -7.2295  -23.6389  -55.2180 C.2       19 UNK         0.5000 
    108 O         -6.5419  -24.5994  -55.5687 O.2       19 UNK        -0.5000 
    109 N         -7.5365  -22.6039  -56.0142 N.am      20 UNK        -0.5000 
    110 CA        -7.0815  -22.3729  -57.3928 C.3       20 UNK         0.1400 
    111 CB        -7.6350  -23.4499  -58.3498 C.3       20 UNK        -0.1800 
    112 C         -5.5492  -22.1972  -57.4934 C.2       20 UNK         0.5000 
    113 O         -4.9343  -22.6155  -58.4766 O.2       20 UNK        -0.5000 
    114 N         -4.9639  -21.5844  -56.4571 N.am      21 UNK        -0.5000 
    115 CA        -3.5375  -21.2893  -56.3427 C.3       21 UNK         0.1400 
    116 CB        -3.1713  -21.2597  -54.8489 C.3       21 UNK        -0.1800 
    117 C         -3.1719  -19.9598  -57.0331 C.2       21 UNK         0.5000 
    118 O         -4.0380  -19.2901  -57.6018 O.2       21 UNK        -0.5000 
    119 N         -1.8836  -19.6044  -56.9474 N.am      22 UNK        -0.5000 
    120 CA        -1.2673  -18.3751  -57.4831 C.3       22 UNK         0.1400 
    121 C         -1.0601  -18.3810  -59.0303 C.2       22 UNK         0.5000 
    122 N         -1.2297  -19.5015  -59.7217 N.am      22 UNK        -0.7600 
    123 O         -0.7061  -17.3608  -59.6156 O.2       22 UNK        -0.5000 
    124 C124       -1.9426  -17.0548  -56.9966 C.3       23 UNK        -0.0398 
    125 S125       -2.2063  -16.8056  -55.1987 S.3       23 UNK        -0.2404 
    126 C126       -0.9579  -17.8318  -54.3578 C.3       23 UNK        -0.0205 
    127 H127        0.0374  -14.9511  -46.4803 H         1 UNK         0.0600 
    128 H128       -1.1170  -13.6178  -46.4021 H         1 UNK         0.0600 
    129 H129       -0.0439  -13.9335  -45.0407 H         1 UNK         0.0600 
    130 H130        1.4783  -14.3549  -48.0898 H         1 UNK         0.3000 
    131 H131        2.0558  -11.6791  -48.7891 H         1 UNK         0.0600 
    132 H132        3.5090  -12.6027  -50.5112 H         1 UNK         0.0800 
    133 H133        3.6313  -14.1392  -49.7024 H         1 UNK         0.0800 
    134 H134        2.5546  -16.0322  -51.1641 H         1 UNK         0.0800 
    135 H135        1.8586  -15.9155  -49.5664 H         1 UNK         0.0800 
    136 H136        1.1176  -16.5535  -53.1298 H         1 UNK         0.1150 
    137 H137       -2.7513  -18.2206  -52.3403 H         1 UNK         0.1150 
    138 H138       -0.5210  -16.3797  -49.1732 H         1 UNK         0.1150 
    139 H139       -2.8202  -16.9683  -48.7958 H         1 UNK         0.0800 
    140 H140       -3.8433  -17.2717  -50.1698 H         1 UNK         0.0800 
    141 H141       -2.3796  -18.9411  -46.9449 H         1 UNK         0.0800 
    142 H142       -1.0215  -18.8298  -48.0329 H         1 UNK         0.0800 
    143 H143       -1.0066  -21.2962  -48.3356 H         1 UNK         0.0600 
    144 H144       -0.2709  -20.0056  -45.9162 H         1 UNK         0.3000 
    145 H145        1.3365  -22.8374  -44.3929 H         1 UNK         0.0600 
    146 H146        3.1481  -21.1407  -44.2716 H         1 UNK         0.0600 
    147 H147        3.0036  -21.7931  -45.8966 H         1 UNK         0.0600 
    148 H148        2.3732  -20.1930  -45.5390 H         1 UNK         0.0600 
    149 H149        0.9426  -20.2031  -43.4208 H         1 UNK         0.3000 
    150 H150       -2.2858  -20.7602  -41.9317 H         1 UNK         0.0600 
    151 H151       -0.5927  -21.6184  -40.3112 H         1 UNK         0.0600 
    152 H152       -1.0531  -19.9633  -39.9456 H         1 UNK         0.0600 
    153 H153        0.4910  -20.2973  -40.7272 H         1 UNK         0.0600 
    154 H154       -0.6632  -18.4433  -41.9616 H         1 UNK         0.3000 
    155 H155       -1.8612  -17.0844  -45.0831 H         1 UNK         0.0600 
    156 H156       -2.1468  -16.2807  -42.1411 H         1 UNK         0.0600 
    157 H157       -2.1896  -15.1725  -43.5111 H         1 UNK         0.0600 
    158 H158       -3.4474  -16.3860  -43.3184 H         1 UNK         0.0600 
    159 H159        0.1274  -16.1415  -43.2806 H         1 UNK         0.3000 
    160 H160        2.9054  -17.9142  -44.6684 H         1 UNK         0.0600 
    161 H161        2.2229  -14.9307  -44.6600 H         1 UNK         0.0600 
    162 H162        2.6044  -15.8793  -46.0971 H         1 UNK         0.0600 
    163 H163        3.8146  -15.6544  -44.8428 H         1 UNK         0.0600 
    164 H164        2.4665  -16.0189  -42.4977 H         1 UNK         0.3000 
    165 H165        2.0774  -18.4832  -39.9718 H         1 UNK         0.0600 
    166 H166        4.0377  -17.3285  -38.9822 H         1 UNK         0.0600 
    167 H167        4.5398  -18.4360  -40.2511 H         1 UNK         0.0600 
    168 H168        4.4971  -16.7074  -40.5650 H         1 UNK         0.0600 
    169 H169        2.3293  -15.5844  -40.0639 H         1 UNK         0.3000 
    170 H170       -1.1733  -14.9847  -40.3743 H         1 UNK         0.0600 
    171 H171        0.5278  -14.7773  -37.8347 H         1 UNK         0.0600 
    172 H172       -0.9620  -13.8923  -38.1665 H         1 UNK         0.0600 
    173 H173       -1.0025  -15.6362  -37.9652 H         1 UNK         0.0600 
    174 H174        0.8679  -13.1768  -39.7224 H         1 UNK         0.3000 
    175 H175        1.2374  -11.9481  -42.8922 H         1 UNK         0.0600 
    176 H176        2.1863  -10.4164  -41.2176 H         1 UNK         0.0600 
    177 H177        2.2233  -11.6793  -39.9960 H         1 UNK         0.0600 
    178 H178        0.6812  -11.0701  -40.6025 H         1 UNK         0.0600 
    179 H179        3.4474  -12.1731  -43.1976 H         1 UNK         0.3000 
    180 H180        5.8405  -12.4683  -42.0395 H         1 UNK         0.0600 
    181 H181        7.3672  -14.3935  -41.9602 H         1 UNK         0.0600 
    182 H182        6.0131  -15.5190  -41.9172 H         1 UNK         0.0600 
    183 H183        6.3104  -14.4329  -40.5620 H         1 UNK         0.0600 
    184 H184        5.9252  -14.4697  -44.0790 H         1 UNK         0.3000 
    185 H185        6.1691  -12.1937  -46.5385 H         1 UNK         0.0600 
    186 H186        5.8387  -15.1989  -46.0109 H         1 UNK         0.0600 
    187 H187        6.6361  -14.4575  -47.3882 H         1 UNK         0.0600 
    188 H188        7.3226  -14.2690  -45.7884 H         1 UNK         0.0600 
    189 H189        3.7642  -13.9580  -46.7396 H         1 UNK         0.3000 
    190 H190       -2.7873  -20.9825  -45.2146 H         1 UNK         0.3000 
    191 H191       -5.1104  -22.3818  -45.9617 H         1 UNK         0.0600 
    192 H192       -4.9088  -21.0093  -43.9046 H         1 UNK         0.0600 
    193 H193       -5.4817  -22.6287  -43.5339 H         1 UNK         0.0600 
    194 H194       -3.8114  -22.1961  -43.2019 H         1 UNK         0.0600 
    195 H195       -2.0095  -23.6355  -44.7276 H         1 UNK         0.3000 
    196 H196       -2.8784  -26.3859  -44.5799 H         1 UNK         0.0600 
    197 H197       -0.4515  -26.7980  -44.1188 H         1 UNK         0.0600 
    198 H198       -1.1169  -25.5300  -43.1004 H         1 UNK         0.0600 
    199 H199       -0.0963  -25.1099  -44.4708 H         1 UNK         0.0600 
    200 H200       -0.4933  -24.7431  -46.7736 H         1 UNK         0.3000 
    201 H201       -0.1747  -27.2170  -48.2624 H         1 UNK         0.0600 
    202 H202        1.7533  -25.7804  -47.6202 H         1 UNK         0.0600 
    203 H203        1.1354  -24.4758  -48.6317 H         1 UNK         0.0600 
    204 H204        1.6594  -25.9865  -49.3628 H         1 UNK         0.0600 
    205 H205       -1.5827  -23.9932  -48.9502 H         1 UNK         0.3000 
    206 H206       -2.1867  -24.7779  -51.7576 H         1 UNK         0.0600 
    207 H207       -1.0720  -22.5758  -51.3226 H         1 UNK         0.0600 
    208 H208       -2.6440  -22.3934  -52.0775 H         1 UNK         0.0600 
    209 H209       -2.4584  -22.0667  -50.3650 H         1 UNK         0.0600 
    210 H210       -3.6029  -25.2088  -48.8380 H         1 UNK         0.3000 
    211 H211       -5.6122  -25.5892  -47.9884 H         1 UNK         0.0600 
    212 H212       -6.4559  -26.1284  -50.8753 H         1 UNK         0.0600 
    213 H213       -7.3258  -26.6468  -49.4379 H         1 UNK         0.0600 
    214 H214       -5.7277  -27.2911  -49.7738 H         1 UNK         0.0600 
    215 H215       -4.9714  -22.9427  -48.2798 H         1 UNK         0.3000 
    216 H216       -5.7146  -20.8818  -48.0312 H         1 UNK         0.0600 
    217 H217       -8.0180  -20.3784  -47.3633 H         1 UNK         0.0600 
    218 H218       -7.4834  -21.8276  -46.5287 H         1 UNK         0.0600 
    219 H219       -8.5814  -21.9514  -47.9019 H         1 UNK         0.0600 
    220 H220       -4.9825  -21.6578  -50.4330 H         1 UNK         0.3000 
    221 H221       -4.7592  -21.0499  -52.5093 H         1 UNK         0.0600 
    222 H222       -6.6842  -18.7316  -51.9641 H         1 UNK         0.0600 
    223 H223       -4.9563  -18.7192  -51.6323 H         1 UNK         0.0600 
    224 H224       -5.5300  -18.8437  -53.2859 H         1 UNK         0.0600 
    225 H225       -6.1974  -23.1989  -52.3633 H         1 UNK         0.3000 
    226 H226       -8.7412  -23.0990  -53.7847 H         1 UNK         0.0600 
    227 H227       -8.2604  -24.8436  -52.0904 H         1 UNK         0.0600 
    228 H228       -8.5394  -25.5737  -53.6651 H         1 UNK         0.0600 
    229 H229       -6.8985  -25.4290  -53.0467 H         1 UNK         0.0600 
    230 H230       -8.0421  -21.8351  -55.5893 H         1 UNK         0.3000 
    231 H231       -7.5108  -21.4171  -57.6963 H         1 UNK         0.0600 
    232 H232       -7.1937  -24.4287  -58.1606 H         1 UNK         0.0600 
    233 H233       -7.4241  -23.1937  -59.3887 H         1 UNK         0.0600 
    234 H234       -8.7165  -23.5447  -58.2538 H         1 UNK         0.0600 
    235 H235       -5.5579  -21.2291  -55.7235 H         1 UNK         0.3000 
    236 H236       -2.9692  -22.0894  -56.8216 H         1 UNK         0.0600 
    237 H237       -3.5596  -22.1376  -54.3318 H         1 UNK         0.0600 
    238 H238       -2.0907  -21.2598  -54.7044 H         1 UNK         0.0600 
    239 H239       -3.5655  -20.3682  -54.3600 H         1 UNK         0.0600 
    240 H240       -1.2429  -20.2358  -56.4889 H         1 UNK         0.3000 
    241 H241       -0.2507  -18.3762  -57.0910 H         1 UNK         0.0600 
    242 H242       -1.5128  -20.3519  -59.2620 H         1 UNK         0.3800 
    243 H243       -1.0816  -19.4962  -60.7189 H         1 UNK         0.3800 
    244 H244       -1.3471  -16.2033  -57.3297 H         1 UNK         0.0800 
    245 H245       -2.9104  -16.9309  -57.4840 H         1 UNK         0.0800 
    246 H246       -1.2359  -18.8832  -54.4191 H         1 UNK         0.0800 
    247 H247        0.0036  -17.7245  -54.8611 H         1 UNK         0.0800 
@<TRIPOS>BOND
     1    1    2 1    
     2    1  127 1    
     3    1  128 1    
     4    1  129 1    
     5    2    3 2    
     6    2    4 am   BACKBONE|DICT|INTERRES
     7    4    5 1    
     8    4  130 1    
     9    5    6 1    
    10    5   65 1    
    11    5  131 1    
    12    6    7 1    
    13    6  132 1    
    14    6  133 1    
    15    7    8 1    
    16    8    9 1    
    17    8  134 1    
    18    8  135 1    
    19    9   10 ar   
    20    9   14 ar   
    21   10   11 ar   
    22   10  136 1    
    23   11   12 ar   
    24   11  126 1    
    25   12   13 ar   
    26   12  137 1    
    27   13   14 ar   
    28   13   15 1    
    29   14  138 1    
    30   15   16 1    
    31   15  139 1    
    32   15  140 1    
    33   16   17 1    
    34   17   18 1    
    35   17  141 1    
    36   17  142 1    
    37   18   19 1    
    38   18   67 1    
    39   18  143 1    
    40   19   20 am   BACKBONE|DICT|INTERRES
    41   19  144 1    
    42   20   21 2    
    43   20   22 1    
    44   22   23 1    
    45   22   24 1    
    46   22  145 1    
    47   23  146 1    
    48   23  147 1    
    49   23  148 1    
    50   24   25 am   BACKBONE|DICT|INTERRES
    51   24  149 1    
    52   25   26 2    
    53   25   27 1    
    54   27   28 1    
    55   27   29 1    
    56   27  150 1    
    57   28  151 1    
    58   28  152 1    
    59   28  153 1    
    60   29   30 am   BACKBONE|DICT|INTERRES
    61   29  154 1    
    62   30   31 2    
    63   30   32 1    
    64   32   33 1    
    65   32   34 1    
    66   32  155 1    
    67   33  156 1    
    68   33  157 1    
    69   33  158 1    
    70   34   35 am   BACKBONE|DICT|INTERRES
    71   34  159 1    
    72   35   36 2    
    73   35   37 1    
    74   37   38 1    
    75   37   39 1    
    76   37  160 1    
    77   38  161 1    
    78   38  162 1    
    79   38  163 1    
    80   39   40 am   BACKBONE|DICT|INTERRES
    81   39  164 1    
    82   40   41 2    
    83   40   42 1    
    84   42   43 1    
    85   42   44 1    
    86   42  165 1    
    87   43  166 1    
    88   43  167 1    
    89   43  168 1    
    90   44   45 am   BACKBONE|DICT|INTERRES
    91   44  169 1    
    92   45   46 2    
    93   45   47 1    
    94   47   48 1    
    95   47   49 1    
    96   47  170 1    
    97   48  171 1    
    98   48  172 1    
    99   48  173 1    
   100   49   50 am   BACKBONE|DICT|INTERRES
   101   49  174 1    
   102   50   51 2    
   103   50   52 1    
   104   52   53 1    
   105   52   54 1    
   106   52  175 1    
   107   53  176 1    
   108   53  177 1    
   109   53  178 1    
   110   54   55 am   BACKBONE|DICT|INTERRES
   111   54  179 1    
   112   55   56 2    
   113   55   57 1    
   114   57   58 1    
   115   57   59 1    
   116   57  180 1    
   117   58  181 1    
   118   58  182 1    
   119   58  183 1    
   120   59   60 am   BACKBONE|DICT|INTERRES
   121   59  184 1    
   122   60   61 2    
   123   60   62 1    
   124   62   63 1    
   125   62   64 1    
   126   62  185 1    
   127   63  186 1    
   128   63  187 1    
   129   63  188 1    
   130   64   65 am   BACKBONE|DICT|INTERRES
   131   64  189 1    
   132   65   66 2    
   133   67   68 2    
   134   67   69 am   BACKBONE|DICT|INTERRES
   135   69   70 1    
   136   69  190 1    
   137   70   71 1    
   138   70   72 1    
   139   70  191 1    
   140   71  192 1    
   141   71  193 1    
   142   71  194 1    
   143   72   73 2    
   144   72   74 am   BACKBONE|DICT|INTERRES
   145   74   75 1    
   146   74  195 1    
   147   75   76 1    
   148   75   77 1    
   149   75  196 1    
   150   76  197 1    
   151   76  198 1    
   152   76  199 1    
   153   77   78 2    
   154   77   79 am   BACKBONE|DICT|INTERRES
   155   79   80 1    
   156   79  200 1    
   157   80   81 1    
   158   80   82 1    
   159   80  201 1    
   160   81  202 1    
   161   81  203 1    
   162   81  204 1    
   163   82   83 2    
   164   82   84 am   BACKBONE|DICT|INTERRES
   165   84   85 1    
   166   84  205 1    
   167   85   86 1    
   168   85   87 1    
   169   85  206 1    
   170   86  207 1    
   171   86  208 1    
   172   86  209 1    
   173   87   88 2    
   174   87   89 am   BACKBONE|DICT|INTERRES
   175   89   90 1    
   176   89  210 1    
   177   90   91 1    
   178   90   92 1    
   179   90  211 1    
   180   91  212 1    
   181   91  213 1    
   182   91  214 1    
   183   92   93 2    
   184   92   94 am   BACKBONE|DICT|INTERRES
   185   94   95 1    
   186   94  215 1    
   187   95   96 1    
   188   95   97 1    
   189   95  216 1    
   190   96  217 1    
   191   96  218 1    
   192   96  219 1    
   193   97   98 2    
   194   97   99 am   BACKBONE|DICT|INTERRES
   195   99  100 1    
   196   99  220 1    
   197  100  101 1    
   198  100  102 1    
   199  100  221 1    
   200  101  222 1    
   201  101  223 1    
   202  101  224 1    
   203  102  103 2    
   204  102  104 am   BACKBONE|DICT|INTERRES
   205  104  105 1    
   206  104  225 1    
   207  105  106 1    
   208  105  107 1    
   209  105  226 1    
   210  106  227 1    
   211  106  228 1    
   212  106  229 1    
   213  107  108 2    
   214  107  109 am   BACKBONE|DICT|INTERRES
   215  109  110 1    
   216  109  230 1    
   217  110  111 1    
   218  110  112 1    
   219  110  231 1    
   220  111  232 1    
   221  111  233 1    
   222  111  234 1    
   223  112  113 2    
   224  112  114 am   BACKBONE|DICT|INTERRES
   225  114  115 1    
   226  114  235 1    
   227  115  116 1    
   228  115  117 1    
   229  115  236 1    
   230  116  237 1    
   231  116  238 1    
   232  116  239 1    
   233  117  118 2    
   234  117  119 am   BACKBONE|DICT|INTERRES
   235  119  120 1    
   236  119  240 1    
   237  120  121 1    
   238  120  124 1    
   239  120  241 1    
   240  121  122 am   BACKBONE|DICT|INTERRES
   241  121  123 2    
   242  122  242 1    
   243  122  243 1    
   244  124  125 1    
   245  124  244 1    
   246  124  245 1    
   247  125  126 1    
   248  126  246 1    
   249  126  247 1    
@<TRIPOS>SUBSTRUCTURE
     1 UNK         1 GROUP             0       ****    0 ROOT    
