@<TRIPOS>MOLECULE
3R540
247   249    1
SMALL
USER_CHARGES


@<TRIPOS>ATOM
      1 CA         -2.9113   -9.6521  -43.2892 C.3       0 UNK        -0.1800 
      2 C          -2.3627  -10.4660  -44.4519 C.2       0 UNK         0.5000 
      3 O          -1.2612  -11.0045  -44.3543 O.2       0 UNK        -0.5000 
      4 N          -3.1171  -10.5418  -45.5580 N.am      1 UNK        -0.5000 
      5 CA         -2.8078  -11.3174  -46.7729 C.3       1 UNK         0.1400 
      6 C6         -2.7764  -12.8511  -46.5274 C.3       23 UNK        -0.0398 
      7 S7         -4.3565  -13.4910  -45.8730 S.3       23 UNK        -0.2404 
      8 C8         -4.9803  -14.4633  -47.2811 C.3       23 UNK        -0.0205 
      9 C9         -4.2018  -15.7576  -47.4685 C.ar      23 UNK        -0.0193 
     10 C10        -3.2824  -15.8885  -48.5150 C.ar      23 UNK        -0.1150 
     11 C11        -2.5711  -17.0793  -48.6885 C.ar      23 UNK        -0.0193 
     12 C12        -2.7843  -18.1393  -47.8054 C.ar      23 UNK        -0.1150 
     13 C13        -3.7193  -18.0320  -46.7730 C.ar      23 UNK        -0.0193 
     14 C14        -4.4208  -16.8356  -46.6046 C.ar      23 UNK        -0.1150 
     15 C15        -3.9917  -19.2275  -45.8751 C.3       23 UNK        -0.0205 
     16 S16        -2.5816  -19.5667  -44.7812 S.3       23 UNK        -0.2404 
     17 C17        -2.6182  -21.3862  -44.6698 C.3       23 UNK        -0.0398 
     18 CA         -1.9638  -22.1002  -45.8855 C.3       11 UNK         0.1400 
     19 N          -0.5841  -21.6504  -46.1267 N.am      11 UNK        -0.5000 
     20 C           0.0818  -21.7550  -47.2870 C.2       10 UNK         0.5000 
     21 O          -0.3804  -22.3279  -48.2720 O.2       10 UNK        -0.5000 
     22 CA          1.4924  -21.1454  -47.3883 C.3       10 UNK         0.1400 
     23 CB          1.5433  -20.0663  -48.4828 C.3       10 UNK        -0.1800 
     24 N           1.9618  -20.5690  -46.1291 N.am      10 UNK        -0.5000 
     25 C           2.6805  -21.2267  -45.2093 C.2       9 UNK         0.5000 
     26 O           2.9934  -22.4132  -45.3151 O.2       9 UNK        -0.5000 
     27 CA          3.1437  -20.4404  -43.9648 C.3       9 UNK         0.1400 
     28 CB          4.6250  -20.0560  -44.1020 C.3       9 UNK        -0.1800 
     29 N           2.3662  -19.2289  -43.7027 N.am      9 UNK        -0.5000 
     30 C           1.0861  -19.2108  -43.3091 C.2       8 UNK         0.5000 
     31 O           0.4339  -20.2277  -43.0707 O.2       8 UNK        -0.5000 
     32 CA          0.4146  -17.8261  -43.2130 C.3       8 UNK         0.1400 
     33 CB          0.7012  -17.1794  -41.8503 C.3       8 UNK        -0.1800 
     34 N           0.8101  -16.9046  -44.2836 N.am      8 UNK        -0.5000 
     35 C           0.6599  -17.1373  -45.5970 C.2       7 UNK         0.5000 
     36 O           0.2039  -18.1785  -46.0610 O.2       7 UNK        -0.5000 
     37 CA          1.1668  -16.0509  -46.5563 C.3       7 UNK         0.1400 
     38 CB          0.1867  -14.8682  -46.6170 C.3       7 UNK        -0.1800 
     39 N           2.5063  -15.6080  -46.1658 N.am      7 UNK        -0.5000 
     40 C           3.6181  -16.3194  -46.4121 C.2       6 UNK         0.5000 
     41 O           3.6373  -17.3263  -47.1195 O.2       6 UNK        -0.5000 
     42 CA          4.9234  -15.8687  -45.7283 C.3       6 UNK         0.1400 
     43 CB          5.7966  -15.0328  -46.6738 C.3       6 UNK        -0.1800 
     44 N           4.6928  -15.1268  -44.4888 N.am      6 UNK        -0.5000 
     45 C           4.3092  -15.7025  -43.3404 C.2       5 UNK         0.5000 
     46 O           4.1238  -16.9124  -43.2158 O.2       5 UNK        -0.5000 
     47 CA          4.0443  -14.7722  -42.1414 C.3       5 UNK         0.1400 
     48 CB          5.3320  -14.5585  -41.3326 C.3       5 UNK        -0.1800 
     49 N           3.4895  -13.4708  -42.5168 N.am      5 UNK        -0.5000 
     50 C           2.3416  -13.2824  -43.1814 C.2       4 UNK         0.5000 
     51 O           1.6179  -14.2056  -43.5576 O.2       4 UNK        -0.5000 
     52 CA          1.9443  -11.8309  -43.5150 C.3       4 UNK         0.1400 
     53 CB          2.7586  -10.7615  -42.7526 C.3       4 UNK        -0.1800 
     54 N           1.9864  -11.5628  -44.9568 N.am      4 UNK        -0.5000 
     55 C           3.0387  -11.7102  -45.7784 C.2       3 UNK         0.5000 
     56 O           4.1201  -12.1804  -45.4205 O.2       3 UNK        -0.5000 
     57 CA          2.8761  -11.2549  -47.2437 C.3       3 UNK         0.1400 
     58 CB          3.0432  -12.4285  -48.2214 C.3       3 UNK        -0.1800 
     59 N           1.5965  -10.5987  -47.5160 N.am      3 UNK        -0.5000 
     60 C           1.3470   -9.2951  -47.3533 C.2       2 UNK         0.5000 
     61 O           2.1591   -8.5018  -46.8763 O.2       2 UNK        -0.5000 
     62 CA         -0.0356   -8.7813  -47.8042 C.3       2 UNK         0.1400 
     63 CB         -0.1048   -8.6491  -49.3377 C.3       2 UNK        -0.1800 
     64 N          -1.1788   -9.5415  -47.2815 N.am      2 UNK        -0.5000 
     65 C          -1.5396  -10.8146  -47.5082 C.2       1 UNK         0.5000 
     66 O          -0.9193  -11.5745  -48.2540 O.2       1 UNK        -0.5000 
     67 C          -2.0979  -23.6437  -45.7899 C.2       11 UNK         0.5000 
     68 O          -2.6673  -24.1575  -44.8254 O.2       11 UNK        -0.5000 
     69 N          -1.5789  -24.3657  -46.7894 N.am      12 UNK        -0.5000 
     70 CA         -1.6684  -25.8162  -46.9303 C.3       12 UNK         0.1400 
     71 CB         -0.5123  -26.3038  -47.8192 C.3       12 UNK        -0.1800 
     72 C          -3.0347  -26.2028  -47.5202 C.2       12 UNK         0.5000 
     73 O          -3.2308  -26.0853  -48.7307 O.2       12 UNK        -0.5000 
     74 N          -3.9615  -26.6397  -46.6562 N.am      13 UNK        -0.5000 
     75 CA         -5.3522  -26.9786  -46.9872 C.3       13 UNK         0.1400 
     76 CB         -6.0791  -27.4339  -45.7137 C.3       13 UNK        -0.1800 
     77 C          -5.5087  -28.0251  -48.1050 C.2       13 UNK         0.5000 
     78 O          -6.3995  -27.8874  -48.9441 O.2       13 UNK        -0.5000 
     79 N          -4.6041  -29.0126  -48.1313 N.am      14 UNK        -0.5000 
     80 CA         -4.5363  -30.0679  -49.1455 C.3       14 UNK         0.1400 
     81 CB         -3.5114  -31.1195  -48.6931 C.3       14 UNK        -0.1800 
     82 C          -4.1954  -29.5613  -50.5632 C.2       14 UNK         0.5000 
     83 O          -4.4803  -30.2632  -51.5342 O.2       14 UNK        -0.5000 
     84 N          -3.6020  -28.3646  -50.6596 N.am      15 UNK        -0.5000 
     85 CA         -3.2182  -27.7059  -51.9070 C.3       15 UNK         0.1400 
     86 CB         -1.7383  -27.2958  -51.7988 C.3       15 UNK        -0.1800 
     87 C          -4.1215  -26.4975  -52.2283 C.2       15 UNK         0.5000 
     88 O          -3.7881  -25.7419  -53.1391 O.2       15 UNK        -0.5000 
     89 N          -5.2340  -26.3356  -51.4915 N.am      16 UNK        -0.5000 
     90 CA         -6.1647  -25.2009  -51.5078 C.3       16 UNK         0.1400 
     91 CB         -6.7762  -24.9719  -52.9055 C.3       16 UNK        -0.1800 
     92 C          -5.4901  -23.9447  -50.9234 C.2       16 UNK         0.5000 
     93 O          -4.9416  -23.1249  -51.6641 O.2       16 UNK        -0.5000 
     94 N          -5.5235  -23.8678  -49.5850 N.am      17 UNK        -0.5000 
     95 CA         -4.7756  -22.9647  -48.7036 C.3       17 UNK         0.1400 
     96 CB         -5.3665  -23.0465  -47.2844 C.3       17 UNK        -0.1800 
     97 C          -4.6793  -21.4947  -49.1412 C.2       17 UNK         0.5000 
     98 O          -3.5828  -20.9442  -49.1395 O.2       17 UNK        -0.5000 
     99 N          -5.8223  -20.8899  -49.4795 N.am      18 UNK        -0.5000 
    100 CA        -5.9279  -19.4743  -49.8430 C.3       18 UNK         0.1400 
    101 CB        -7.1330  -18.8711  -49.1003 C.3       18 UNK        -0.1800 
    102 C         -6.0299  -19.2609  -51.3668 C.2       18 UNK         0.5000 
    103 O         -6.3830  -18.1612  -51.7968 O.2       18 UNK        -0.5000 
    104 N         -5.7512  -20.3051  -52.1567 N.am      19 UNK        -0.5000 
    105 CA        -5.8054  -20.2942  -53.6127 C.3       19 UNK         0.1400 
    106 CB        -7.0164  -21.1270  -54.0776 C.3       19 UNK        -0.1800 
    107 C         -4.4530  -20.7755  -54.1611 C.2       19 UNK         0.5000 
    108 O         -3.4652  -20.0497  -54.0428 O.2       19 UNK        -0.5000 
    109 N         -4.4214  -21.9711  -54.7647 N.am      20 UNK        -0.5000 
    110 CA        -3.2611  -22.5386  -55.4550 C.3       20 UNK         0.1400 
    111 CB        -3.6791  -23.8348  -56.1650 C.3       20 UNK        -0.1800 
    112 C         -2.0260  -22.7666  -54.5620 C.2       20 UNK         0.5000 
    113 O         -0.9038  -22.6942  -55.0675 O.2       20 UNK        -0.5000 
    114 N         -2.2334  -22.9872  -53.2555 N.am      21 UNK        -0.5000 
    115 CA        -1.1634  -23.1660  -52.2707 C.3       21 UNK         0.1400 
    116 CB        -1.7648  -23.6100  -50.9340 C.3       21 UNK        -0.1800 
    117 C         -0.2866  -21.9118  -52.0732 C.2       21 UNK         0.5000 
    118 O          0.8676  -22.0489  -51.6660 O.2       21 UNK        -0.5000 
    119 N         -0.8224  -20.7266  -52.4014 N.am      22 UNK        -0.5000 
    120 CA        -0.0900  -19.4500  -52.4079 C.3       22 UNK         0.1400 
    121 C          0.9788  -19.3311  -53.5370 C.2       22 UNK         0.5000 
    122 N          1.0091  -20.2105  -54.5335 N.am      22 UNK        -0.7600 
    123 O          1.8015  -18.4201  -53.5066 O.2       22 UNK        -0.5000 
    124 C124       -1.0370  -18.2207  -52.4419 C.3       23 UNK        -0.0398 
    125 S125       -2.3395  -18.2439  -51.1652 S.3       23 UNK        -0.2404 
    126 C126       -1.5953  -17.2411  -49.8429 C.3       23 UNK        -0.0205 
    127 H127       -2.2282   -8.8384  -43.0458 H         1 UNK         0.0600 
    128 H128       -3.8863   -9.2219  -43.5192 H         1 UNK         0.0600 
    129 H129       -3.0178  -10.2846  -42.4079 H         1 UNK         0.0600 
    130 H130       -4.0110  -10.0702  -45.5698 H         1 UNK         0.3000 
    131 H131       -3.6270  -11.1199  -47.4658 H         1 UNK         0.0600 
    132 H132       -2.5364  -13.3830  -47.4479 H         1 UNK         0.0800 
    133 H133       -1.9887  -13.1093  -45.8196 H         1 UNK         0.0800 
    134 H134       -6.0307  -14.7005  -47.1062 H         1 UNK         0.0800 
    135 H135       -4.9533  -13.8556  -48.1870 H         1 UNK         0.0800 
    136 H136       -3.1245  -15.0668  -49.1991 H         1 UNK         0.1150 
    137 H137       -2.2385  -19.0634  -47.9384 H         1 UNK         0.1150 
    138 H138       -5.1428  -16.7417  -45.8056 H         1 UNK         0.1150 
    139 H139       -4.8867  -19.0719  -45.2711 H         1 UNK         0.0800 
    140 H140       -4.1930  -20.0886  -46.5093 H         1 UNK         0.0800 
    141 H141       -3.6564  -21.6986  -44.5445 H         1 UNK         0.0800 
    142 H142       -2.1038  -21.6687  -43.7495 H         1 UNK         0.0800 
    143 H143       -2.5399  -21.8127  -46.7656 H         1 UNK         0.0600 
    144 H144       -0.1419  -21.1536  -45.3652 H         1 UNK         0.3000 
    145 H145        2.1664  -21.9491  -47.6916 H         1 UNK         0.0600 
    146 H146        2.5296  -19.6058  -48.5428 H         1 UNK         0.0600 
    147 H147        1.3272  -20.4981  -49.4598 H         1 UNK         0.0600 
    148 H148        0.8128  -19.2772  -48.3104 H         1 UNK         0.0600 
    149 H149        1.6789  -19.6113  -45.9514 H         1 UNK         0.3000 
    150 H150        3.0404  -21.1025  -43.1028 H         1 UNK         0.0600 
    151 H151        5.2447  -20.9344  -44.2867 H         1 UNK         0.0600 
    152 H152        4.9958  -19.5842  -43.1919 H         1 UNK         0.0600 
    153 H153        4.7829  -19.3610  -44.9280 H         1 UNK         0.0600 
    154 H154        2.8556  -18.3454  -43.8058 H         1 UNK         0.3000 
    155 H155       -0.6631  -17.9708  -43.2943 H         1 UNK         0.0600 
    156 H156        0.2158  -16.2072  -41.7620 H         1 UNK         0.0600 
    157 H157        1.7697  -17.0382  -41.6909 H         1 UNK         0.0600 
    158 H158        0.3297  -17.8050  -41.0379 H         1 UNK         0.0600 
    159 H159        1.1775  -16.0024  -43.9928 H         1 UNK         0.3000 
    160 H160        1.2124  -16.4884  -47.5563 H         1 UNK         0.0600 
    161 H161        0.1805  -14.2884  -45.6951 H         1 UNK         0.0600 
    162 H162       -0.8311  -15.2234  -46.7843 H         1 UNK         0.0600 
    163 H163        0.4215  -14.1928  -47.4376 H         1 UNK         0.0600 
    164 H164        2.5583  -14.8332  -45.5185 H         1 UNK         0.3000 
    165 H165        5.4823  -16.7752  -45.4852 H         1 UNK         0.0600 
    166 H166        5.3499  -14.0635  -46.8826 H         1 UNK         0.0600 
    167 H167        6.7818  -14.8566  -46.2419 H         1 UNK         0.0600 
    168 H168        5.9457  -15.5420  -47.6268 H         1 UNK         0.0600 
    169 H169        4.7700  -14.1173  -44.5364 H         1 UNK         0.3000 
    170 H170        3.3160  -15.2647  -41.4952 H         1 UNK         0.0600 
    171 H171        5.7581  -15.5122  -41.0180 H         1 UNK         0.0600 
    172 H172        6.0913  -14.0356  -41.9155 H         1 UNK         0.0600 
    173 H173        5.1402  -13.9768  -40.4307 H         1 UNK         0.0600 
    174 H174        4.0383  -12.6591  -42.2737 H         1 UNK         0.3000 
    175 H175        0.9058  -11.7315  -43.2017 H         1 UNK         0.0600 
    176 H176        2.3671   -9.7642  -42.9540 H         1 UNK         0.0600 
    177 H177        2.6996  -10.9144  -41.6742 H         1 UNK         0.0600 
    178 H178        3.8119  -10.7615  -43.0351 H         1 UNK         0.0600 
    179 H179        1.1258  -11.2084  -45.3509 H         1 UNK         0.3000 
    180 H180        3.6803  -10.5444  -47.4460 H         1 UNK         0.0600 
    181 H181        2.3886  -13.2620  -47.9752 H         1 UNK         0.0600 
    182 H182        4.0666  -12.7994  -48.2110 H         1 UNK         0.0600 
    183 H183        2.8286  -12.1248  -49.2462 H         1 UNK         0.0600 
    184 H184        0.8466  -11.1735  -47.8942 H         1 UNK         0.3000 
    185 H185       -0.1415   -7.7773  -47.3901 H         1 UNK         0.0600 
    186 H186       -1.0506   -8.2084  -49.6525 H         1 UNK         0.0600 
    187 H187        0.6931   -8.0042  -49.7080 H         1 UNK         0.0600 
    188 H188       -0.0012   -9.6123  -49.8380 H         1 UNK         0.0600 
    189 H189       -1.7535   -9.0323  -46.6246 H         1 UNK         0.3000 
    190 H190       -1.1406  -23.8548  -47.5527 H         1 UNK         0.3000 
    191 H191       -1.5578  -26.2843  -45.9499 H         1 UNK         0.0600 
    192 H192        0.4528  -26.0849  -47.3623 H         1 UNK         0.0600 
    193 H193       -0.5641  -27.3826  -47.9717 H         1 UNK         0.0600 
    194 H194       -0.5283  -25.8325  -48.8021 H         1 UNK         0.0600 
    195 H195       -3.7194  -26.6750  -45.6758 H         1 UNK         0.3000 
    196 H196       -5.8395  -26.0712  -47.3430 H         1 UNK         0.0600 
    197 H197       -7.1215  -27.6782  -45.9232 H         1 UNK         0.0600 
    198 H198       -6.0774  -26.6489  -44.9570 H         1 UNK         0.0600 
    199 H199       -5.6146  -28.3203  -45.2798 H         1 UNK         0.0600 
    200 H200       -3.8984  -29.0328  -47.4096 H         1 UNK         0.3000 
    201 H201       -5.5170  -30.5452  -49.1984 H         1 UNK         0.0600 
    202 H202       -3.7837  -31.5475  -47.7282 H         1 UNK         0.0600 
    203 H203       -2.5115  -30.6930  -48.6029 H         1 UNK         0.0600 
    204 H204       -3.4538  -31.9427  -49.4066 H         1 UNK         0.0600 
    205 H205       -3.4384  -27.8231  -49.8172 H         1 UNK         0.3000 
    206 H206       -3.3123  -28.3939  -52.7492 H         1 UNK         0.0600 
    207 H207       -1.5675  -26.6278  -50.9550 H         1 UNK         0.0600 
    208 H208       -1.1002  -28.1690  -51.6635 H         1 UNK         0.0600 
    209 H209       -1.3978  -26.7840  -52.6999 H         1 UNK         0.0600 
    210 H210       -5.4092  -27.0194  -50.7660 H         1 UNK         0.3000 
    211 H211       -6.9866  -25.4768  -50.8450 H         1 UNK         0.0600 
    212 H212       -6.0509  -24.5842  -53.6208 H         1 UNK         0.0600 
    213 H213       -7.5953  -24.2552  -52.8499 H         1 UNK         0.0600 
    214 H214       -7.1844  -25.8969  -53.3125 H         1 UNK         0.0600 
    215 H215       -6.0125  -24.6077  -49.1059 H         1 UNK         0.3000 
    216 H216       -3.7542  -23.3453  -48.6608 H         1 UNK         0.0600 
    217 H217       -5.1469  -24.0021  -46.8142 H         1 UNK         0.0600 
    218 H218       -6.4487  -22.9124  -47.2894 H         1 UNK         0.0600 
    219 H219       -4.9527  -22.2808  -46.6300 H         1 UNK         0.0600 
    220 H220       -6.6778  -21.4262  -49.4840 H         1 UNK         0.3000 
    221 H221       -5.0390  -18.9321  -49.5148 H         1 UNK         0.0600 
    222 H222       -8.0710  -19.3296  -49.4152 H         1 UNK         0.0600 
    223 H223       -7.0359  -19.0053  -48.0227 H         1 UNK         0.0600 
    224 H224       -7.2109  -17.7984  -49.2822 H         1 UNK         0.0600 
    225 H225       -5.4190  -21.1685  -51.7375 H         1 UNK         0.3000 
    226 H226       -5.9360  -19.2775  -53.9883 H         1 UNK         0.0600 
    227 H227       -7.9477  -20.6864  -53.7213 H         1 UNK         0.0600 
    228 H228       -7.0771  -21.1663  -55.1660 H         1 UNK         0.0600 
    229 H229       -6.9745  -22.1486  -53.7031 H         1 UNK         0.0600 
    230 H230       -5.2671  -22.5209  -54.7837 H         1 UNK         0.3000 
    231 H231       -2.9629  -21.8216  -56.2226 H         1 UNK         0.0600 
    232 H232       -4.0695  -24.5706  -55.4627 H         1 UNK         0.0600 
    233 H233       -2.8330  -24.2901  -56.6812 H         1 UNK         0.0600 
    234 H234       -4.4497  -23.6439  -56.9120 H         1 UNK         0.0600 
    235 H235       -3.1858  -23.0528  -52.9113 H         1 UNK         0.3000 
    236 H236       -0.5188  -23.9694  -52.6329 H         1 UNK         0.0600 
    237 H237       -0.9832  -23.9398  -50.2509 H         1 UNK         0.0600 
    238 H238       -2.2967  -22.7909  -50.4553 H         1 UNK         0.0600 
    239 H239       -2.4610  -24.4369  -51.0523 H         1 UNK         0.0600 
    240 H240       -1.7752  -20.6918  -52.7437 H         1 UNK         0.3000 
    241 H241        0.4629  -19.3992  -51.4686 H         1 UNK         0.0600 
    242 H242        1.7095  -20.1186  -55.2521 H         1 UNK         0.3800 
    243 H243        0.3470  -20.9752  -54.5757 H         1 UNK         0.3800 
    244 H244       -0.4672  -17.2949  -52.3449 H         1 UNK         0.0800 
    245 H245       -1.5360  -18.1638  -53.4108 H         1 UNK         0.0800 
    246 H246       -0.6825  -17.7220  -49.4890 H         1 UNK         0.0800 
    247 H247       -1.3059  -16.2662  -50.2380 H         1 UNK         0.0800 
@<TRIPOS>BOND
     1    1    2 1    
     2    1  127 1    
     3    1  128 1    
     4    1  129 1    
     5    2    3 2    
     6    2    4 am   BACKBONE|DICT|INTERRES
     7    4    5 1    
     8    4  130 1    
     9    5    6 1    
    10    5   65 1    
    11    5  131 1    
    12    6    7 1    
    13    6  132 1    
    14    6  133 1    
    15    7    8 1    
    16    8    9 1    
    17    8  134 1    
    18    8  135 1    
    19    9   10 ar   
    20    9   14 ar   
    21   10   11 ar   
    22   10  136 1    
    23   11   12 ar   
    24   11  126 1    
    25   12   13 ar   
    26   12  137 1    
    27   13   14 ar   
    28   13   15 1    
    29   14  138 1    
    30   15   16 1    
    31   15  139 1    
    32   15  140 1    
    33   16   17 1    
    34   17   18 1    
    35   17  141 1    
    36   17  142 1    
    37   18   19 1    
    38   18   67 1    
    39   18  143 1    
    40   19   20 am   BACKBONE|DICT|INTERRES
    41   19  144 1    
    42   20   21 2    
    43   20   22 1    
    44   22   23 1    
    45   22   24 1    
    46   22  145 1    
    47   23  146 1    
    48   23  147 1    
    49   23  148 1    
    50   24   25 am   BACKBONE|DICT|INTERRES
    51   24  149 1    
    52   25   26 2    
    53   25   27 1    
    54   27   28 1    
    55   27   29 1    
    56   27  150 1    
    57   28  151 1    
    58   28  152 1    
    59   28  153 1    
    60   29   30 am   BACKBONE|DICT|INTERRES
    61   29  154 1    
    62   30   31 2    
    63   30   32 1    
    64   32   33 1    
    65   32   34 1    
    66   32  155 1    
    67   33  156 1    
    68   33  157 1    
    69   33  158 1    
    70   34   35 am   BACKBONE|DICT|INTERRES
    71   34  159 1    
    72   35   36 2    
    73   35   37 1    
    74   37   38 1    
    75   37   39 1    
    76   37  160 1    
    77   38  161 1    
    78   38  162 1    
    79   38  163 1    
    80   39   40 am   BACKBONE|DICT|INTERRES
    81   39  164 1    
    82   40   41 2    
    83   40   42 1    
    84   42   43 1    
    85   42   44 1    
    86   42  165 1    
    87   43  166 1    
    88   43  167 1    
    89   43  168 1    
    90   44   45 am   BACKBONE|DICT|INTERRES
    91   44  169 1    
    92   45   46 2    
    93   45   47 1    
    94   47   48 1    
    95   47   49 1    
    96   47  170 1    
    97   48  171 1    
    98   48  172 1    
    99   48  173 1    
   100   49   50 am   BACKBONE|DICT|INTERRES
   101   49  174 1    
   102   50   51 2    
   103   50   52 1    
   104   52   53 1    
   105   52   54 1    
   106   52  175 1    
   107   53  176 1    
   108   53  177 1    
   109   53  178 1    
   110   54   55 am   BACKBONE|DICT|INTERRES
   111   54  179 1    
   112   55   56 2    
   113   55   57 1    
   114   57   58 1    
   115   57   59 1    
   116   57  180 1    
   117   58  181 1    
   118   58  182 1    
   119   58  183 1    
   120   59   60 am   BACKBONE|DICT|INTERRES
   121   59  184 1    
   122   60   61 2    
   123   60   62 1    
   124   62   63 1    
   125   62   64 1    
   126   62  185 1    
   127   63  186 1    
   128   63  187 1    
   129   63  188 1    
   130   64   65 am   BACKBONE|DICT|INTERRES
   131   64  189 1    
   132   65   66 2    
   133   67   68 2    
   134   67   69 am   BACKBONE|DICT|INTERRES
   135   69   70 1    
   136   69  190 1    
   137   70   71 1    
   138   70   72 1    
   139   70  191 1    
   140   71  192 1    
   141   71  193 1    
   142   71  194 1    
   143   72   73 2    
   144   72   74 am   BACKBONE|DICT|INTERRES
   145   74   75 1    
   146   74  195 1    
   147   75   76 1    
   148   75   77 1    
   149   75  196 1    
   150   76  197 1    
   151   76  198 1    
   152   76  199 1    
   153   77   78 2    
   154   77   79 am   BACKBONE|DICT|INTERRES
   155   79   80 1    
   156   79  200 1    
   157   80   81 1    
   158   80   82 1    
   159   80  201 1    
   160   81  202 1    
   161   81  203 1    
   162   81  204 1    
   163   82   83 2    
   164   82   84 am   BACKBONE|DICT|INTERRES
   165   84   85 1    
   166   84  205 1    
   167   85   86 1    
   168   85   87 1    
   169   85  206 1    
   170   86  207 1    
   171   86  208 1    
   172   86  209 1    
   173   87   88 2    
   174   87   89 am   BACKBONE|DICT|INTERRES
   175   89   90 1    
   176   89  210 1    
   177   90   91 1    
   178   90   92 1    
   179   90  211 1    
   180   91  212 1    
   181   91  213 1    
   182   91  214 1    
   183   92   93 2    
   184   92   94 am   BACKBONE|DICT|INTERRES
   185   94   95 1    
   186   94  215 1    
   187   95   96 1    
   188   95   97 1    
   189   95  216 1    
   190   96  217 1    
   191   96  218 1    
   192   96  219 1    
   193   97   98 2    
   194   97   99 am   BACKBONE|DICT|INTERRES
   195   99  100 1    
   196   99  220 1    
   197  100  101 1    
   198  100  102 1    
   199  100  221 1    
   200  101  222 1    
   201  101  223 1    
   202  101  224 1    
   203  102  103 2    
   204  102  104 am   BACKBONE|DICT|INTERRES
   205  104  105 1    
   206  104  225 1    
   207  105  106 1    
   208  105  107 1    
   209  105  226 1    
   210  106  227 1    
   211  106  228 1    
   212  106  229 1    
   213  107  108 2    
   214  107  109 am   BACKBONE|DICT|INTERRES
   215  109  110 1    
   216  109  230 1    
   217  110  111 1    
   218  110  112 1    
   219  110  231 1    
   220  111  232 1    
   221  111  233 1    
   222  111  234 1    
   223  112  113 2    
   224  112  114 am   BACKBONE|DICT|INTERRES
   225  114  115 1    
   226  114  235 1    
   227  115  116 1    
   228  115  117 1    
   229  115  236 1    
   230  116  237 1    
   231  116  238 1    
   232  116  239 1    
   233  117  118 2    
   234  117  119 am   BACKBONE|DICT|INTERRES
   235  119  120 1    
   236  119  240 1    
   237  120  121 1    
   238  120  124 1    
   239  120  241 1    
   240  121  122 am   BACKBONE|DICT|INTERRES
   241  121  123 2    
   242  122  242 1    
   243  122  243 1    
   244  124  125 1    
   245  124  244 1    
   246  124  245 1    
   247  125  126 1    
   248  126  246 1    
   249  126  247 1    
@<TRIPOS>SUBSTRUCTURE
     1 UNK         1 GROUP             0       ****    0 ROOT    
