@<TRIPOS>MOLECULE
3R540
247   249    1
SMALL
USER_CHARGES


@<TRIPOS>ATOM
      1 CA          1.7253   -9.8867  -46.4962 C.3       0 UNK        -0.1800 
      2 C           3.0257  -10.4763  -47.0216 C.2       0 UNK         0.5000 
      3 O           4.0248  -10.4969  -46.3033 O.2       0 UNK        -0.5000 
      4 N           3.0154  -10.9807  -48.2624 N.am      1 UNK        -0.5000 
      5 CA          4.1643  -11.5889  -48.9525 C.3       1 UNK         0.1400 
      6 C6          3.9063  -11.7563  -50.4723 C.3       23 UNK        -0.0398 
      7 S7          2.3655  -12.6537  -50.8718 S.3       23 UNK        -0.2404 
      8 C8          3.0209  -14.2330  -51.4888 C.3       23 UNK        -0.0205 
      9 C9          1.9020  -15.2482  -51.6471 C.ar      23 UNK        -0.0193 
     10 C10         1.2818  -15.4459  -52.8853 C.ar      23 UNK        -0.1150 
     11 C11         0.2361  -16.3668  -53.0128 C.ar      23 UNK        -0.0193 
     12 C12        -0.1845  -17.0929  -51.8943 C.ar      23 UNK        -0.1150 
     13 C13         0.4338  -16.9055  -50.6563 C.ar      23 UNK        -0.0193 
     14 C14         1.4759  -15.9831  -50.5386 C.ar      23 UNK        -0.1150 
     15 C15        -0.0249  -17.6819  -49.4367 C.3       23 UNK        -0.0205 
     16 S16         1.0361  -19.1328  -49.1502 S.3       23 UNK        -0.2404 
     17 C17         0.6913  -19.4404  -47.3860 C.3       23 UNK        -0.0398 
     18 CA         -0.2120  -20.6533  -47.0550 C.3       11 UNK         0.1400 
     19 N          -0.4569  -20.7104  -45.6131 N.am      11 UNK        -0.5000 
     20 C          -1.0971  -21.6822  -44.9529 C.2       10 UNK         0.5000 
     21 O          -1.5480  -22.6931  -45.4883 O.2       10 UNK        -0.5000 
     22 CA         -1.3156  -21.4535  -43.4466 C.3       10 UNK         0.1400 
     23 CB         -0.0269  -21.7259  -42.6566 C.3       10 UNK        -0.1800 
     24 N          -1.7957  -20.1013  -43.1551 N.am      10 UNK        -0.5000 
     25 C          -2.9775  -19.6167  -43.5643 C.2       9 UNK         0.5000 
     26 O          -3.8073  -20.2770  -44.1908 O.2       9 UNK        -0.5000 
     27 CA         -3.2647  -18.1353  -43.2580 C.3       9 UNK         0.1400 
     28 CB         -3.6973  -17.9519  -41.7956 C.3       9 UNK        -0.1800 
     29 N          -2.1257  -17.2625  -43.5465 N.am      9 UNK        -0.5000 
     30 C          -1.5943  -17.0823  -44.7640 C.2       8 UNK         0.5000 
     31 O          -2.0221  -17.6167  -45.7852 O.2       8 UNK        -0.5000 
     32 CA         -0.3396  -16.1982  -44.8534 C.3       8 UNK         0.1400 
     33 CB         -0.7161  -14.7092  -44.8067 C.3       8 UNK        -0.1800 
     34 N           0.6389  -16.5048  -43.8096 N.am      8 UNK        -0.5000 
     35 C           1.2365  -17.6950  -43.6473 C.2       7 UNK         0.5000 
     36 O           1.0563  -18.6602  -44.3864 O.2       7 UNK        -0.5000 
     37 CA          2.1461  -17.8566  -42.4206 C.3       7 UNK         0.1400 
     38 CB          3.5295  -17.2400  -42.6735 C.3       7 UNK        -0.1800 
     39 N           1.5436  -17.2744  -41.2231 N.am      7 UNK        -0.5000 
     40 C           0.4370  -17.7467  -40.6300 C.2       6 UNK         0.5000 
     41 O          -0.1627  -18.7575  -40.9976 O.2       6 UNK        -0.5000 
     42 CA         -0.1166  -16.9149  -39.4597 C.3       6 UNK         0.1400 
     43 CB          0.6171  -17.2563  -38.1543 C.3       6 UNK        -0.1800 
     44 N          -0.0195  -15.4760  -39.7120 N.am      6 UNK        -0.5000 
     45 C          -0.7170  -14.8273  -40.6556 C.2       5 UNK         0.5000 
     46 O          -1.5501  -15.3682  -41.3820 O.2       5 UNK        -0.5000 
     47 CA         -0.3916  -13.3351  -40.8489 C.3       5 UNK         0.1400 
     48 CB         -1.1910  -12.4736  -39.8601 C.3       5 UNK        -0.1800 
     49 N           1.0382  -13.0432  -40.7077 N.am      5 UNK        -0.5000 
     50 C           1.9815  -13.4726  -41.5553 C.2       4 UNK         0.5000 
     51 O           1.7480  -14.1682  -42.5467 O.2       4 UNK        -0.5000 
     52 CA          3.4291  -13.0996  -41.2200 C.3       4 UNK         0.1400 
     53 CB          4.0509  -14.1351  -40.2642 C.3       4 UNK        -0.1800 
     54 N           4.1898  -13.0225  -42.4634 N.am      4 UNK        -0.5000 
     55 C           5.3636  -12.4009  -42.6193 C.2       3 UNK         0.5000 
     56 O           5.9697  -11.8687  -41.6875 O.2       3 UNK        -0.5000 
     57 CA          5.9491  -12.2974  -44.0434 C.3       3 UNK         0.1400 
     58 CB          7.4331  -12.7172  -44.0980 C.3       3 UNK        -0.1800 
     59 N           5.1620  -12.9514  -45.0975 N.am      3 UNK        -0.5000 
     60 C           5.0392  -14.2622  -45.3632 C.2       2 UNK         0.5000 
     61 O           5.5434  -15.1484  -44.6745 O.2       2 UNK        -0.5000 
     62 CA          4.2064  -14.6624  -46.6035 C.3       2 UNK         0.1400 
     63 CB          2.9227  -15.3886  -46.1792 C.3       2 UNK        -0.1800 
     64 N           3.8419  -13.5246  -47.4520 N.am      2 UNK        -0.5000 
     65 C           4.6718  -12.8970  -48.2984 C.2       1 UNK         0.5000 
     66 O           5.8130  -13.2898  -48.5432 O.2       1 UNK        -0.5000 
     67 C          -1.5300  -20.6754  -47.8600 C.2       11 UNK         0.5000 
     68 O          -1.6486  -21.4586  -48.8013 O.2       11 UNK        -0.5000 
     69 N          -2.5116  -19.8599  -47.4496 N.am      12 UNK        -0.5000 
     70 CA         -3.8404  -19.7871  -48.0590 C.3       12 UNK         0.1400 
     71 CB         -4.6200  -18.6122  -47.4504 C.3       12 UNK        -0.1800 
     72 C          -4.6492  -21.0922  -47.9399 C.2       12 UNK         0.5000 
     73 O          -5.4419  -21.3832  -48.8326 O.2       12 UNK        -0.5000 
     74 N          -4.4336  -21.8583  -46.8619 N.am      13 UNK        -0.5000 
     75 CA         -5.0195  -23.1847  -46.6706 C.3       13 UNK         0.1400 
     76 CB         -5.0198  -23.5322  -45.1743 C.3       13 UNK        -0.1800 
     77 C          -4.2820  -24.2637  -47.4861 C.2       13 UNK         0.5000 
     78 O          -4.9279  -25.1253  -48.0833 O.2       13 UNK        -0.5000 
     79 N          -2.9439  -24.1965  -47.5007 N.am      14 UNK        -0.5000 
     80 CA         -2.0613  -25.1379  -48.1931 C.3       14 UNK         0.1400 
     81 CB         -0.6253  -24.9452  -47.6832 C.3       14 UNK        -0.1800 
     82 C          -2.0992  -25.0258  -49.7287 C.2       14 UNK         0.5000 
     83 O          -1.7458  -25.9946  -50.4016 O.2       14 UNK        -0.5000 
     84 N          -2.5077  -23.8592  -50.2476 N.am      15 UNK        -0.5000 
     85 CA         -2.6191  -23.4948  -51.6616 C.3       15 UNK         0.1400 
     86 CB         -3.3569  -22.1531  -51.7596 C.3       15 UNK        -0.1800 
     87 C          -3.3128  -24.5694  -52.5215 C.2       15 UNK         0.5000 
     88 O          -4.5146  -24.8037  -52.3640 O.2       15 UNK        -0.5000 
     89 N          -2.5154  -25.2403  -53.3661 N.am      16 UNK        -0.5000 
     90 CA         -2.8765  -26.3513  -54.2587 C.3       16 UNK         0.1400 
     91 CB         -3.8451  -25.8618  -55.3539 C.3       16 UNK        -0.1800 
     92 C          -3.4201  -27.6054  -53.5348 C.2       16 UNK         0.5000 
     93 O          -4.0316  -28.4571  -54.1813 O.2       16 UNK        -0.5000 
     94 N          -3.2164  -27.6854  -52.2096 N.am      17 UNK        -0.5000 
     95 CA         -3.7822  -28.6592  -51.2687 C.3       17 UNK         0.1400 
     96 CB         -3.2054  -30.0667  -51.5260 C.3       17 UNK        -0.1800 
     97 C          -5.3286  -28.6455  -51.2195 C.2       17 UNK         0.5000 
     98 O          -5.9336  -29.6421  -50.8201 O.2       17 UNK        -0.5000 
     99 N          -5.9416  -27.5271  -51.6317 N.am      18 UNK        -0.5000 
    100 CA        -7.3880  -27.3777  -51.8055 C.3       18 UNK         0.1400 
    101 CB        -7.7266  -27.6106  -53.2896 C.3       18 UNK        -0.1800 
    102 C         -7.9023  -26.0096  -51.3219 C.2       18 UNK         0.5000 
    103 O         -9.0747  -25.7007  -51.5397 O.2       18 UNK        -0.5000 
    104 N         -7.0259  -25.2126  -50.6932 N.am      19 UNK        -0.5000 
    105 CA        -7.2324  -23.8249  -50.2700 C.3       19 UNK         0.1400 
    106 CB        -8.2348  -23.7457  -49.1001 C.3       19 UNK        -0.1800 
    107 C         -7.5853  -22.8951  -51.4515 C.2       19 UNK         0.5000 
    108 O         -8.5429  -22.1210  -51.3806 O.2       19 UNK        -0.5000 
    109 N         -6.8153  -23.0299  -52.5386 N.am      20 UNK        -0.5000 
    110 CA        -6.9328  -22.2512  -53.7705 C.3       20 UNK         0.1400 
    111 CB        -6.1755  -23.0009  -54.8800 C.3       20 UNK        -0.1800 
    112 C         -6.4217  -20.8017  -53.6180 C.2       20 UNK         0.5000 
    113 O         -5.9698  -20.3998  -52.5441 O.2       20 UNK        -0.5000 
    114 N         -6.4909  -20.0337  -54.7141 N.am      21 UNK        -0.5000 
    115 CA        -6.0136  -18.6491  -54.7895 C.3       21 UNK         0.1400 
    116 CB        -6.4777  -18.0293  -56.1166 C.3       21 UNK        -0.1800 
    117 C         -4.4848  -18.5103  -54.6357 C.2       21 UNK         0.5000 
    118 O         -4.0211  -17.4893  -54.1283 O.2       21 UNK        -0.5000 
    119 N         -3.7367  -19.5333  -55.0638 N.am      22 UNK        -0.5000 
    120 CA        -2.2816  -19.6545  -54.9277 C.3       22 UNK         0.1400 
    121 C         -1.8370  -21.1362  -55.0774 C.2       22 UNK         0.5000 
    122 N         -0.5763  -21.4435  -54.8087 N.am      22 UNK        -0.7600 
    123 O         -2.6212  -22.0126  -55.4358 O.2       22 UNK        -0.5000 
    124 C124       -1.5070  -18.6905  -55.8746 C.3       23 UNK        -0.0398 
    125 S125        0.0650  -18.1193  -55.1416 S.3       23 UNK        -0.2404 
    126 C126       -0.4630  -16.5690  -54.3467 C.3       23 UNK        -0.0205 
    127 H127        1.8687   -8.8388  -46.2324 H         1 UNK         0.0600 
    128 H128        0.9259   -9.9456  -47.2353 H         1 UNK         0.0600 
    129 H129        1.4043  -10.4237  -45.6034 H         1 UNK         0.0600 
    130 H130        2.1605  -10.9552  -48.8013 H         1 UNK         0.3000 
    131 H131        4.9899  -10.8808  -48.8533 H         1 UNK         0.0600 
    132 H132        3.8293  -10.7683  -50.9280 H         1 UNK         0.0800 
    133 H133        4.7576  -12.2311  -50.9639 H         1 UNK         0.0800 
    134 H134        3.5296  -14.0712  -52.4404 H         1 UNK         0.0800 
    135 H135        3.7702  -14.6185  -50.7953 H         1 UNK         0.0800 
    136 H136        1.6053  -14.8758  -53.7449 H         1 UNK         0.1150 
    137 H137       -0.9939  -17.8034  -51.9901 H         1 UNK         0.1150 
    138 H138        1.9522  -15.8309  -49.5800 H         1 UNK         0.1150 
    139 H139       -0.0042  -17.0166  -48.5722 H         1 UNK         0.0800 
    140 H140       -1.0607  -18.0060  -49.5507 H         1 UNK         0.0800 
    141 H141        0.2689  -18.5386  -46.9453 H         1 UNK         0.0800 
    142 H142        1.6558  -19.5730  -46.8940 H         1 UNK         0.0800 
    143 H143        0.3384  -21.5575  -47.3219 H         1 UNK         0.0600 
    144 H144       -0.0875  -19.9287  -45.0760 H         1 UNK         0.3000 
    145 H145       -2.0767  -22.1605  -43.1102 H         1 UNK         0.0600 
    146 H146       -0.1989  -21.6412  -41.5834 H         1 UNK         0.0600 
    147 H147        0.3439  -22.7334  -42.8490 H         1 UNK         0.0600 
    148 H148        0.7661  -21.0263  -42.9223 H         1 UNK         0.0600 
    149 H149       -1.1800  -19.5044  -42.6122 H         1 UNK         0.3000 
    150 H150       -4.0921  -17.8209  -43.8975 H         1 UNK         0.0600 
    151 H151       -4.5562  -18.5815  -41.5599 H         1 UNK         0.0600 
    152 H152       -3.9862  -16.9195  -41.5976 H         1 UNK         0.0600 
    153 H153       -2.8973  -18.2128  -41.1023 H         1 UNK         0.0600 
    154 H154       -1.7386  -16.7442  -42.7631 H         1 UNK         0.3000 
    155 H155        0.1353  -16.3935  -45.8162 H         1 UNK         0.0600 
    156 H156       -1.2130  -14.4467  -43.8735 H         1 UNK         0.0600 
    157 H157       -1.3962  -14.4559  -45.6207 H         1 UNK         0.0600 
    158 H158        0.1602  -14.0697  -44.9062 H         1 UNK         0.0600 
    159 H159        0.8896  -15.7425  -43.1863 H         1 UNK         0.3000 
    160 H160        2.2810  -18.9259  -42.2438 H         1 UNK         0.0600 
    161 H161        4.1919  -17.3911  -41.8212 H         1 UNK         0.0600 
    162 H162        3.4711  -16.1697  -42.8703 H         1 UNK         0.0600 
    163 H163        4.0072  -17.7007  -43.5390 H         1 UNK         0.0600 
    164 H164        1.9491  -16.4186  -40.8783 H         1 UNK         0.3000 
    165 H165       -1.1713  -17.1707  -39.3372 H         1 UNK         0.0600 
    166 H166        0.1832  -16.7238  -37.3078 H         1 UNK         0.0600 
    167 H167        0.5478  -18.3228  -37.9361 H         1 UNK         0.0600 
    168 H168        1.6760  -16.9997  -38.2057 H         1 UNK         0.0600 
    169 H169        0.6401  -14.9549  -39.1537 H         1 UNK         0.3000 
    170 H170       -0.6943  -13.0587  -41.8611 H         1 UNK         0.0600 
    171 H171       -2.2614  -12.6598  -39.9580 H         1 UNK         0.0600 
    172 H172       -0.9145  -12.6825  -38.8259 H         1 UNK         0.0600 
    173 H173       -1.0295  -11.4112  -40.0432 H         1 UNK         0.0600 
    174 H174        1.3073  -12.4788  -39.9145 H         1 UNK         0.3000 
    175 H175        3.4295  -12.1169  -40.7437 H         1 UNK         0.0600 
    176 H176        5.0566  -13.8432  -39.9621 H         1 UNK         0.0600 
    177 H177        3.4600  -14.2360  -39.3531 H         1 UNK         0.0600 
    178 H178        4.1175  -15.1201  -40.7249 H         1 UNK         0.0600 
    179 H179        3.7272  -13.4278  -43.2667 H         1 UNK         0.3000 
    180 H180        5.9138  -11.2350  -44.2882 H         1 UNK         0.0600 
    181 H181        7.5775  -13.7485  -43.7756 H         1 UNK         0.0600 
    182 H182        8.0405  -12.0883  -43.4463 H         1 UNK         0.0600 
    183 H183        7.8348  -12.6191  -45.1066 H         1 UNK         0.0600 
    184 H184        4.6824  -12.2983  -45.7091 H         1 UNK         0.3000 
    185 H185        4.8096  -15.3563  -47.1927 H         1 UNK         0.0600 
    186 H186        2.3207  -15.6744  -47.0419 H         1 UNK         0.0600 
    187 H187        3.1556  -16.3024  -45.6321 H         1 UNK         0.0600 
    188 H188        2.3114  -14.7637  -45.5287 H         1 UNK         0.0600 
    189 H189        2.9193  -13.1365  -47.3202 H         1 UNK         0.3000 
    190 H190       -2.3301  -19.2073  -46.6901 H         1 UNK         0.3000 
    191 H191       -3.7034  -19.5874  -49.1239 H         1 UNK         0.0600 
    192 H192       -4.7451  -18.7290  -46.3734 H         1 UNK         0.0600 
    193 H193       -5.6143  -18.5312  -47.8913 H         1 UNK         0.0600 
    194 H194       -4.1085  -17.6661  -47.6280 H         1 UNK         0.0600 
    195 H195       -3.7978  -21.5269  -46.1470 H         1 UNK         0.3000 
    196 H196       -6.0579  -23.1619  -47.0070 H         1 UNK         0.0600 
    197 H197       -4.0100  -23.5663  -44.7647 H         1 UNK         0.0600 
    198 H198       -5.4783  -24.5064  -45.0005 H         1 UNK         0.0600 
    199 H199       -5.5860  -22.7979  -44.6009 H         1 UNK         0.0600 
    200 H200       -2.4855  -23.4869  -46.9347 H         1 UNK         0.3000 
    201 H201       -2.3801  -26.1497  -47.9345 H         1 UNK         0.0600 
    202 H202       -0.2591  -23.9394  -47.8917 H         1 UNK         0.0600 
    203 H203        0.0586  -25.6500  -48.1579 H         1 UNK         0.0600 
    204 H204       -0.5634  -25.1079  -46.6071 H         1 UNK         0.0600 
    205 H205       -2.6753  -23.1048  -49.5919 H         1 UNK         0.3000 
    206 H206       -1.6064  -23.3460  -52.0404 H         1 UNK         0.0600 
    207 H207       -2.7726  -21.3447  -51.3205 H         1 UNK         0.0600 
    208 H208       -3.5553  -21.8841  -52.7964 H         1 UNK         0.0600 
    209 H209       -4.3166  -22.1879  -51.2436 H         1 UNK         0.0600 
    210 H210       -1.5350  -24.9966  -53.3754 H         1 UNK         0.3000 
    211 H211       -1.9513  -26.6601  -54.7469 H         1 UNK         0.0600 
    212 H212       -4.8391  -25.6712  -54.9500 H         1 UNK         0.0600 
    213 H213       -3.9531  -26.6061  -56.1434 H         1 UNK         0.0600 
    214 H214       -3.4880  -24.9432  -55.8202 H         1 UNK         0.0600 
    215 H215       -2.6753  -26.9455  -51.7684 H         1 UNK         0.3000 
    216 H216       -3.4506  -28.3446  -50.2783 H         1 UNK         0.0600 
    217 H217       -2.1159  -30.0470  -51.5521 H         1 UNK         0.0600 
    218 H218       -3.4963  -30.7601  -50.7361 H         1 UNK         0.0600 
    219 H219       -3.5568  -30.4827  -52.4705 H         1 UNK         0.0600 
    220 H220       -5.3710  -26.7535  -51.9554 H         1 UNK         0.3000 
    221 H221       -7.9161  -28.1238  -51.2087 H         1 UNK         0.0600 
    222 H222       -7.2469  -26.8678  -53.9285 H         1 UNK         0.0600 
    223 H223       -7.3970  -28.5961  -53.6191 H         1 UNK         0.0600 
    224 H224       -8.8014  -27.5542  -53.4657 H         1 UNK         0.0600 
    225 H225       -6.0891  -25.5626  -50.5491 H         1 UNK         0.3000 
    226 H226       -6.2632  -23.4933  -49.9023 H         1 UNK         0.0600 
    227 H227       -7.9378  -24.4039  -48.2837 H         1 UNK         0.0600 
    228 H228       -8.2811  -22.7323  -48.6999 H         1 UNK         0.0600 
    229 H229       -9.2429  -24.0244  -49.4077 H         1 UNK         0.0600 
    230 H230       -6.0387  -23.6844  -52.4938 H         1 UNK         0.3000 
    231 H231       -7.9885  -22.2019  -54.0444 H         1 UNK         0.0600 
    232 H232       -6.5555  -24.0164  -54.9911 H         1 UNK         0.0600 
    233 H233       -5.1083  -23.0638  -54.6641 H         1 UNK         0.0600 
    234 H234       -6.2868  -22.5141  -55.8490 H         1 UNK         0.0600 
    235 H235       -6.8814  -20.4201  -55.5613 H         1 UNK         0.3000 
    236 H236       -6.4761  -18.0902  -53.9732 H         1 UNK         0.0600 
    237 H237       -6.0671  -18.5619  -56.9754 H         1 UNK         0.0600 
    238 H238       -7.5645  -18.0421  -56.2002 H         1 UNK         0.0600 
    239 H239       -6.1598  -16.9886  -56.1936 H         1 UNK         0.0600 
    240 H240       -4.1871  -20.3575  -55.4392 H         1 UNK         0.3000 
    241 H241       -2.0646  -19.3881  -53.8912 H         1 UNK         0.0600 
    242 H242       -0.2667  -22.3953  -54.9212 H         1 UNK         0.3800 
    243 H243        0.0867  -20.7313  -54.5414 H         1 UNK         0.3800 
    244 H244       -1.2992  -19.1659  -56.8347 H         1 UNK         0.0800 
    245 H245       -2.1047  -17.8117  -56.1191 H         1 UNK         0.0800 
    246 H246       -1.5395  -16.5762  -54.1746 H         1 UNK         0.0800 
    247 H247       -0.2670  -15.7344  -55.0214 H         1 UNK         0.0800 
@<TRIPOS>BOND
     1    1    2 1    
     2    1  127 1    
     3    1  128 1    
     4    1  129 1    
     5    2    3 2    
     6    2    4 am   BACKBONE|DICT|INTERRES
     7    4    5 1    
     8    4  130 1    
     9    5    6 1    
    10    5   65 1    
    11    5  131 1    
    12    6    7 1    
    13    6  132 1    
    14    6  133 1    
    15    7    8 1    
    16    8    9 1    
    17    8  134 1    
    18    8  135 1    
    19    9   10 ar   
    20    9   14 ar   
    21   10   11 ar   
    22   10  136 1    
    23   11   12 ar   
    24   11  126 1    
    25   12   13 ar   
    26   12  137 1    
    27   13   14 ar   
    28   13   15 1    
    29   14  138 1    
    30   15   16 1    
    31   15  139 1    
    32   15  140 1    
    33   16   17 1    
    34   17   18 1    
    35   17  141 1    
    36   17  142 1    
    37   18   19 1    
    38   18   67 1    
    39   18  143 1    
    40   19   20 am   BACKBONE|DICT|INTERRES
    41   19  144 1    
    42   20   21 2    
    43   20   22 1    
    44   22   23 1    
    45   22   24 1    
    46   22  145 1    
    47   23  146 1    
    48   23  147 1    
    49   23  148 1    
    50   24   25 am   BACKBONE|DICT|INTERRES
    51   24  149 1    
    52   25   26 2    
    53   25   27 1    
    54   27   28 1    
    55   27   29 1    
    56   27  150 1    
    57   28  151 1    
    58   28  152 1    
    59   28  153 1    
    60   29   30 am   BACKBONE|DICT|INTERRES
    61   29  154 1    
    62   30   31 2    
    63   30   32 1    
    64   32   33 1    
    65   32   34 1    
    66   32  155 1    
    67   33  156 1    
    68   33  157 1    
    69   33  158 1    
    70   34   35 am   BACKBONE|DICT|INTERRES
    71   34  159 1    
    72   35   36 2    
    73   35   37 1    
    74   37   38 1    
    75   37   39 1    
    76   37  160 1    
    77   38  161 1    
    78   38  162 1    
    79   38  163 1    
    80   39   40 am   BACKBONE|DICT|INTERRES
    81   39  164 1    
    82   40   41 2    
    83   40   42 1    
    84   42   43 1    
    85   42   44 1    
    86   42  165 1    
    87   43  166 1    
    88   43  167 1    
    89   43  168 1    
    90   44   45 am   BACKBONE|DICT|INTERRES
    91   44  169 1    
    92   45   46 2    
    93   45   47 1    
    94   47   48 1    
    95   47   49 1    
    96   47  170 1    
    97   48  171 1    
    98   48  172 1    
    99   48  173 1    
   100   49   50 am   BACKBONE|DICT|INTERRES
   101   49  174 1    
   102   50   51 2    
   103   50   52 1    
   104   52   53 1    
   105   52   54 1    
   106   52  175 1    
   107   53  176 1    
   108   53  177 1    
   109   53  178 1    
   110   54   55 am   BACKBONE|DICT|INTERRES
   111   54  179 1    
   112   55   56 2    
   113   55   57 1    
   114   57   58 1    
   115   57   59 1    
   116   57  180 1    
   117   58  181 1    
   118   58  182 1    
   119   58  183 1    
   120   59   60 am   BACKBONE|DICT|INTERRES
   121   59  184 1    
   122   60   61 2    
   123   60   62 1    
   124   62   63 1    
   125   62   64 1    
   126   62  185 1    
   127   63  186 1    
   128   63  187 1    
   129   63  188 1    
   130   64   65 am   BACKBONE|DICT|INTERRES
   131   64  189 1    
   132   65   66 2    
   133   67   68 2    
   134   67   69 am   BACKBONE|DICT|INTERRES
   135   69   70 1    
   136   69  190 1    
   137   70   71 1    
   138   70   72 1    
   139   70  191 1    
   140   71  192 1    
   141   71  193 1    
   142   71  194 1    
   143   72   73 2    
   144   72   74 am   BACKBONE|DICT|INTERRES
   145   74   75 1    
   146   74  195 1    
   147   75   76 1    
   148   75   77 1    
   149   75  196 1    
   150   76  197 1    
   151   76  198 1    
   152   76  199 1    
   153   77   78 2    
   154   77   79 am   BACKBONE|DICT|INTERRES
   155   79   80 1    
   156   79  200 1    
   157   80   81 1    
   158   80   82 1    
   159   80  201 1    
   160   81  202 1    
   161   81  203 1    
   162   81  204 1    
   163   82   83 2    
   164   82   84 am   BACKBONE|DICT|INTERRES
   165   84   85 1    
   166   84  205 1    
   167   85   86 1    
   168   85   87 1    
   169   85  206 1    
   170   86  207 1    
   171   86  208 1    
   172   86  209 1    
   173   87   88 2    
   174   87   89 am   BACKBONE|DICT|INTERRES
   175   89   90 1    
   176   89  210 1    
   177   90   91 1    
   178   90   92 1    
   179   90  211 1    
   180   91  212 1    
   181   91  213 1    
   182   91  214 1    
   183   92   93 2    
   184   92   94 am   BACKBONE|DICT|INTERRES
   185   94   95 1    
   186   94  215 1    
   187   95   96 1    
   188   95   97 1    
   189   95  216 1    
   190   96  217 1    
   191   96  218 1    
   192   96  219 1    
   193   97   98 2    
   194   97   99 am   BACKBONE|DICT|INTERRES
   195   99  100 1    
   196   99  220 1    
   197  100  101 1    
   198  100  102 1    
   199  100  221 1    
   200  101  222 1    
   201  101  223 1    
   202  101  224 1    
   203  102  103 2    
   204  102  104 am   BACKBONE|DICT|INTERRES
   205  104  105 1    
   206  104  225 1    
   207  105  106 1    
   208  105  107 1    
   209  105  226 1    
   210  106  227 1    
   211  106  228 1    
   212  106  229 1    
   213  107  108 2    
   214  107  109 am   BACKBONE|DICT|INTERRES
   215  109  110 1    
   216  109  230 1    
   217  110  111 1    
   218  110  112 1    
   219  110  231 1    
   220  111  232 1    
   221  111  233 1    
   222  111  234 1    
   223  112  113 2    
   224  112  114 am   BACKBONE|DICT|INTERRES
   225  114  115 1    
   226  114  235 1    
   227  115  116 1    
   228  115  117 1    
   229  115  236 1    
   230  116  237 1    
   231  116  238 1    
   232  116  239 1    
   233  117  118 2    
   234  117  119 am   BACKBONE|DICT|INTERRES
   235  119  120 1    
   236  119  240 1    
   237  120  121 1    
   238  120  124 1    
   239  120  241 1    
   240  121  122 am   BACKBONE|DICT|INTERRES
   241  121  123 2    
   242  122  242 1    
   243  122  243 1    
   244  124  125 1    
   245  124  244 1    
   246  124  245 1    
   247  125  126 1    
   248  126  246 1    
   249  126  247 1    
@<TRIPOS>SUBSTRUCTURE
     1 UNK         1 GROUP             0       ****    0 ROOT    
