@<TRIPOS>MOLECULE
3R540
247   249    1
SMALL
USER_CHARGES


@<TRIPOS>ATOM
      1 CA          6.5797  -12.5534  -50.3190 C.3       0 UNK        -0.1800 
      2 C           5.8135  -12.8030  -49.0282 C.2       0 UNK         0.5000 
      3 O           6.4224  -12.9433  -47.9673 O.2       0 UNK        -0.5000 
      4 N           4.4782  -12.8429  -49.1055 N.am      1 UNK        -0.5000 
      5 CA          3.5430  -13.0765  -47.9970 C.3       1 UNK         0.1400 
      6 C6          2.2082  -13.7066  -48.4812 C.3       23 UNK        -0.0398 
      7 S7          1.4681  -12.9099  -49.9514 S.3       23 UNK        -0.2404 
      8 C8          1.6359  -14.2288  -51.1981 C.3       23 UNK        -0.0205 
      9 C9          0.6575  -15.3699  -50.9554 C.ar      23 UNK        -0.0193 
     10 C10        -0.6701  -15.2484  -51.3685 C.ar      23 UNK        -0.1150 
     11 C11        -1.5763  -16.2949  -51.1761 C.ar      23 UNK        -0.0193 
     12 C12        -1.1538  -17.4594  -50.5266 C.ar      23 UNK        -0.1150 
     13 C13         0.1779  -17.6005  -50.1170 C.ar      23 UNK        -0.0193 
     14 C14         1.0769  -16.5531  -50.3409 C.ar      23 UNK        -0.1150 
     15 C15         0.6641  -18.8710  -49.4294 C.3       23 UNK        -0.0205 
     16 S16         0.3112  -20.3746  -50.3918 S.3       23 UNK        -0.2404 
     17 C17        -1.1634  -21.0195  -49.5334 C.3       23 UNK        -0.0398 
     18 CA         -0.8173  -22.2575  -48.6752 C.3       11 UNK         0.1400 
     19 N          -0.0501  -21.9143  -47.4733 N.am      11 UNK        -0.5000 
     20 C           0.5748  -22.8093  -46.6965 C.2       10 UNK         0.5000 
     21 O           0.6023  -24.0155  -46.9387 O.2       10 UNK        -0.5000 
     22 CA          1.2091  -22.2785  -45.4002 C.3       10 UNK         0.1400 
     23 CB          2.5852  -21.6558  -45.6779 C.3       10 UNK        -0.1800 
     24 N           0.3380  -21.3061  -44.7363 N.am      10 UNK        -0.5000 
     25 C          -0.7976  -21.6405  -44.1026 C.2       9 UNK         0.5000 
     26 O          -1.1771  -22.8029  -43.9673 O.2       9 UNK        -0.5000 
     27 CA         -1.6794  -20.5041  -43.5458 C.3       9 UNK         0.1400 
     28 CB         -1.3591  -20.2619  -42.0634 C.3       9 UNK        -0.1800 
     29 N          -1.5730  -19.2400  -44.2737 N.am      9 UNK        -0.5000 
     30 C          -1.8194  -19.0612  -45.5793 C.2       8 UNK         0.5000 
     31 O          -2.2090  -19.9538  -46.3334 O.2       8 UNK        -0.5000 
     32 CA         -1.5012  -17.6648  -46.1490 C.3       8 UNK         0.1400 
     33 CB         -2.7073  -16.7295  -45.9925 C.3       8 UNK        -0.1800 
     34 N          -0.3195  -17.0471  -45.5354 N.am      8 UNK        -0.5000 
     35 C           0.9117  -17.5815  -45.5130 C.2       7 UNK         0.5000 
     36 O           1.1959  -18.6598  -46.0325 O.2       7 UNK        -0.5000 
     37 CA          1.9896  -16.8165  -44.7285 C.3       7 UNK         0.1400 
     38 CB          2.5520  -15.6480  -45.5491 C.3       7 UNK        -0.1800 
     39 N           1.4591  -16.3289  -43.4560 N.am      7 UNK        -0.5000 
     40 C           1.3821  -17.0762  -42.3454 C.2       6 UNK         0.5000 
     41 O           1.8598  -18.2069  -42.2520 O.2       6 UNK        -0.5000 
     42 CA          0.6243  -16.4827  -41.1416 C.3       6 UNK         0.1400 
     43 CB          1.5949  -15.8593  -40.1297 C.3       6 UNK        -0.1800 
     44 N          -0.3783  -15.4880  -41.5257 N.am      6 UNK        -0.5000 
     45 C          -1.5395  -15.7909  -42.1225 C.2       5 UNK         0.5000 
     46 O          -1.8804  -16.9391  -42.4042 O.2       5 UNK        -0.5000 
     47 CA         -2.4528  -14.6139  -42.5146 C.3       5 UNK         0.1400 
     48 CB         -3.3874  -14.2500  -41.3518 C.3       5 UNK        -0.1800 
     49 N          -1.7283  -13.4155  -42.9431 N.am      5 UNK        -0.5000 
     50 C          -0.8446  -13.3562  -43.9487 C.2       4 UNK         0.5000 
     51 O          -0.5162  -14.3328  -44.6237 O.2       4 UNK        -0.5000 
     52 CA         -0.1894  -11.9930  -44.2399 C.3       4 UNK         0.1400 
     53 CB         -0.8686  -10.7986  -43.5330 C.3       4 UNK        -0.1800 
     54 N           1.2460  -12.0041  -43.9498 N.am      4 UNK        -0.5000 
     55 C           1.8450  -12.2794  -42.7788 C.2       3 UNK         0.5000 
     56 O           1.2354  -12.6483  -41.7735 O.2       3 UNK        -0.5000 
     57 CA          3.3815  -12.1225  -42.7047 C.3       3 UNK         0.1400 
     58 CB          4.0593  -13.4481  -42.3232 C.3       3 UNK        -0.1800 
     59 N           3.9773  -11.6325  -43.9496 N.am      3 UNK        -0.5000 
     60 C           3.9840  -10.3543  -44.3547 C.2       2 UNK         0.5000 
     61 O           3.5482   -9.4215  -43.6796 O.2       2 UNK        -0.5000 
     62 CA          4.5406  -10.0767  -45.7665 C.3       2 UNK         0.1400 
     63 CB          5.9956   -9.5906  -45.6873 C.3       2 UNK        -0.1800 
     64 N           4.4762  -11.2350  -46.6636 N.am      2 UNK        -0.5000 
     65 C           3.3572  -11.8340  -47.0928 C.2       1 UNK         0.5000 
     66 O           2.2309  -11.4575  -46.7653 O.2       1 UNK        -0.5000 
     67 C          -2.0784  -23.0695  -48.3211 C.2       11 UNK         0.5000 
     68 O          -2.3949  -24.0237  -49.0272 O.2       11 UNK        -0.5000 
     69 N          -2.7328  -22.7255  -47.2031 N.am      12 UNK        -0.5000 
     70 CA         -3.8762  -23.4584  -46.6528 C.3       12 UNK         0.1400 
     71 CB         -4.5633  -22.5908  -45.5888 C.3       12 UNK        -0.1800 
     72 C          -3.5270  -24.8501  -46.0832 C.2       12 UNK         0.5000 
     73 O          -4.4406  -25.6427  -45.8530 O.2       12 UNK        -0.5000 
     74 N          -2.2359  -25.1243  -45.8549 N.am      13 UNK        -0.5000 
     75 CA         -1.7239  -26.4420  -45.4864 C.3       13 UNK         0.1400 
     76 CB         -0.5566  -26.2819  -44.4994 C.3       13 UNK        -0.1800 
     77 C          -1.2859  -27.2300  -46.7336 C.2       13 UNK         0.5000 
     78 O          -1.5599  -28.4277  -46.8183 O.2       13 UNK        -0.5000 
     79 N          -0.6063  -26.5531  -47.6714 N.am      14 UNK        -0.5000 
     80 CA         -0.0891  -27.1324  -48.9123 C.3       14 UNK         0.1400 
     81 CB          0.8942  -26.1442  -49.5585 C.3       14 UNK        -0.1800 
     82 C          -1.1907  -27.5258  -49.9142 C.2       14 UNK         0.5000 
     83 O          -1.0831  -28.5762  -50.5492 O.2       14 UNK        -0.5000 
     84 N          -2.2177  -26.6798  -50.0381 N.am      15 UNK        -0.5000 
     85 CA         -3.3867  -26.8693  -50.8917 C.3       15 UNK         0.1400 
     86 CB         -3.4178  -25.7347  -51.9312 C.3       15 UNK        -0.1800 
     87 C          -4.6632  -26.8946  -50.0315 C.2       15 UNK         0.5000 
     88 O          -4.5899  -26.8004  -48.8054 O.2       15 UNK        -0.5000 
     89 N          -5.8217  -27.0428  -50.6887 N.am      16 UNK        -0.5000 
     90 CA         -7.1415  -27.1446  -50.0529 C.3       16 UNK         0.1400 
     91 CB         -8.1699  -27.5528  -51.1194 C.3       16 UNK        -0.1800 
     92 C          -7.6052  -25.8624  -49.3294 C.2       16 UNK         0.5000 
     93 O          -8.4432  -25.9418  -48.4302 O.2       16 UNK        -0.5000 
     94 N          -7.0602  -24.7130  -49.7350 N.am      17 UNK        -0.5000 
     95 CA         -7.2984  -23.3887  -49.1783 C.3       17 UNK         0.1400 
     96 CB         -8.6243  -22.8216  -49.7174 C.3       17 UNK        -0.1800 
     97 C          -6.1191  -22.5010  -49.5905 C.2       17 UNK         0.5000 
     98 O          -5.3920  -22.8541  -50.5225 O.2       17 UNK        -0.5000 
     99 N          -5.9613  -21.3465  -48.9294 N.am      18 UNK        -0.5000 
    100 CA        -4.9027  -20.3762  -49.2326 C.3       18 UNK         0.1400 
    101 CB        -4.9571  -19.2077  -48.2390 C.3       18 UNK        -0.1800 
    102 C         -4.9582  -19.8563  -50.6808 C.2       18 UNK         0.5000 
    103 O         -3.9192  -19.7267  -51.3255 O.2       18 UNK        -0.5000 
    104 N         -6.1838  -19.6287  -51.1702 N.am      19 UNK        -0.5000 
    105 CA        -6.4860  -19.1910  -52.5313 C.3       19 UNK         0.1400 
    106 CB        -7.9278  -18.6606  -52.5622 C.3       19 UNK        -0.1800 
    107 C         -6.2966  -20.2865  -53.6013 C.2       19 UNK         0.5000 
    108 O         -6.2289  -19.9506  -54.7836 O.2       19 UNK        -0.5000 
    109 N         -6.2354  -21.5648  -53.1936 N.am      20 UNK        -0.5000 
    110 CA        -6.0909  -22.7072  -54.1022 C.3       20 UNK         0.1400 
    111 CB        -6.5674  -23.9917  -53.4053 C.3       20 UNK        -0.1800 
    112 C         -4.6559  -22.8641  -54.6419 C.2       20 UNK         0.5000 
    113 O         -4.4815  -23.4192  -55.7275 O.2       20 UNK        -0.5000 
    114 N         -3.6679  -22.3533  -53.8952 N.am      21 UNK        -0.5000 
    115 CA        -2.2969  -22.1532  -54.3555 C.3       21 UNK         0.1400 
    116 CB        -1.3155  -22.5688  -53.2445 C.3       21 UNK        -0.1800 
    117 C         -2.1740  -20.6824  -54.7907 C.2       21 UNK         0.5000 
    118 O         -2.6260  -20.3482  -55.8871 O.2       21 UNK        -0.5000 
    119 N         -1.6239  -19.8263  -53.9183 N.am      22 UNK        -0.5000 
    120 CA        -1.5339  -18.3672  -54.0937 C.3       22 UNK         0.1400 
    121 C         -0.6207  -17.9241  -55.2806 C.2       22 UNK         0.5000 
    122 N         -0.7385  -16.6917  -55.7553 N.am      22 UNK        -0.7600 
    123 O          0.2365  -18.6714  -55.7481 O.2       22 UNK        -0.5000 
    124 C124       -2.9541  -17.7237  -54.0844 C.3       23 UNK        -0.0398 
    125 S125       -3.0367  -15.9916  -53.5130 S.3       23 UNK        -0.2404 
    126 C126       -3.0004  -16.1624  -51.6959 C.3       23 UNK        -0.0205 
    127 H127        5.9106  -12.4478  -51.1733 H         1 UNK         0.0600 
    128 H128        7.2578  -13.3831  -50.5186 H         1 UNK         0.0600 
    129 H129        7.1703  -11.6413  -50.2341 H         1 UNK         0.0600 
    130 H130        4.0333  -12.6752  -49.9972 H         1 UNK         0.3000 
    131 H131        4.0047  -13.8200  -47.3442 H         1 UNK         0.0600 
    132 H132        2.3943  -14.7552  -48.7046 H         1 UNK         0.0800 
    133 H133        1.4571  -13.7218  -47.6903 H         1 UNK         0.0800 
    134 H134        1.4540  -13.8028  -52.1859 H         1 UNK         0.0800 
    135 H135        2.6633  -14.5960  -51.2120 H         1 UNK         0.0800 
    136 H136       -0.9956  -14.3424  -51.8606 H         1 UNK         0.1150 
    137 H137       -1.8534  -18.2676  -50.3703 H         1 UNK         0.1150 
    138 H138        2.1079  -16.6589  -50.0347 H         1 UNK         0.1150 
    139 H139        1.7420  -18.8268  -49.2671 H         1 UNK         0.0800 
    140 H140        0.2211  -18.9439  -48.4389 H         1 UNK         0.0800 
    141 H141       -1.8979  -21.2727  -50.2969 H         1 UNK         0.0800 
    142 H142       -1.6276  -20.2399  -48.9290 H         1 UNK         0.0800 
    143 H143       -0.1932  -22.9168  -49.2823 H         1 UNK         0.0600 
    144 H144       -0.0660  -20.9476  -47.1812 H         1 UNK         0.3000 
    145 H145        1.3549  -23.1249  -44.7254 H         1 UNK         0.0600 
    146 H146        3.0231  -21.2408  -44.7700 H         1 UNK         0.0600 
    147 H147        2.5308  -20.8592  -46.4200 H         1 UNK         0.0600 
    148 H148        3.2775  -22.4067  -46.0605 H         1 UNK         0.0600 
    149 H149        0.5762  -20.3278  -44.8502 H         1 UNK         0.3000 
    150 H150       -2.7179  -20.8291  -43.6164 H         1 UNK         0.0600 
    151 H151       -1.4367  -21.1861  -41.4892 H         1 UNK         0.0600 
    152 H152       -2.0537  -19.5484  -41.6204 H         1 UNK         0.0600 
    153 H153       -0.3485  -19.8754  -41.9294 H         1 UNK         0.0600 
    154 H154       -1.3267  -18.4263  -43.7208 H         1 UNK         0.3000 
    155 H155       -1.3020  -17.7745  -47.2153 H         1 UNK         0.0600 
    156 H156       -3.5772  -17.1206  -46.5200 H         1 UNK         0.0600 
    157 H157       -2.4975  -15.7396  -46.3984 H         1 UNK         0.0600 
    158 H158       -2.9889  -16.6133  -44.9469 H         1 UNK         0.0600 
    159 H159       -0.4547  -16.1299  -45.1173 H         1 UNK         0.3000 
    160 H160        2.8123  -17.5094  -44.5387 H         1 UNK         0.0600 
    161 H161        1.8180  -14.8544  -45.6804 H         1 UNK         0.0600 
    162 H162        2.8613  -15.9854  -46.5389 H         1 UNK         0.0600 
    163 H163        3.4292  -15.2165  -45.0694 H         1 UNK         0.0600 
    164 H164        0.9821  -15.4370  -43.4759 H         1 UNK         0.3000 
    165 H165        0.1120  -17.3101  -40.6454 H         1 UNK         0.0600 
    166 H166        1.0737  -15.5550  -39.2219 H         1 UNK         0.0600 
    167 H167        2.3700  -16.5691  -39.8378 H         1 UNK         0.0600 
    168 H168        2.0885  -14.9806  -40.5400 H         1 UNK         0.0600 
    169 H169       -0.1446  -14.5152  -41.3688 H         1 UNK         0.3000 
    170 H170       -3.0695  -14.9381  -43.3537 H         1 UNK         0.0600 
    171 H171       -2.8318  -13.8779  -40.4901 H         1 UNK         0.0600 
    172 H172       -4.1047  -13.4836  -41.6463 H         1 UNK         0.0600 
    173 H173       -3.9593  -15.1191  -41.0237 H         1 UNK         0.0600 
    174 H174       -1.9114  -12.5702  -42.4226 H         1 UNK         0.3000 
    175 H175       -0.2847  -11.8368  -45.3154 H         1 UNK         0.0600 
    176 H176       -0.7822  -10.8540  -42.4473 H         1 UNK         0.0600 
    177 H177       -0.4171   -9.8576  -43.8480 H         1 UNK         0.0600 
    178 H178       -1.9288  -10.7423  -43.7834 H         1 UNK         0.0600 
    179 H179        1.8313  -11.7493  -44.7368 H         1 UNK         0.3000 
    180 H180        3.5936  -11.3994  -41.9145 H         1 UNK         0.0600 
    181 H181        5.1454  -13.3701  -42.3763 H         1 UNK         0.0600 
    182 H182        3.7476  -14.2676  -42.9699 H         1 UNK         0.0600 
    183 H183        3.8138  -13.7244  -41.2986 H         1 UNK         0.0600 
    184 H184        4.3718  -12.3272  -44.5660 H         1 UNK         0.3000 
    185 H185        3.9354   -9.2807  -46.2051 H         1 UNK         0.0600 
    186 H186        6.3730   -9.3139  -46.6720 H         1 UNK         0.0600 
    187 H187        6.0804   -8.7104  -45.0486 H         1 UNK         0.0600 
    188 H188        6.6539  -10.3584  -45.2790 H         1 UNK         0.0600 
    189 H189        5.3609  -11.6289  -46.9706 H         1 UNK         0.3000 
    190 H190       -2.4356  -21.8942  -46.7011 H         1 UNK         0.3000 
    191 H191       -4.5847  -23.6264  -47.4642 H         1 UNK         0.0600 
    192 H192       -4.8111  -21.6035  -45.9767 H         1 UNK         0.0600 
    193 H193       -3.9289  -22.4614  -44.7131 H         1 UNK         0.0600 
    194 H194       -5.4928  -23.0513  -45.2522 H         1 UNK         0.0600 
    195 H195       -1.5505  -24.4011  -46.0215 H         1 UNK         0.3000 
    196 H196       -2.5040  -27.0172  -44.9832 H         1 UNK         0.0600 
    197 H197       -0.8717  -25.7469  -43.6033 H         1 UNK         0.0600 
    198 H198        0.2776  -25.7338  -44.9370 H         1 UNK         0.0600 
    199 H199       -0.1790  -27.2548  -44.1829 H         1 UNK         0.0600 
    200 H200       -0.3598  -25.5846  -47.4927 H         1 UNK         0.3000 
    201 H201        0.4635  -28.0382  -48.6540 H         1 UNK         0.0600 
    202 H202        1.7164  -25.9063  -48.8833 H         1 UNK         0.0600 
    203 H203        0.4028  -25.2095  -49.8300 H         1 UNK         0.0600 
    204 H204        1.3290  -26.5628  -50.4669 H         1 UNK         0.0600 
    205 H205       -2.2456  -25.8426  -49.4599 H         1 UNK         0.3000 
    206 H206       -3.3282  -27.8245  -51.4169 H         1 UNK         0.0600 
    207 H207       -3.5755  -24.7610  -51.4649 H         1 UNK         0.0600 
    208 H208       -2.4805  -25.6899  -52.4850 H         1 UNK         0.0600 
    209 H209       -4.2088  -25.8879  -52.6646 H         1 UNK         0.0600 
    210 H210       -5.8052  -27.1272  -51.6946 H         1 UNK         0.3000 
    211 H211       -7.0917  -27.9383  -49.3046 H         1 UNK         0.0600 
    212 H212       -8.2458  -26.8056  -51.9106 H         1 UNK         0.0600 
    213 H213       -9.1625  -27.6691  -50.6820 H         1 UNK         0.0600 
    214 H214       -7.9065  -28.5055  -51.5792 H         1 UNK         0.0600 
    215 H215       -6.3325  -24.7307  -50.4385 H         1 UNK         0.3000 
    216 H216       -7.3275  -23.4509  -48.0885 H         1 UNK         0.0600 
    217 H217       -8.8200  -21.8262  -49.3174 H         1 UNK         0.0600 
    218 H218       -9.4684  -23.4516  -49.4366 H         1 UNK         0.0600 
    219 H219       -8.6146  -22.7438  -50.8055 H         1 UNK         0.0600 
    220 H220       -6.5991  -21.1068  -48.1839 H         1 UNK         0.3000 
    221 H221       -3.9504  -20.8866  -49.1013 H         1 UNK         0.0600 
    222 H222       -5.9050  -18.6714  -48.2946 H         1 UNK         0.0600 
    223 H223       -4.8248  -19.5511  -47.2136 H         1 UNK         0.0600 
    224 H224       -4.1603  -18.4916  -48.4441 H         1 UNK         0.0600 
    225 H225       -6.9748  -19.7794  -50.5618 H         1 UNK         0.3000 
    226 H226       -5.8196  -18.3641  -52.7815 H         1 UNK         0.0600 
    227 H227       -8.0605  -17.8363  -51.8612 H         1 UNK         0.0600 
    228 H228       -8.1863  -18.2855  -53.5534 H         1 UNK         0.0600 
    229 H229       -8.6484  -19.4389  -52.3077 H         1 UNK         0.0600 
    230 H230       -6.2344  -21.7717  -52.2033 H         1 UNK         0.3000 
    231 H231       -6.7435  -22.5412  -54.9621 H         1 UNK         0.0600 
    232 H232       -6.5633  -24.8331  -54.0991 H         1 UNK         0.0600 
    233 H233       -7.5847  -23.8860  -53.0283 H         1 UNK         0.0600 
    234 H234       -5.9253  -24.2600  -52.5695 H         1 UNK         0.0600 
    235 H235       -3.9205  -21.8927  -53.0317 H         1 UNK         0.3000 
    236 H236       -2.0854  -22.7700  -55.2314 H         1 UNK         0.0600 
    237 H237       -1.5356  -22.0738  -52.3027 H         1 UNK         0.0600 
    238 H238       -1.3630  -23.6425  -53.0667 H         1 UNK         0.0600 
    239 H239       -0.2857  -22.3336  -53.5168 H         1 UNK         0.0600 
    240 H240       -1.2638  -20.1843  -53.0459 H         1 UNK         0.3000 
    241 H241       -0.9994  -18.0298  -53.2088 H         1 UNK         0.0600 
    242 H242       -1.4125  -16.0517  -55.3606 H         1 UNK         0.3800 
    243 H243       -0.1404  -16.3901  -56.5086 H         1 UNK         0.3800 
    244 H244       -3.6147  -18.3005  -53.4408 H         1 UNK         0.0800 
    245 H245       -3.4039  -17.7834  -55.0768 H         1 UNK         0.0800 
    246 H246       -3.6173  -17.0069  -51.3869 H         1 UNK         0.0800 
    247 H247       -3.4522  -15.2747  -51.2514 H         1 UNK         0.0800 
@<TRIPOS>BOND
     1    1    2 1    
     2    1  127 1    
     3    1  128 1    
     4    1  129 1    
     5    2    3 2    
     6    2    4 am   BACKBONE|DICT|INTERRES
     7    4    5 1    
     8    4  130 1    
     9    5    6 1    
    10    5   65 1    
    11    5  131 1    
    12    6    7 1    
    13    6  132 1    
    14    6  133 1    
    15    7    8 1    
    16    8    9 1    
    17    8  134 1    
    18    8  135 1    
    19    9   10 ar   
    20    9   14 ar   
    21   10   11 ar   
    22   10  136 1    
    23   11   12 ar   
    24   11  126 1    
    25   12   13 ar   
    26   12  137 1    
    27   13   14 ar   
    28   13   15 1    
    29   14  138 1    
    30   15   16 1    
    31   15  139 1    
    32   15  140 1    
    33   16   17 1    
    34   17   18 1    
    35   17  141 1    
    36   17  142 1    
    37   18   19 1    
    38   18   67 1    
    39   18  143 1    
    40   19   20 am   BACKBONE|DICT|INTERRES
    41   19  144 1    
    42   20   21 2    
    43   20   22 1    
    44   22   23 1    
    45   22   24 1    
    46   22  145 1    
    47   23  146 1    
    48   23  147 1    
    49   23  148 1    
    50   24   25 am   BACKBONE|DICT|INTERRES
    51   24  149 1    
    52   25   26 2    
    53   25   27 1    
    54   27   28 1    
    55   27   29 1    
    56   27  150 1    
    57   28  151 1    
    58   28  152 1    
    59   28  153 1    
    60   29   30 am   BACKBONE|DICT|INTERRES
    61   29  154 1    
    62   30   31 2    
    63   30   32 1    
    64   32   33 1    
    65   32   34 1    
    66   32  155 1    
    67   33  156 1    
    68   33  157 1    
    69   33  158 1    
    70   34   35 am   BACKBONE|DICT|INTERRES
    71   34  159 1    
    72   35   36 2    
    73   35   37 1    
    74   37   38 1    
    75   37   39 1    
    76   37  160 1    
    77   38  161 1    
    78   38  162 1    
    79   38  163 1    
    80   39   40 am   BACKBONE|DICT|INTERRES
    81   39  164 1    
    82   40   41 2    
    83   40   42 1    
    84   42   43 1    
    85   42   44 1    
    86   42  165 1    
    87   43  166 1    
    88   43  167 1    
    89   43  168 1    
    90   44   45 am   BACKBONE|DICT|INTERRES
    91   44  169 1    
    92   45   46 2    
    93   45   47 1    
    94   47   48 1    
    95   47   49 1    
    96   47  170 1    
    97   48  171 1    
    98   48  172 1    
    99   48  173 1    
   100   49   50 am   BACKBONE|DICT|INTERRES
   101   49  174 1    
   102   50   51 2    
   103   50   52 1    
   104   52   53 1    
   105   52   54 1    
   106   52  175 1    
   107   53  176 1    
   108   53  177 1    
   109   53  178 1    
   110   54   55 am   BACKBONE|DICT|INTERRES
   111   54  179 1    
   112   55   56 2    
   113   55   57 1    
   114   57   58 1    
   115   57   59 1    
   116   57  180 1    
   117   58  181 1    
   118   58  182 1    
   119   58  183 1    
   120   59   60 am   BACKBONE|DICT|INTERRES
   121   59  184 1    
   122   60   61 2    
   123   60   62 1    
   124   62   63 1    
   125   62   64 1    
   126   62  185 1    
   127   63  186 1    
   128   63  187 1    
   129   63  188 1    
   130   64   65 am   BACKBONE|DICT|INTERRES
   131   64  189 1    
   132   65   66 2    
   133   67   68 2    
   134   67   69 am   BACKBONE|DICT|INTERRES
   135   69   70 1    
   136   69  190 1    
   137   70   71 1    
   138   70   72 1    
   139   70  191 1    
   140   71  192 1    
   141   71  193 1    
   142   71  194 1    
   143   72   73 2    
   144   72   74 am   BACKBONE|DICT|INTERRES
   145   74   75 1    
   146   74  195 1    
   147   75   76 1    
   148   75   77 1    
   149   75  196 1    
   150   76  197 1    
   151   76  198 1    
   152   76  199 1    
   153   77   78 2    
   154   77   79 am   BACKBONE|DICT|INTERRES
   155   79   80 1    
   156   79  200 1    
   157   80   81 1    
   158   80   82 1    
   159   80  201 1    
   160   81  202 1    
   161   81  203 1    
   162   81  204 1    
   163   82   83 2    
   164   82   84 am   BACKBONE|DICT|INTERRES
   165   84   85 1    
   166   84  205 1    
   167   85   86 1    
   168   85   87 1    
   169   85  206 1    
   170   86  207 1    
   171   86  208 1    
   172   86  209 1    
   173   87   88 2    
   174   87   89 am   BACKBONE|DICT|INTERRES
   175   89   90 1    
   176   89  210 1    
   177   90   91 1    
   178   90   92 1    
   179   90  211 1    
   180   91  212 1    
   181   91  213 1    
   182   91  214 1    
   183   92   93 2    
   184   92   94 am   BACKBONE|DICT|INTERRES
   185   94   95 1    
   186   94  215 1    
   187   95   96 1    
   188   95   97 1    
   189   95  216 1    
   190   96  217 1    
   191   96  218 1    
   192   96  219 1    
   193   97   98 2    
   194   97   99 am   BACKBONE|DICT|INTERRES
   195   99  100 1    
   196   99  220 1    
   197  100  101 1    
   198  100  102 1    
   199  100  221 1    
   200  101  222 1    
   201  101  223 1    
   202  101  224 1    
   203  102  103 2    
   204  102  104 am   BACKBONE|DICT|INTERRES
   205  104  105 1    
   206  104  225 1    
   207  105  106 1    
   208  105  107 1    
   209  105  226 1    
   210  106  227 1    
   211  106  228 1    
   212  106  229 1    
   213  107  108 2    
   214  107  109 am   BACKBONE|DICT|INTERRES
   215  109  110 1    
   216  109  230 1    
   217  110  111 1    
   218  110  112 1    
   219  110  231 1    
   220  111  232 1    
   221  111  233 1    
   222  111  234 1    
   223  112  113 2    
   224  112  114 am   BACKBONE|DICT|INTERRES
   225  114  115 1    
   226  114  235 1    
   227  115  116 1    
   228  115  117 1    
   229  115  236 1    
   230  116  237 1    
   231  116  238 1    
   232  116  239 1    
   233  117  118 2    
   234  117  119 am   BACKBONE|DICT|INTERRES
   235  119  120 1    
   236  119  240 1    
   237  120  121 1    
   238  120  124 1    
   239  120  241 1    
   240  121  122 am   BACKBONE|DICT|INTERRES
   241  121  123 2    
   242  122  242 1    
   243  122  243 1    
   244  124  125 1    
   245  124  244 1    
   246  124  245 1    
   247  125  126 1    
   248  126  246 1    
   249  126  247 1    
@<TRIPOS>SUBSTRUCTURE
     1 UNK         1 GROUP             0       ****    0 ROOT    
