@<TRIPOS>MOLECULE
3R540
247   249    1
SMALL
USER_CHARGES


@<TRIPOS>ATOM
      1 CA          5.5213  -13.0780  -53.5699 C.3       0 UNK        -0.1800 
      2 C           5.3105  -12.8818  -52.0751 C.2       0 UNK         0.5000 
      3 O           6.2369  -12.4768  -51.3722 O.2       0 UNK        -0.5000 
      4 N           4.0991  -13.1624  -51.5892 N.am      1 UNK        -0.5000 
      5 CA          3.6924  -13.0432  -50.1907 C.3       1 UNK         0.1400 
      6 C6          4.2505  -14.1784  -49.2867 C.3       23 UNK        -0.0398 
      7 S7          3.9444  -15.8709  -49.9065 S.3       23 UNK        -0.2404 
      8 C8          2.5387  -16.3629  -48.8682 C.3       23 UNK        -0.0205 
      9 C9          1.7225  -17.4606  -49.5256 C.ar      23 UNK        -0.0193 
     10 C10         0.8627  -17.1454  -50.5812 C.ar      23 UNK        -0.1150 
     11 C11         0.0498  -18.1270  -51.1531 C.ar      23 UNK        -0.0193 
     12 C12         0.1054  -19.4329  -50.6558 C.ar      23 UNK        -0.1150 
     13 C13         0.9759  -19.7709  -49.6142 C.ar      23 UNK        -0.0193 
     14 C14         1.7931  -18.7770  -49.0617 C.ar      23 UNK        -0.1150 
     15 C15         1.0449  -21.2231  -49.1474 C.3       23 UNK        -0.0205 
     16 S16         1.3481  -21.4395  -47.3592 S.3       23 UNK        -0.2404 
     17 C17         1.3663  -23.2656  -47.2698 C.3       23 UNK        -0.0398 
     18 CA          0.5724  -23.8795  -46.0904 C.3       11 UNK         0.1400 
     19 N           1.2425  -23.6685  -44.8057 N.am      11 UNK        -0.5000 
     20 C           1.0667  -24.4210  -43.7094 C.2       10 UNK         0.5000 
     21 O           0.3198  -25.3994  -43.6721 O.2       10 UNK        -0.5000 
     22 CA          1.8328  -24.0033  -42.4363 C.3       10 UNK         0.1400 
     23 CB          3.0302  -24.9367  -42.2006 C.3       10 UNK        -0.1800 
     24 N           2.3099  -22.6165  -42.4581 N.am      10 UNK        -0.5000 
     25 C           1.5183  -21.5359  -42.4646 C.2       9 UNK         0.5000 
     26 O           0.2878  -21.5994  -42.4442 O.2       9 UNK        -0.5000 
     27 CA          2.2410  -20.1804  -42.5772 C.3       9 UNK         0.1400 
     28 CB          2.7325  -19.9580  -44.0175 C.3       9 UNK        -0.1800 
     29 N           1.3970  -19.0510  -42.1955 N.am      9 UNK        -0.5000 
     30 C           0.9715  -18.7802  -40.9554 C.2       8 UNK         0.5000 
     31 O           1.2939  -19.4332  -39.9614 O.2       8 UNK        -0.5000 
     32 CA          0.0390  -17.5648  -40.7960 C.3       8 UNK         0.1400 
     33 CB          0.8558  -16.2724  -40.6445 C.3       8 UNK        -0.1800 
     34 N          -0.8945  -17.4224  -41.9145 N.am      8 UNK        -0.5000 
     35 C          -1.9771  -18.1918  -42.0950 C.2       7 UNK         0.5000 
     36 O          -2.3399  -19.0547  -41.2950 O.2       7 UNK        -0.5000 
     37 CA         -2.8075  -17.9536  -43.3714 C.3       7 UNK         0.1400 
     38 CB         -3.8976  -16.9013  -43.1193 C.3       7 UNK        -0.1800 
     39 N          -2.0000  -17.5384  -44.5167 N.am      7 UNK        -0.5000 
     40 C          -1.1374  -18.3272  -45.1729 C.2       6 UNK         0.5000 
     41 O          -0.9543  -19.5137  -44.9119 O.2       6 UNK        -0.5000 
     42 CA         -0.3287  -17.6640  -46.3020 C.3       6 UNK         0.1400 
     43 CB         -1.1951  -17.5508  -47.5637 C.3       6 UNK        -0.1800 
     44 N           0.1729  -16.3372  -45.9337 N.am      6 UNK        -0.5000 
     45 C           1.0051  -16.0895  -44.9118 C.2       5 UNK         0.5000 
     46 O           1.4857  -16.9623  -44.1928 O.2       5 UNK        -0.5000 
     47 CA          1.3013  -14.6145  -44.5964 C.3       5 UNK         0.1400 
     48 CB          2.4359  -14.0718  -45.4787 C.3       5 UNK        -0.1800 
     49 N           0.1061  -13.7855  -44.7456 N.am      5 UNK        -0.5000 
     50 C          -0.9334  -13.8087  -43.8984 C.2       4 UNK         0.5000 
     51 O          -0.9625  -14.4873  -42.8723 O.2       4 UNK        -0.5000 
     52 CA         -2.1632  -12.9664  -44.2856 C.3       4 UNK         0.1400 
     53 CB         -1.9877  -11.5103  -43.8299 C.3       4 UNK        -0.1800 
     54 N          -2.4299  -12.9944  -45.7241 N.am      4 UNK        -0.5000 
     55 C          -2.8061  -14.0873  -46.4038 C.2       3 UNK         0.5000 
     56 O          -3.0379  -15.1714  -45.8717 O.2       3 UNK        -0.5000 
     57 CA         -2.8913  -13.9569  -47.9376 C.3       3 UNK         0.1400 
     58 CB         -4.3062  -13.5308  -48.3495 C.3       3 UNK        -0.1800 
     59 N          -1.9212  -13.0095  -48.4984 N.am      3 UNK        -0.5000 
     60 C          -0.5905  -13.1191  -48.3868 C.2       2 UNK         0.5000 
     61 O          -0.0328  -14.0525  -47.8074 O.2       2 UNK        -0.5000 
     62 CA          0.2316  -11.9323  -48.9199 C.3       2 UNK         0.1400 
     63 CB          0.1308  -10.7474  -47.9440 C.3       2 UNK        -0.1800 
     64 N           1.6485  -12.2537  -49.0979 N.am      2 UNK        -0.5000 
     65 C           2.1572  -12.9122  -50.1458 C.2       1 UNK         0.5000 
     66 O           1.4745  -13.3638  -51.0698 O.2       1 UNK        -0.5000 
     67 C          -0.9216  -23.4767  -46.0924 C.2       11 UNK         0.5000 
     68 O          -1.5967  -23.7286  -47.0889 O.2       11 UNK        -0.5000 
     69 N          -1.4274  -22.9057  -44.9871 N.am      12 UNK        -0.5000 
     70 CA         -2.8165  -22.4771  -44.7884 C.3       12 UNK         0.1400 
     71 CB         -2.9667  -21.9352  -43.3597 C.3       12 UNK        -0.1800 
     72 C          -3.8788  -23.5690  -45.0377 C.2       12 UNK         0.5000 
     73 O          -5.0025  -23.2397  -45.4179 O.2       12 UNK        -0.5000 
     74 N          -3.5056  -24.8360  -44.8171 N.am      13 UNK        -0.5000 
     75 CA         -4.3469  -26.0151  -45.0266 C.3       13 UNK         0.1400 
     76 CB         -4.3344  -26.8467  -43.7318 C.3       13 UNK        -0.1800 
     77 C          -3.8867  -26.8656  -46.2295 C.2       13 UNK         0.5000 
     78 O          -4.4581  -27.9339  -46.4560 O.2       13 UNK        -0.5000 
     79 N          -2.8614  -26.4152  -46.9656 N.am      14 UNK        -0.5000 
     80 CA         -2.2924  -27.1225  -48.1122 C.3       14 UNK         0.1400 
     81 CB         -0.7791  -26.8489  -48.1625 C.3       14 UNK        -0.1800 
     82 C          -2.9581  -26.6862  -49.4283 C.2       14 UNK         0.5000 
     83 O          -3.6356  -25.6584  -49.4822 O.2       14 UNK        -0.5000 
     84 N          -2.7112  -27.4659  -50.4879 N.am      15 UNK        -0.5000 
     85 CA         -3.1338  -27.1586  -51.8571 C.3       15 UNK         0.1400 
     86 CB         -3.1741  -28.4645  -52.6661 C.3       15 UNK        -0.1800 
     87 C          -2.2256  -26.1229  -52.5529 C.2       15 UNK         0.5000 
     88 O          -2.6125  -25.5987  -53.5983 O.2       15 UNK        -0.5000 
     89 N          -1.0412  -25.8614  -51.9763 N.am      16 UNK        -0.5000 
     90 CA          0.0010  -24.9464  -52.4495 C.3       16 UNK         0.1400 
     91 CB          1.1249  -24.8973  -51.4012 C.3       16 UNK        -0.1800 
     92 C          -0.5383  -23.5350  -52.7455 C.2       16 UNK         0.5000 
     93 O          -0.8529  -22.7939  -51.8124 O.2       16 UNK        -0.5000 
     94 N          -0.6985  -23.2306  -54.0424 N.am      17 UNK        -0.5000 
     95 CA         -1.2882  -22.0073  -54.6046 C.3       17 UNK         0.1400 
     96 CB         -0.3252  -20.8176  -54.4175 C.3       17 UNK        -0.1800 
     97 C          -2.7226  -21.7146  -54.1024 C.2       17 UNK         0.5000 
     98 O          -3.1388  -20.5561  -54.0759 O.2       17 UNK        -0.5000 
     99 N          -3.4416  -22.7791  -53.7090 N.am      18 UNK        -0.5000 
    100 CA        -4.7589  -22.7874  -53.0657 C.3       18 UNK         0.1400 
    101 CB        -5.8461  -22.2704  -54.0308 C.3       18 UNK        -0.1800 
    102 C         -4.7841  -22.0890  -51.6861 C.2       18 UNK         0.5000 
    103 O         -5.8432  -21.6259  -51.2586 O.2       18 UNK        -0.5000 
    104 N         -3.6290  -22.0397  -51.0035 N.am      19 UNK        -0.5000 
    105 CA        -3.4010  -21.3780  -49.7166 C.3       19 UNK         0.1400 
    106 CB        -4.1499  -22.1120  -48.5836 C.3       19 UNK        -0.1800 
    107 C         -3.7050  -19.8665  -49.7955 C.2       19 UNK         0.5000 
    108 O         -3.3108  -19.2249  -50.7664 O.2       19 UNK        -0.5000 
    109 N         -4.4111  -19.3167  -48.7983 N.am      20 UNK        -0.5000 
    110 CA        -4.7519  -17.8947  -48.6867 C.3       20 UNK         0.1400 
    111 CB        -5.2575  -17.6180  -47.2616 C.3       20 UNK        -0.1800 
    112 C         -5.7402  -17.3664  -49.7488 C.2       20 UNK         0.5000 
    113 O         -5.9628  -16.1557  -49.8060 O.2       20 UNK        -0.5000 
    114 N         -6.2889  -18.2481  -50.5993 N.am      21 UNK        -0.5000 
    115 CA        -7.1572  -17.8996  -51.7290 C.3       21 UNK         0.1400 
    116 CB        -7.7131  -19.1831  -52.3603 C.3       21 UNK        -0.1800 
    117 C         -6.4790  -17.0198  -52.8020 C.2       21 UNK         0.5000 
    118 O         -7.1863  -16.4055  -53.6019 O.2       21 UNK        -0.5000 
    119 N         -5.1401  -16.9414  -52.7883 N.am      22 UNK        -0.5000 
    120 CA        -4.3552  -15.9596  -53.5522 C.3       22 UNK         0.1400 
    121 C         -4.5504  -14.4737  -53.1180 C.2       22 UNK         0.5000 
    122 N         -5.1574  -14.1814  -51.9728 N.am      22 UNK        -0.7600 
    123 O         -4.1599  -13.5668  -53.8484 O.2       22 UNK        -0.5000 
    124 C124       -2.8557  -16.3451  -53.6254 C.3       23 UNK        -0.0398 
    125 S125       -2.0098  -16.4297  -52.0048 S.3       23 UNK        -0.2404 
    126 C126       -0.8492  -17.7944  -52.3376 C.3       23 UNK        -0.0205 
    127 H127        6.3165  -13.8028  -53.7444 H         1 UNK         0.0600 
    128 H128        5.8087  -12.1354  -54.0358 H         1 UNK         0.0600 
    129 H129        4.6181  -13.4396  -54.0621 H         1 UNK         0.0600 
    130 H130        3.3515  -13.4703  -52.1993 H         1 UNK         0.3000 
    131 H131        4.0895  -12.0962  -49.8182 H         1 UNK         0.0600 
    132 H132        5.3316  -14.0621  -49.2026 H         1 UNK         0.0800 
    133 H133        3.8770  -14.0817  -48.2669 H         1 UNK         0.0800 
    134 H134        2.8995  -16.6759  -47.8872 H         1 UNK         0.0800 
    135 H135        1.8876  -15.5071  -48.6969 H         1 UNK         0.0800 
    136 H136        0.8190  -16.1298  -50.9501 H         1 UNK         0.1150 
    137 H137       -0.5224  -20.1961  -51.0941 H         1 UNK         0.1150 
    138 H138        2.4743  -19.0208  -48.2592 H         1 UNK         0.1150 
    139 H139        0.1154  -21.7364  -49.3990 H         1 UNK         0.0800 
    140 H140        1.8366  -21.7238  -49.7060 H         1 UNK         0.0800 
    141 H141        0.9789  -23.6729  -48.2044 H         1 UNK         0.0800 
    142 H142        2.4061  -23.5923  -47.2256 H         1 UNK         0.0800 
    143 H143        0.5750  -24.9580  -46.2588 H         1 UNK         0.0600 
    144 H144        1.8543  -22.8681  -44.7489 H         1 UNK         0.3000 
    145 H145        1.1447  -24.1093  -41.5950 H         1 UNK         0.0600 
    146 H146        3.5333  -24.7047  -41.2617 H         1 UNK         0.0600 
    147 H147        2.7099  -25.9781  -42.1462 H         1 UNK         0.0600 
    148 H148        3.7639  -24.8608  -43.0041 H         1 UNK         0.0600 
    149 H149        3.3116  -22.4900  -42.4853 H         1 UNK         0.3000 
    150 H150        3.1053  -20.1981  -41.9104 H         1 UNK         0.0600 
    151 H151        3.3751  -20.7721  -44.3544 H         1 UNK         0.0600 
    152 H152        3.3123  -19.0384  -44.0973 H         1 UNK         0.0600 
    153 H153        1.8979  -19.8860  -44.7162 H         1 UNK         0.0600 
    154 H154        1.1179  -18.4307  -42.9489 H         1 UNK         0.3000 
    155 H155       -0.5379  -17.7057  -39.8795 H         1 UNK         0.0600 
    156 H156        1.5446  -16.3423  -39.8018 H         1 UNK         0.0600 
    157 H157        0.2072  -15.4151  -40.4641 H         1 UNK         0.0600 
    158 H158        1.4476  -16.0629  -41.5358 H         1 UNK         0.0600 
    159 H159       -0.6960  -16.6923  -42.5868 H         1 UNK         0.3000 
    160 H160       -3.2989  -18.8935  -43.6294 H         1 UNK         0.0600 
    161 H161       -3.4678  -15.9265  -42.8856 H         1 UNK         0.0600 
    162 H162       -4.5350  -17.1902  -42.2827 H         1 UNK         0.0600 
    163 H163       -4.5397  -16.7823  -43.9923 H         1 UNK         0.0600 
    164 H164       -2.1450  -16.5915  -44.8546 H         1 UNK         0.3000 
    165 H165        0.5345  -18.2944  -46.5225 H         1 UNK         0.0600 
    166 H166       -2.1634  -17.1096  -47.3409 H         1 UNK         0.0600 
    167 H167       -0.7259  -16.9308  -48.3249 H         1 UNK         0.0600 
    168 H168       -1.3758  -18.5335  -48.0005 H         1 UNK         0.0600 
    169 H169       -0.1317  -15.5560  -46.5055 H         1 UNK         0.3000 
    170 H170        1.6307  -14.5547  -43.5569 H         1 UNK         0.0600 
    171 H171        3.3480  -14.6529  -45.3371 H         1 UNK         0.0600 
    172 H172        2.1854  -14.1146  -46.5370 H         1 UNK         0.0600 
    173 H173        2.6679  -13.0361  -45.2302 H         1 UNK         0.0600 
    174 H174        0.0236  -13.2644  -45.6061 H         1 UNK         0.3000 
    175 H175       -3.0302  -13.3857  -43.7705 H         1 UNK         0.0600 
    176 H176       -1.1483  -11.0277  -44.3323 H         1 UNK         0.0600 
    177 H177       -2.8835  -10.9231  -44.0328 H         1 UNK         0.0600 
    178 H178       -1.8022  -11.4578  -42.7562 H         1 UNK         0.0600 
    179 H179       -2.2741  -12.1391  -46.2355 H         1 UNK         0.3000 
    180 H180       -2.6870  -14.9385  -48.3696 H         1 UNK         0.0600 
    181 H181       -4.5597  -12.5422  -47.9651 H         1 UNK         0.0600 
    182 H182       -5.0520  -14.2312  -47.9715 H         1 UNK         0.0600 
    183 H183       -4.4070  -13.5057  -49.4329 H         1 UNK         0.0600 
    184 H184       -2.3067  -12.2089  -48.9779 H         1 UNK         0.3000 
    185 H185       -0.1855  -11.6301  -49.8830 H         1 UNK         0.0600 
    186 H186        0.5228  -11.0017  -46.9581 H         1 UNK         0.0600 
    187 H187        0.6880   -9.8858  -48.3126 H         1 UNK         0.0600 
    188 H188       -0.9031  -10.4259  -47.8133 H         1 UNK         0.0600 
    189 H189        2.2686  -11.9322  -48.3696 H         1 UNK         0.3000 
    190 H190       -0.7919  -22.6893  -44.2296 H         1 UNK         0.3000 
    191 H191       -3.0035  -21.6576  -45.4832 H         1 UNK         0.0600 
    192 H192       -2.7720  -22.7069  -42.6140 H         1 UNK         0.0600 
    193 H193       -3.9731  -21.5524  -43.1861 H         1 UNK         0.0600 
    194 H194       -2.2732  -21.1162  -43.1751 H         1 UNK         0.0600 
    195 H195       -2.5601  -25.0087  -44.5045 H         1 UNK         0.3000 
    196 H196       -5.3784  -25.7190  -45.2274 H         1 UNK         0.0600 
    197 H197       -4.9873  -27.7166  -43.8139 H         1 UNK         0.0600 
    198 H198       -4.6871  -26.2592  -42.8839 H         1 UNK         0.0600 
    199 H199       -3.3324  -27.2077  -43.4959 H         1 UNK         0.0600 
    200 H200       -2.5268  -25.4682  -46.8207 H         1 UNK         0.3000 
    201 H201       -2.4398  -28.1978  -47.9906 H         1 UNK         0.0600 
    202 H202       -0.3042  -27.0838  -47.2099 H         1 UNK         0.0600 
    203 H203       -0.5642  -25.8071  -48.4009 H         1 UNK         0.0600 
    204 H204       -0.2926  -27.4622  -48.9216 H         1 UNK         0.0600 
    205 H205       -2.1598  -28.3037  -50.3663 H         1 UNK         0.3000 
    206 H206       -4.1437  -26.7432  -51.8328 H         1 UNK         0.0600 
    207 H207       -3.8583  -29.1853  -52.2177 H         1 UNK         0.0600 
    208 H208       -3.5188  -28.2834  -53.6852 H         1 UNK         0.0600 
    209 H209       -2.1897  -28.9297  -52.7306 H         1 UNK         0.0600 
    210 H210       -0.8402  -26.3394  -51.1123 H         1 UNK         0.3000 
    211 H211        0.4153  -25.3642  -53.3691 H         1 UNK         0.0600 
    212 H212        1.9195  -24.2172  -51.7108 H         1 UNK         0.0600 
    213 H213        1.5756  -25.8793  -51.2568 H         1 UNK         0.0600 
    214 H214        0.7563  -24.5521  -50.4349 H         1 UNK         0.0600 
    215 H215       -0.4584  -23.9380  -54.7232 H         1 UNK         0.3000 
    216 H216       -1.3856  -22.1811  -55.6771 H         1 UNK         0.0600 
    217 H217       -0.7148  -19.9115  -54.8830 H         1 UNK         0.0600 
    218 H218        0.6429  -21.0225  -54.8740 H         1 UNK         0.0600 
    219 H219       -0.1542  -20.6015  -53.3644 H         1 UNK         0.0600 
    220 H220       -3.0025  -23.6931  -53.7818 H         1 UNK         0.3000 
    221 H221       -4.9803  -23.8360  -52.8622 H         1 UNK         0.0600 
    222 H222       -6.8415  -22.3786  -53.5984 H         1 UNK         0.0600 
    223 H223       -5.8389  -22.8306  -54.9657 H         1 UNK         0.0600 
    224 H224       -5.7069  -21.2169  -54.2725 H         1 UNK         0.0600 
    225 H225       -2.7904  -22.3995  -51.4483 H         1 UNK         0.3000 
    226 H226       -2.3326  -21.4637  -49.5155 H         1 UNK         0.0600 
    227 H227       -3.8841  -23.1683  -48.5621 H         1 UNK         0.0600 
    228 H228       -3.8837  -21.7033  -47.6105 H         1 UNK         0.0600 
    229 H229       -5.2331  -22.0471  -48.6883 H         1 UNK         0.0600 
    230 H230       -4.7386  -19.9161  -48.0552 H         1 UNK         0.3000 
    231 H231       -3.8346  -17.3248  -48.8382 H         1 UNK         0.0600 
    232 H232       -5.4748  -16.5588  -47.1190 H         1 UNK         0.0600 
    233 H233       -4.5095  -17.8915  -46.5167 H         1 UNK         0.0600 
    234 H234       -6.1703  -18.1734  -47.0442 H         1 UNK         0.0600 
    235 H235       -6.0318  -19.2229  -50.5155 H         1 UNK         0.3000 
    236 H236       -7.9971  -17.3284  -51.3287 H         1 UNK         0.0600 
    237 H237       -8.2022  -19.8147  -51.6184 H         1 UNK         0.0600 
    238 H238       -8.4505  -18.9530  -53.1302 H         1 UNK         0.0600 
    239 H239       -6.9220  -19.7651  -52.8309 H         1 UNK         0.0600 
    240 H240       -4.6239  -17.4910  -52.1133 H         1 UNK         0.3000 
    241 H241       -4.7311  -16.0032  -54.5762 H         1 UNK         0.0600 
    242 H242       -5.2908  -13.2157  -51.7215 H         1 UNK         0.3800 
    243 H243       -5.4659  -14.9122  -51.3410 H         1 UNK         0.3800 
    244 H244       -2.7712  -17.3144  -54.1194 H         1 UNK         0.0800 
    245 H245       -2.3107  -15.6456  -54.2615 H         1 UNK         0.0800 
    246 H246       -1.4290  -18.6713  -52.6294 H         1 UNK         0.0800 
    247 H247       -0.2225  -17.5350  -53.1916 H         1 UNK         0.0800 
@<TRIPOS>BOND
     1    1    2 1    
     2    1  127 1    
     3    1  128 1    
     4    1  129 1    
     5    2    3 2    
     6    2    4 am   BACKBONE|DICT|INTERRES
     7    4    5 1    
     8    4  130 1    
     9    5    6 1    
    10    5   65 1    
    11    5  131 1    
    12    6    7 1    
    13    6  132 1    
    14    6  133 1    
    15    7    8 1    
    16    8    9 1    
    17    8  134 1    
    18    8  135 1    
    19    9   10 ar   
    20    9   14 ar   
    21   10   11 ar   
    22   10  136 1    
    23   11   12 ar   
    24   11  126 1    
    25   12   13 ar   
    26   12  137 1    
    27   13   14 ar   
    28   13   15 1    
    29   14  138 1    
    30   15   16 1    
    31   15  139 1    
    32   15  140 1    
    33   16   17 1    
    34   17   18 1    
    35   17  141 1    
    36   17  142 1    
    37   18   19 1    
    38   18   67 1    
    39   18  143 1    
    40   19   20 am   BACKBONE|DICT|INTERRES
    41   19  144 1    
    42   20   21 2    
    43   20   22 1    
    44   22   23 1    
    45   22   24 1    
    46   22  145 1    
    47   23  146 1    
    48   23  147 1    
    49   23  148 1    
    50   24   25 am   BACKBONE|DICT|INTERRES
    51   24  149 1    
    52   25   26 2    
    53   25   27 1    
    54   27   28 1    
    55   27   29 1    
    56   27  150 1    
    57   28  151 1    
    58   28  152 1    
    59   28  153 1    
    60   29   30 am   BACKBONE|DICT|INTERRES
    61   29  154 1    
    62   30   31 2    
    63   30   32 1    
    64   32   33 1    
    65   32   34 1    
    66   32  155 1    
    67   33  156 1    
    68   33  157 1    
    69   33  158 1    
    70   34   35 am   BACKBONE|DICT|INTERRES
    71   34  159 1    
    72   35   36 2    
    73   35   37 1    
    74   37   38 1    
    75   37   39 1    
    76   37  160 1    
    77   38  161 1    
    78   38  162 1    
    79   38  163 1    
    80   39   40 am   BACKBONE|DICT|INTERRES
    81   39  164 1    
    82   40   41 2    
    83   40   42 1    
    84   42   43 1    
    85   42   44 1    
    86   42  165 1    
    87   43  166 1    
    88   43  167 1    
    89   43  168 1    
    90   44   45 am   BACKBONE|DICT|INTERRES
    91   44  169 1    
    92   45   46 2    
    93   45   47 1    
    94   47   48 1    
    95   47   49 1    
    96   47  170 1    
    97   48  171 1    
    98   48  172 1    
    99   48  173 1    
   100   49   50 am   BACKBONE|DICT|INTERRES
   101   49  174 1    
   102   50   51 2    
   103   50   52 1    
   104   52   53 1    
   105   52   54 1    
   106   52  175 1    
   107   53  176 1    
   108   53  177 1    
   109   53  178 1    
   110   54   55 am   BACKBONE|DICT|INTERRES
   111   54  179 1    
   112   55   56 2    
   113   55   57 1    
   114   57   58 1    
   115   57   59 1    
   116   57  180 1    
   117   58  181 1    
   118   58  182 1    
   119   58  183 1    
   120   59   60 am   BACKBONE|DICT|INTERRES
   121   59  184 1    
   122   60   61 2    
   123   60   62 1    
   124   62   63 1    
   125   62   64 1    
   126   62  185 1    
   127   63  186 1    
   128   63  187 1    
   129   63  188 1    
   130   64   65 am   BACKBONE|DICT|INTERRES
   131   64  189 1    
   132   65   66 2    
   133   67   68 2    
   134   67   69 am   BACKBONE|DICT|INTERRES
   135   69   70 1    
   136   69  190 1    
   137   70   71 1    
   138   70   72 1    
   139   70  191 1    
   140   71  192 1    
   141   71  193 1    
   142   71  194 1    
   143   72   73 2    
   144   72   74 am   BACKBONE|DICT|INTERRES
   145   74   75 1    
   146   74  195 1    
   147   75   76 1    
   148   75   77 1    
   149   75  196 1    
   150   76  197 1    
   151   76  198 1    
   152   76  199 1    
   153   77   78 2    
   154   77   79 am   BACKBONE|DICT|INTERRES
   155   79   80 1    
   156   79  200 1    
   157   80   81 1    
   158   80   82 1    
   159   80  201 1    
   160   81  202 1    
   161   81  203 1    
   162   81  204 1    
   163   82   83 2    
   164   82   84 am   BACKBONE|DICT|INTERRES
   165   84   85 1    
   166   84  205 1    
   167   85   86 1    
   168   85   87 1    
   169   85  206 1    
   170   86  207 1    
   171   86  208 1    
   172   86  209 1    
   173   87   88 2    
   174   87   89 am   BACKBONE|DICT|INTERRES
   175   89   90 1    
   176   89  210 1    
   177   90   91 1    
   178   90   92 1    
   179   90  211 1    
   180   91  212 1    
   181   91  213 1    
   182   91  214 1    
   183   92   93 2    
   184   92   94 am   BACKBONE|DICT|INTERRES
   185   94   95 1    
   186   94  215 1    
   187   95   96 1    
   188   95   97 1    
   189   95  216 1    
   190   96  217 1    
   191   96  218 1    
   192   96  219 1    
   193   97   98 2    
   194   97   99 am   BACKBONE|DICT|INTERRES
   195   99  100 1    
   196   99  220 1    
   197  100  101 1    
   198  100  102 1    
   199  100  221 1    
   200  101  222 1    
   201  101  223 1    
   202  101  224 1    
   203  102  103 2    
   204  102  104 am   BACKBONE|DICT|INTERRES
   205  104  105 1    
   206  104  225 1    
   207  105  106 1    
   208  105  107 1    
   209  105  226 1    
   210  106  227 1    
   211  106  228 1    
   212  106  229 1    
   213  107  108 2    
   214  107  109 am   BACKBONE|DICT|INTERRES
   215  109  110 1    
   216  109  230 1    
   217  110  111 1    
   218  110  112 1    
   219  110  231 1    
   220  111  232 1    
   221  111  233 1    
   222  111  234 1    
   223  112  113 2    
   224  112  114 am   BACKBONE|DICT|INTERRES
   225  114  115 1    
   226  114  235 1    
   227  115  116 1    
   228  115  117 1    
   229  115  236 1    
   230  116  237 1    
   231  116  238 1    
   232  116  239 1    
   233  117  118 2    
   234  117  119 am   BACKBONE|DICT|INTERRES
   235  119  120 1    
   236  119  240 1    
   237  120  121 1    
   238  120  124 1    
   239  120  241 1    
   240  121  122 am   BACKBONE|DICT|INTERRES
   241  121  123 2    
   242  122  242 1    
   243  122  243 1    
   244  124  125 1    
   245  124  244 1    
   246  124  245 1    
   247  125  126 1    
   248  126  246 1    
   249  126  247 1    
@<TRIPOS>SUBSTRUCTURE
     1 UNK         1 GROUP             0       ****    0 ROOT    
