@<TRIPOS>MOLECULE
3R540
247   249    1
SMALL
USER_CHARGES


@<TRIPOS>ATOM
      1 CA         -0.6582  -13.6051  -50.5722 C.3       0 UNK        -0.1800 
      2 C           0.8241  -13.8756  -50.3631 C.2       0 UNK         0.5000 
      3 O           1.6611  -13.2137  -50.9769 O.2       0 UNK        -0.5000 
      4 N           1.1499  -14.8402  -49.4929 N.am      1 UNK        -0.5000 
      5 CA          2.5244  -15.2458  -49.1671 C.3       1 UNK         0.1400 
      6 C6          2.5703  -16.6308  -48.4783 C.3       23 UNK        -0.0398 
      7 S7          2.0685  -17.9795  -49.5985 S.3       23 UNK        -0.2404 
      8 C8          0.5488  -18.5943  -48.8092 C.3       23 UNK        -0.0205 
      9 C9         -0.6607  -17.7201  -49.0962 C.ar      23 UNK        -0.0193 
     10 C10        -1.1800  -17.6454  -50.3926 C.ar      23 UNK        -0.1150 
     11 C11        -2.3312  -16.8919  -50.6632 C.ar      23 UNK        -0.0193 
     12 C12        -2.9580  -16.2234  -49.6077 C.ar      23 UNK        -0.1150 
     13 C13        -2.4484  -16.2878  -48.3082 C.ar      23 UNK        -0.0193 
     14 C14        -1.2915  -17.0288  -48.0601 C.ar      23 UNK        -0.1150 
     15 C15        -3.1586  -15.5599  -47.1781 C.3       23 UNK        -0.0205 
     16 S16        -4.5335  -16.5490  -46.5064 S.3       23 UNK        -0.2404 
     17 C17        -3.6634  -17.7084  -45.3974 C.3       23 UNK        -0.0398 
     18 CA         -3.3810  -19.0968  -46.0302 C.3       11 UNK         0.1400 
     19 N          -2.1809  -19.7096  -45.4420 N.am      11 UNK        -0.5000 
     20 C          -1.6129  -20.8802  -45.7652 C.2       10 UNK         0.5000 
     21 O          -2.0440  -21.6316  -46.6397 O.2       10 UNK        -0.5000 
     22 CA         -0.3774  -21.3128  -44.9536 C.3       10 UNK         0.1400 
     23 CB          0.9125  -20.9371  -45.6939 C.3       10 UNK        -0.1800 
     24 N          -0.3383  -20.7661  -43.5948 N.am      10 UNK        -0.5000 
     25 C          -1.2157  -21.0686  -42.6263 C.2       9 UNK         0.5000 
     26 O          -2.1590  -21.8460  -42.7782 O.2       9 UNK        -0.5000 
     27 CA         -1.0279  -20.3556  -41.2744 C.3       9 UNK         0.1400 
     28 CB          0.1222  -20.9870  -40.4754 C.3       9 UNK        -0.1800 
     29 N          -0.7854  -18.9220  -41.4333 N.am      9 UNK        -0.5000 
     30 C          -1.6907  -18.0472  -41.8944 C.2       8 UNK         0.5000 
     31 O          -2.8556  -18.3432  -42.1602 O.2       8 UNK        -0.5000 
     32 CA         -1.2013  -16.6084  -42.1483 C.3       8 UNK         0.1400 
     33 CB         -1.2284  -15.7863  -40.8522 C.3       8 UNK        -0.1800 
     34 N           0.1363  -16.5535  -42.7437 N.am      8 UNK        -0.5000 
     35 C           0.4590  -17.0931  -43.9275 C.2       7 UNK         0.5000 
     36 O          -0.3374  -17.6832  -44.6515 O.2       7 UNK        -0.5000 
     37 CA          1.9243  -16.9998  -44.3683 C.3       7 UNK         0.1400 
     38 CB          2.2169  -15.6229  -44.9684 C.3       7 UNK        -0.1800 
     39 N           2.8548  -17.2947  -43.2812 N.am      7 UNK        -0.5000 
     40 C           2.9561  -18.4949  -42.6924 C.2       6 UNK         0.5000 
     41 O           2.3277  -19.4914  -43.0511 O.2       6 UNK        -0.5000 
     42 CA          3.8593  -18.5734  -41.4512 C.3       6 UNK         0.1400 
     43 CB          5.3402  -18.6749  -41.8462 C.3       6 UNK        -0.1800 
     44 N           3.6542  -17.4280  -40.5635 N.am      6 UNK        -0.5000 
     45 C           2.5239  -17.2104  -39.8750 C.2       5 UNK         0.5000 
     46 O           1.5593  -17.9751  -39.8895 O.2       5 UNK        -0.5000 
     47 CA          2.4385  -15.9109  -39.0544 C.3       5 UNK         0.1400 
     48 CB          2.9541  -16.1437  -37.6266 C.3       5 UNK        -0.1800 
     49 N           3.1629  -14.7873  -39.6494 N.am      5 UNK        -0.5000 
     50 C           2.8812  -14.2159  -40.8287 C.2       4 UNK         0.5000 
     51 O           1.9722  -14.5991  -41.5678 O.2       4 UNK        -0.5000 
     52 CA          3.7528  -13.0109  -41.2526 C.3       4 UNK         0.1400 
     53 CB          4.9189  -12.7096  -40.2841 C.3       4 UNK        -0.1800 
     54 N           4.2768  -13.1075  -42.6185 N.am      4 UNK        -0.5000 
     55 C           4.9399  -14.1257  -43.1803 C.2       3 UNK         0.5000 
     56 O           5.0688  -15.2308  -42.6487 O.2       3 UNK        -0.5000 
     57 CA          5.5748  -13.8506  -44.5654 C.3       3 UNK         0.1400 
     58 CB          6.3666  -15.0616  -45.0924 C.3       3 UNK        -0.1800 
     59 N           4.6247  -13.4420  -45.6044 N.am      3 UNK        -0.5000 
     60 C           3.9311  -12.3018  -45.6868 C.2       2 UNK         0.5000 
     61 O           3.9977  -11.4111  -44.8381 O.2       2 UNK        -0.5000 
     62 CA          2.9998  -12.1002  -46.9052 C.3       2 UNK         0.1400 
     63 CB          3.6112  -11.0827  -47.8872 C.3       2 UNK        -0.1800 
     64 N           2.5597  -13.3069  -47.6300 N.am      2 UNK        -0.5000 
     65 C           3.2879  -14.1887  -48.3348 C.2       1 UNK         0.5000 
     66 O           4.5184  -14.1979  -48.3478 O.2       1 UNK        -0.5000 
     67 C          -4.6397  -19.9947  -45.9861 C.2       11 UNK         0.5000 
     68 O          -5.5364  -19.8134  -46.8094 O.2       11 UNK        -0.5000 
     69 N          -4.6754  -20.9712  -45.0656 N.am      12 UNK        -0.5000 
     70 CA         -5.7197  -21.9949  -44.9732 C.3       12 UNK         0.1400 
     71 CB         -5.4800  -22.8425  -43.7150 C.3       12 UNK        -0.1800 
     72 C          -5.8069  -22.8945  -46.2249 C.2       12 UNK         0.5000 
     73 O          -6.9062  -23.3069  -46.5961 O.2       12 UNK        -0.5000 
     74 N          -4.6555  -23.1581  -46.8569 N.am      13 UNK        -0.5000 
     75 CA         -4.5384  -23.8763  -48.1287 C.3       13 UNK         0.1400 
     76 CB         -3.4657  -24.9660  -47.9681 C.3       13 UNK        -0.1800 
     77 C          -4.1504  -22.9364  -49.2857 C.2       13 UNK         0.5000 
     78 O          -4.3285  -23.2999  -50.4466 O.2       13 UNK        -0.5000 
     79 N          -3.5863  -21.7678  -48.9485 N.am      14 UNK        -0.5000 
     80 CA         -2.8488  -20.8530  -49.8212 C.3       14 UNK         0.1400 
     81 CB         -3.7640  -20.2142  -50.8810 C.3       14 UNK        -0.1800 
     82 C          -1.5700  -21.5182  -50.3739 C.2       14 UNK         0.5000 
     83 O          -1.2399  -21.3769  -51.5524 O.2       14 UNK        -0.5000 
     84 N          -0.8799  -22.2484  -49.4816 N.am      15 UNK        -0.5000 
     85 CA          0.3346  -23.0333  -49.7163 C.3       15 UNK         0.1400 
     86 CB          1.5598  -22.0998  -49.8500 C.3       15 UNK        -0.1800 
     87 C           0.1668  -24.0248  -50.8885 C.2       15 UNK         0.5000 
     88 O          -0.6925  -24.9060  -50.8182 O.2       15 UNK        -0.5000 
     89 N           0.9693  -23.8514  -51.9474 N.am      16 UNK        -0.5000 
     90 CA          1.0086  -24.6814  -53.1532 C.3       16 UNK         0.1400 
     91 CB          2.1998  -24.2356  -54.0159 C.3       16 UNK        -0.1800 
     92 C          -0.2901  -24.6806  -53.9849 C.2       16 UNK         0.5000 
     93 O          -0.4600  -25.5676  -54.8225 O.2       16 UNK        -0.5000 
     94 N          -1.1883  -23.7136  -53.7437 N.am      17 UNK        -0.5000 
     95 CA         -2.5152  -23.6527  -54.3586 C.3       17 UNK         0.1400 
     96 CB         -3.1211  -22.2659  -54.1077 C.3       17 UNK        -0.1800 
     97 C          -3.4729  -24.7535  -53.8574 C.2       17 UNK         0.5000 
     98 O          -4.4677  -25.0218  -54.5340 O.2       17 UNK        -0.5000 
     99 N          -3.1743  -25.3535  -52.6928 N.am      18 UNK        -0.5000 
    100 CA        -3.8568  -26.4582  -52.0009 C.3       18 UNK         0.1400 
    101 CB        -3.8123  -27.7453  -52.8452 C.3       18 UNK        -0.1800 
    102 C         -5.2949  -26.1576  -51.5281 C.2       18 UNK         0.5000 
    103 O         -5.6309  -26.4485  -50.3794 O.2       18 UNK        -0.5000 
    104 N         -6.1085  -25.5839  -52.4161 N.am      19 UNK        -0.5000 
    105 CA        -7.4773  -25.1324  -52.1829 C.3       19 UNK         0.1400 
    106 CB        -8.4395  -26.3331  -52.2516 C.3       19 UNK        -0.1800 
    107 C         -7.9038  -24.0229  -53.1662 C.2       19 UNK         0.5000 
    108 O         -8.9872  -23.4638  -52.9928 O.2       19 UNK        -0.5000 
    109 N         -7.0794  -23.7143  -54.1821 N.am      20 UNK        -0.5000 
    110 CA        -7.4000  -22.7695  -55.2576 C.3       20 UNK         0.1400 
    111 CB        -6.5185  -23.0865  -56.4774 C.3       20 UNK        -0.1800 
    112 C         -7.2879  -21.2808  -54.8659 C.2       20 UNK         0.5000 
    113 O         -7.6203  -20.4264  -55.6887 O.2       20 UNK        -0.5000 
    114 N         -6.8155  -20.9838  -53.6442 N.am      21 UNK        -0.5000 
    115 CA        -6.7333  -19.6457  -53.0357 C.3       21 UNK         0.1400 
    116 CB        -8.1490  -19.1080  -52.7390 C.3       21 UNK        -0.1800 
    117 C         -5.8729  -18.6455  -53.8427 C.2       21 UNK         0.5000 
    118 O         -6.1994  -17.4594  -53.9059 O.2       21 UNK        -0.5000 
    119 N         -4.8043  -19.1596  -54.4665 N.am      22 UNK        -0.5000 
    120 CA        -3.9253  -18.4645  -55.4268 C.3       22 UNK         0.1400 
    121 C         -4.5984  -18.1239  -56.7949 C.2       22 UNK         0.5000 
    122 N         -5.7863  -18.6272  -57.1109 N.am      22 UNK        -0.7600 
    123 O         -4.0167  -17.4144  -57.6114 O.2       22 UNK        -0.5000 
    124 C124       -3.1696  -17.2414  -54.8274 C.3       23 UNK        -0.0398 
    125 S125       -2.1094  -17.6675  -53.4040 S.3       23 UNK        -0.2404 
    126 C126       -2.9524  -16.7653  -52.0574 C.3       23 UNK        -0.0205 
    127 H127       -0.8325  -12.5406  -50.7287 H         1 UNK         0.0600 
    128 H128       -1.2444  -13.9159  -49.7079 H         1 UNK         0.0600 
    129 H129       -1.0184  -14.1446  -51.4480 H         1 UNK         0.0600 
    130 H130        0.4146  -15.3867  -49.0666 H         1 UNK         0.3000 
    131 H131        3.0701  -15.3312  -50.1097 H         1 UNK         0.0600 
    132 H132        1.9414  -16.6410  -47.5893 H         1 UNK         0.0800 
    133 H133        3.5820  -16.8620  -48.1392 H         1 UNK         0.0800 
    134 H134        0.7091  -18.7042  -47.7368 H         1 UNK         0.0800 
    135 H135        0.3433  -19.5935  -49.1878 H         1 UNK         0.0800 
    136 H136       -0.6800  -18.1913  -51.1791 H         1 UNK         0.1150 
    137 H137       -3.8540  -15.6487  -49.7973 H         1 UNK         0.1150 
    138 H138       -0.9018  -17.0908  -47.0549 H         1 UNK         0.1150 
    139 H139       -2.4575  -15.2951  -46.3850 H         1 UNK         0.0800 
    140 H140       -3.5585  -14.6162  -47.5519 H         1 UNK         0.0800 
    141 H141       -4.2393  -17.8086  -44.4756 H         1 UNK         0.0800 
    142 H142       -2.7364  -17.2272  -45.0951 H         1 UNK         0.0800 
    143 H143       -3.1457  -18.9510  -47.0853 H         1 UNK         0.0600 
    144 H144       -1.6819  -19.1329  -44.7721 H         1 UNK         0.3000 
    145 H145       -0.4140  -22.4010  -44.8730 H         1 UNK         0.0600 
    146 H146        1.7862  -21.3649  -45.2021 H         1 UNK         0.0600 
    147 H147        1.0501  -19.8576  -45.7330 H         1 UNK         0.0600 
    148 H148        0.9005  -21.3096  -46.7182 H         1 UNK         0.0600 
    149 H149        0.4317  -20.1394  -43.3821 H         1 UNK         0.3000 
    150 H150       -1.9480  -20.4818  -40.7001 H         1 UNK         0.0600 
    151 H151       -0.0393  -22.0565  -40.3358 H         1 UNK         0.0600 
    152 H152        0.2052  -20.5380  -39.4854 H         1 UNK         0.0600 
    153 H153        1.0814  -20.8612  -40.9786 H         1 UNK         0.0600 
    154 H154        0.1382  -18.5845  -41.1809 H         1 UNK         0.3000 
    155 H155       -1.8909  -16.1443  -42.8564 H         1 UNK         0.0600 
    156 H156       -2.2401  -15.7320  -40.4484 H         1 UNK         0.0600 
    157 H157       -0.8896  -14.7642  -41.0226 H         1 UNK         0.0600 
    158 H158       -0.5950  -16.2283  -40.0841 H         1 UNK         0.0600 
    159 H159        0.8466  -16.0340  -42.2352 H         1 UNK         0.3000 
    160 H160        2.0782  -17.7434  -45.1527 H         1 UNK         0.0600 
    161 H161        2.2394  -14.8417  -44.2095 H         1 UNK         0.0600 
    162 H162        1.4586  -15.3385  -45.6985 H         1 UNK         0.0600 
    163 H163        3.1765  -15.6377  -45.4803 H         1 UNK         0.0600 
    164 H164        3.4062  -16.5256  -42.9169 H         1 UNK         0.3000 
    165 H165        3.5936  -19.4798  -40.9028 H         1 UNK         0.0600 
    166 H166        5.9761  -18.7794  -40.9671 H         1 UNK         0.0600 
    167 H167        5.5138  -19.5465  -42.4784 H         1 UNK         0.0600 
    168 H168        5.6758  -17.7981  -42.4002 H         1 UNK         0.0600 
    169 H169        4.3808  -16.7262  -40.5448 H         1 UNK         0.3000 
    170 H170        1.3867  -15.6278  -38.9909 H         1 UNK         0.0600 
    171 H171        4.0144  -16.3996  -37.6177 H         1 UNK         0.0600 
    172 H172        2.8165  -15.2572  -37.0072 H         1 UNK         0.0600 
    173 H173        2.4151  -16.9611  -37.1454 H         1 UNK         0.0600 
    174 H174        3.9310  -14.4140  -39.1111 H         1 UNK         0.3000 
    175 H175        3.0865  -12.1474  -41.2449 H         1 UNK         0.0600 
    176 H176        5.6257  -13.5387  -40.2277 H         1 UNK         0.0600 
    177 H177        5.4738  -11.8289  -40.6081 H         1 UNK         0.0600 
    178 H178        4.5597  -12.4997  -39.2759 H         1 UNK         0.0600 
    179 H179        4.1569  -12.2788  -43.1961 H         1 UNK         0.3000 
    180 H180        6.2827  -13.0314  -44.4255 H         1 UNK         0.0600 
    181 H181        6.8699  -14.8266  -46.0305 H         1 UNK         0.0600 
    182 H182        5.7182  -15.9213  -45.2663 H         1 UNK         0.0600 
    183 H183        7.1356  -15.3681  -44.3820 H         1 UNK         0.0600 
    184 H184        4.5606  -14.0544  -46.4096 H         1 UNK         0.3000 
    185 H185        2.0865  -11.6564  -46.5061 H         1 UNK         0.0600 
    186 H186        2.9247  -10.8629  -48.7050 H         1 UNK         0.0600 
    187 H187        3.8325  -10.1390  -47.3870 H         1 UNK         0.0600 
    188 H188        4.5429  -11.4474  -48.3208 H         1 UNK         0.0600 
    189 H189        1.5572  -13.4211  -47.6772 H         1 UNK         0.3000 
    190 H190       -3.9002  -21.0560  -44.4211 H         1 UNK         0.3000 
    191 H191       -6.6787  -21.4842  -44.8653 H         1 UNK         0.0600 
    192 H192       -5.4917  -22.2262  -42.8158 H         1 UNK         0.0600 
    193 H193       -4.5192  -23.3575  -43.7543 H         1 UNK         0.0600 
    194 H194       -6.2558  -23.6006  -43.6000 H         1 UNK         0.0600 
    195 H195       -3.7981  -22.7758  -46.4763 H         1 UNK         0.3000 
    196 H196       -5.4822  -24.3561  -48.3959 H         1 UNK         0.0600 
    197 H197       -3.7474  -25.6842  -47.1981 H         1 UNK         0.0600 
    198 H198       -2.4977  -24.5428  -47.6963 H         1 UNK         0.0600 
    199 H199       -3.3292  -25.5220  -48.8960 H         1 UNK         0.0600 
    200 H200       -3.4347  -21.6065  -47.9604 H         1 UNK         0.3000 
    201 H201       -2.4938  -20.0440  -49.1826 H         1 UNK         0.0600 
    202 H202       -4.4786  -19.5393  -50.4102 H         1 UNK         0.0600 
    203 H203       -4.3266  -20.9539  -51.4447 H         1 UNK         0.0600 
    204 H204       -3.1907  -19.6294  -51.5968 H         1 UNK         0.0600 
    205 H205       -1.2574  -22.3037  -48.5433 H         1 UNK         0.3000 
    206 H206        0.4837  -23.6454  -48.8257 H         1 UNK         0.0600 
    207 H207        1.4561  -21.3983  -50.6789 H         1 UNK         0.0600 
    208 H208        1.7061  -21.5158  -48.9427 H         1 UNK         0.0600 
    209 H209        2.4782  -22.6682  -50.0023 H         1 UNK         0.0600 
    210 H210        1.6144  -23.0751  -51.9246 H         1 UNK         0.3000 
    211 H211        1.1828  -25.7117  -52.8364 H         1 UNK         0.0600 
    212 H212        2.0929  -23.2006  -54.3429 H         1 UNK         0.0600 
    213 H213        2.2908  -24.8544  -54.9097 H         1 UNK         0.0600 
    214 H214        3.1387  -24.3209  -53.4684 H         1 UNK         0.0600 
    215 H215       -0.9826  -23.0143  -53.0389 H         1 UNK         0.3000 
    216 H216       -2.3986  -23.7830  -55.4364 H         1 UNK         0.0600 
    217 H217       -4.0654  -22.1466  -54.6359 H         1 UNK         0.0600 
    218 H218       -2.4533  -21.4710  -54.4405 H         1 UNK         0.0600 
    219 H219       -3.3190  -22.1184  -53.0484 H         1 UNK         0.0600 
    220 H220       -2.3593  -25.0065  -52.1992 H         1 UNK         0.3000 
    221 H221       -3.2669  -26.6402  -51.1015 H         1 UNK         0.0600 
    222 H222       -4.3763  -27.6451  -53.7730 H         1 UNK         0.0600 
    223 H223       -2.7869  -28.0100  -53.1038 H         1 UNK         0.0600 
    224 H224       -4.2369  -28.5860  -52.2952 H         1 UNK         0.0600 
    225 H225       -5.7081  -25.4082  -53.3330 H         1 UNK         0.3000 
    226 H226       -7.5303  -24.6966  -51.1830 H         1 UNK         0.0600 
    227 H227       -8.1977  -27.0802  -51.4956 H         1 UNK         0.0600 
    228 H228       -9.4705  -26.0226  -52.0779 H         1 UNK         0.0600 
    229 H229       -8.4011  -26.8189  -53.2272 H         1 UNK         0.0600 
    230 H230       -6.1943  -24.1968  -54.2844 H         1 UNK         0.3000 
    231 H231       -8.4383  -22.9334  -55.5536 H         1 UNK         0.0600 
    232 H232       -6.7680  -22.4432  -57.3222 H         1 UNK         0.0600 
    233 H233       -6.6592  -24.1165  -56.8059 H         1 UNK         0.0600 
    234 H234       -5.4594  -22.9487  -56.2643 H         1 UNK         0.0600 
    235 H235       -6.5567  -21.7568  -53.0482 H         1 UNK         0.3000 
    236 H236       -6.2374  -19.7709  -52.0752 H         1 UNK         0.0600 
    237 H237       -8.7012  -18.8943  -53.6547 H         1 UNK         0.0600 
    238 H238       -8.7287  -19.8254  -52.1579 H         1 UNK         0.0600 
    239 H239       -8.1048  -18.1847  -52.1603 H         1 UNK         0.0600 
    240 H240       -4.6263  -20.1454  -54.3539 H         1 UNK         0.3000 
    241 H241       -3.1655  -19.2017  -55.6882 H         1 UNK         0.0600 
    242 H242       -6.3103  -19.2140  -56.4694 H         1 UNK         0.3800 
    243 H243       -6.1888  -18.3996  -58.0060 H         1 UNK         0.3800 
    244 H244       -3.8688  -16.4508  -54.5536 H         1 UNK         0.0800 
    245 H245       -2.5098  -16.8010  -55.5764 H         1 UNK         0.0800 
    246 H246       -3.9859  -17.1098  -52.0064 H         1 UNK         0.0800 
    247 H247       -2.9891  -15.7080  -52.3232 H         1 UNK         0.0800 
@<TRIPOS>BOND
     1    1    2 1    
     2    1  127 1    
     3    1  128 1    
     4    1  129 1    
     5    2    3 2    
     6    2    4 am   BACKBONE|DICT|INTERRES
     7    4    5 1    
     8    4  130 1    
     9    5    6 1    
    10    5   65 1    
    11    5  131 1    
    12    6    7 1    
    13    6  132 1    
    14    6  133 1    
    15    7    8 1    
    16    8    9 1    
    17    8  134 1    
    18    8  135 1    
    19    9   10 ar   
    20    9   14 ar   
    21   10   11 ar   
    22   10  136 1    
    23   11   12 ar   
    24   11  126 1    
    25   12   13 ar   
    26   12  137 1    
    27   13   14 ar   
    28   13   15 1    
    29   14  138 1    
    30   15   16 1    
    31   15  139 1    
    32   15  140 1    
    33   16   17 1    
    34   17   18 1    
    35   17  141 1    
    36   17  142 1    
    37   18   19 1    
    38   18   67 1    
    39   18  143 1    
    40   19   20 am   BACKBONE|DICT|INTERRES
    41   19  144 1    
    42   20   21 2    
    43   20   22 1    
    44   22   23 1    
    45   22   24 1    
    46   22  145 1    
    47   23  146 1    
    48   23  147 1    
    49   23  148 1    
    50   24   25 am   BACKBONE|DICT|INTERRES
    51   24  149 1    
    52   25   26 2    
    53   25   27 1    
    54   27   28 1    
    55   27   29 1    
    56   27  150 1    
    57   28  151 1    
    58   28  152 1    
    59   28  153 1    
    60   29   30 am   BACKBONE|DICT|INTERRES
    61   29  154 1    
    62   30   31 2    
    63   30   32 1    
    64   32   33 1    
    65   32   34 1    
    66   32  155 1    
    67   33  156 1    
    68   33  157 1    
    69   33  158 1    
    70   34   35 am   BACKBONE|DICT|INTERRES
    71   34  159 1    
    72   35   36 2    
    73   35   37 1    
    74   37   38 1    
    75   37   39 1    
    76   37  160 1    
    77   38  161 1    
    78   38  162 1    
    79   38  163 1    
    80   39   40 am   BACKBONE|DICT|INTERRES
    81   39  164 1    
    82   40   41 2    
    83   40   42 1    
    84   42   43 1    
    85   42   44 1    
    86   42  165 1    
    87   43  166 1    
    88   43  167 1    
    89   43  168 1    
    90   44   45 am   BACKBONE|DICT|INTERRES
    91   44  169 1    
    92   45   46 2    
    93   45   47 1    
    94   47   48 1    
    95   47   49 1    
    96   47  170 1    
    97   48  171 1    
    98   48  172 1    
    99   48  173 1    
   100   49   50 am   BACKBONE|DICT|INTERRES
   101   49  174 1    
   102   50   51 2    
   103   50   52 1    
   104   52   53 1    
   105   52   54 1    
   106   52  175 1    
   107   53  176 1    
   108   53  177 1    
   109   53  178 1    
   110   54   55 am   BACKBONE|DICT|INTERRES
   111   54  179 1    
   112   55   56 2    
   113   55   57 1    
   114   57   58 1    
   115   57   59 1    
   116   57  180 1    
   117   58  181 1    
   118   58  182 1    
   119   58  183 1    
   120   59   60 am   BACKBONE|DICT|INTERRES
   121   59  184 1    
   122   60   61 2    
   123   60   62 1    
   124   62   63 1    
   125   62   64 1    
   126   62  185 1    
   127   63  186 1    
   128   63  187 1    
   129   63  188 1    
   130   64   65 am   BACKBONE|DICT|INTERRES
   131   64  189 1    
   132   65   66 2    
   133   67   68 2    
   134   67   69 am   BACKBONE|DICT|INTERRES
   135   69   70 1    
   136   69  190 1    
   137   70   71 1    
   138   70   72 1    
   139   70  191 1    
   140   71  192 1    
   141   71  193 1    
   142   71  194 1    
   143   72   73 2    
   144   72   74 am   BACKBONE|DICT|INTERRES
   145   74   75 1    
   146   74  195 1    
   147   75   76 1    
   148   75   77 1    
   149   75  196 1    
   150   76  197 1    
   151   76  198 1    
   152   76  199 1    
   153   77   78 2    
   154   77   79 am   BACKBONE|DICT|INTERRES
   155   79   80 1    
   156   79  200 1    
   157   80   81 1    
   158   80   82 1    
   159   80  201 1    
   160   81  202 1    
   161   81  203 1    
   162   81  204 1    
   163   82   83 2    
   164   82   84 am   BACKBONE|DICT|INTERRES
   165   84   85 1    
   166   84  205 1    
   167   85   86 1    
   168   85   87 1    
   169   85  206 1    
   170   86  207 1    
   171   86  208 1    
   172   86  209 1    
   173   87   88 2    
   174   87   89 am   BACKBONE|DICT|INTERRES
   175   89   90 1    
   176   89  210 1    
   177   90   91 1    
   178   90   92 1    
   179   90  211 1    
   180   91  212 1    
   181   91  213 1    
   182   91  214 1    
   183   92   93 2    
   184   92   94 am   BACKBONE|DICT|INTERRES
   185   94   95 1    
   186   94  215 1    
   187   95   96 1    
   188   95   97 1    
   189   95  216 1    
   190   96  217 1    
   191   96  218 1    
   192   96  219 1    
   193   97   98 2    
   194   97   99 am   BACKBONE|DICT|INTERRES
   195   99  100 1    
   196   99  220 1    
   197  100  101 1    
   198  100  102 1    
   199  100  221 1    
   200  101  222 1    
   201  101  223 1    
   202  101  224 1    
   203  102  103 2    
   204  102  104 am   BACKBONE|DICT|INTERRES
   205  104  105 1    
   206  104  225 1    
   207  105  106 1    
   208  105  107 1    
   209  105  226 1    
   210  106  227 1    
   211  106  228 1    
   212  106  229 1    
   213  107  108 2    
   214  107  109 am   BACKBONE|DICT|INTERRES
   215  109  110 1    
   216  109  230 1    
   217  110  111 1    
   218  110  112 1    
   219  110  231 1    
   220  111  232 1    
   221  111  233 1    
   222  111  234 1    
   223  112  113 2    
   224  112  114 am   BACKBONE|DICT|INTERRES
   225  114  115 1    
   226  114  235 1    
   227  115  116 1    
   228  115  117 1    
   229  115  236 1    
   230  116  237 1    
   231  116  238 1    
   232  116  239 1    
   233  117  118 2    
   234  117  119 am   BACKBONE|DICT|INTERRES
   235  119  120 1    
   236  119  240 1    
   237  120  121 1    
   238  120  124 1    
   239  120  241 1    
   240  121  122 am   BACKBONE|DICT|INTERRES
   241  121  123 2    
   242  122  242 1    
   243  122  243 1    
   244  124  125 1    
   245  124  244 1    
   246  124  245 1    
   247  125  126 1    
   248  126  246 1    
   249  126  247 1    
@<TRIPOS>SUBSTRUCTURE
     1 UNK         1 GROUP             0       ****    0 ROOT    
