@<TRIPOS>MOLECULE
3R540
247   249    1
SMALL
USER_CHARGES


@<TRIPOS>ATOM
      1 CA         -5.0907  -13.9439  -50.3271 C.3       0 UNK        -0.1800 
      2 C          -3.8483  -14.1229  -49.4669 C.2       0 UNK         0.5000 
      3 O          -3.9490  -14.1543  -48.2412 O.2       0 UNK        -0.5000 
      4 N          -2.6723  -14.2195  -50.1012 N.am      1 UNK        -0.5000 
      5 CA         -1.3402  -14.4384  -49.5114 C.3       1 UNK         0.1400 
      6 C6         -1.2577  -15.7332  -48.6558 C.3       23 UNK        -0.0398 
      7 S7          0.3016  -16.6444  -48.9107 S.3       23 UNK        -0.2404 
      8 C8         -0.2199  -17.8197  -50.2092 C.3       23 UNK        -0.0205 
      9 C9          0.8116  -18.8823  -50.5921 C.ar      23 UNK        -0.0193 
     10 C10         0.6825  -19.5168  -51.8320 C.ar      23 UNK        -0.1150 
     11 C11         1.5729  -20.5203  -52.2242 C.ar      23 UNK        -0.0193 
     12 C12         2.6152  -20.8815  -51.3702 C.ar      23 UNK        -0.1150 
     13 C13         2.7616  -20.2605  -50.1283 C.ar      23 UNK        -0.0193 
     14 C14         1.8547  -19.2696  -49.7395 C.ar      23 UNK        -0.1150 
     15 C15         3.9096  -20.6653  -49.2192 C.3       23 UNK        -0.0205 
     16 S16         3.5298  -22.1866  -48.2983 S.3       23 UNK        -0.2404 
     17 C17         2.5321  -21.5328  -46.9222 C.3       23 UNK        -0.0398 
     18 CA          1.2619  -22.3716  -46.6413 C.3       11 UNK         0.1400 
     19 N           0.9065  -22.3331  -45.2205 N.am      11 UNK        -0.5000 
     20 C          -0.0119  -23.1128  -44.6356 C.2       10 UNK         0.5000 
     21 O          -0.6278  -24.0013  -45.2250 O.2       10 UNK        -0.5000 
     22 CA         -0.3258  -22.8150  -43.1564 C.3       10 UNK         0.1400 
     23 CB          0.7018  -23.4833  -42.2314 C.3       10 UNK        -0.1800 
     24 N          -0.3807  -21.3781  -42.8750 N.am      10 UNK        -0.5000 
     25 C          -1.3002  -20.5468  -43.3864 C.2       9 UNK         0.5000 
     26 O          -2.2392  -20.9227  -44.0862 O.2       9 UNK        -0.5000 
     27 CA         -1.1135  -19.0412  -43.1232 C.3       9 UNK         0.1400 
     28 CB         -1.6596  -18.6508  -41.7423 C.3       9 UNK        -0.1800 
     29 N           0.2815  -18.6179  -43.2404 N.am      9 UNK        -0.5000 
     30 C           1.0093  -18.6836  -44.3634 C.2       8 UNK         0.5000 
     31 O           0.5673  -19.0700  -45.4423 O.2       8 UNK        -0.5000 
     32 CA          2.4973  -18.3160  -44.2546 C.3       8 UNK         0.1400 
     33 CB          2.6972  -16.7989  -44.3596 C.3       8 UNK        -0.1800 
     34 N           3.0977  -18.8200  -43.0205 N.am      8 UNK        -0.5000 
     35 C           3.3070  -20.1191  -42.7641 C.2       7 UNK         0.5000 
     36 O           3.0408  -21.0230  -43.5554 O.2       7 UNK        -0.5000 
     37 CA          3.8631  -20.4667  -41.3721 C.3       7 UNK         0.1400 
     38 CB          5.3863  -20.2738  -41.3306 C.3       7 UNK        -0.1800 
     39 N           3.2414  -19.6708  -40.3136 N.am      7 UNK        -0.5000 
     40 C           1.9527  -19.7657  -39.9575 C.2       6 UNK         0.5000 
     41 O           1.1631  -20.5695  -40.4538 O.2       6 UNK        -0.5000 
     42 CA          1.4543  -18.7575  -38.9052 C.3       6 UNK         0.1400 
     43 CB          1.7257  -19.2790  -37.4863 C.3       6 UNK        -0.1800 
     44 N           2.0378  -17.4191  -39.0532 N.am      6 UNK        -0.5000 
     45 C           1.8843  -16.6399  -40.1321 C.2       5 UNK         0.5000 
     46 O           1.2877  -16.9951  -41.1493 O.2       5 UNK        -0.5000 
     47 CA          2.5485  -15.2516  -40.0886 C.3       5 UNK         0.1400 
     48 CB          3.9534  -15.3173  -40.7075 C.3       5 UNK        -0.1800 
     49 N           1.7650  -14.2386  -40.7995 N.am      5 UNK        -0.5000 
     50 C           0.5349  -13.8337  -40.4521 C.2       4 UNK         0.5000 
     51 O          -0.0601  -14.2505  -39.4567 O.2       4 UNK        -0.5000 
     52 CA         -0.1418  -12.7635  -41.3318 C.3       4 UNK         0.1400 
     53 CB         -0.3656  -11.4712  -40.5283 C.3       4 UNK        -0.1800 
     54 N           0.6182  -12.4260  -42.5390 N.am      4 UNK        -0.5000 
     55 C           0.4392  -12.9942  -43.7373 C.2       3 UNK         0.5000 
     56 O          -0.3204  -13.9424  -43.9457 O.2       3 UNK        -0.5000 
     57 CA          1.2483  -12.3913  -44.9023 C.3       3 UNK         0.1400 
     58 CB          2.3939  -13.3227  -45.3218 C.3       3 UNK        -0.1800 
     59 N           0.4074  -12.1216  -46.0675 N.am      3 UNK        -0.5000 
     60 C          -0.5889  -11.2304  -46.1185 C.2       2 UNK         0.5000 
     61 O          -0.8760  -10.4826  -45.1825 O.2       2 UNK        -0.5000 
     62 CA         -1.4124  -11.1439  -47.4203 C.3       2 UNK         0.1400 
     63 CB         -0.8330  -10.0779  -48.3692 C.3       2 UNK        -0.1800 
     64 N          -1.6329  -12.4164  -48.1232 N.am      2 UNK        -0.5000 
     65 C          -0.7644  -13.2104  -48.7645 C.2       1 UNK         0.5000 
     66 O           0.4481  -13.0000  -48.7988 O.2       1 UNK        -0.5000 
     67 C           0.0714  -21.9646  -47.5395 C.2       11 UNK         0.5000 
     68 O          -0.2067  -22.6399  -48.5296 O.2       11 UNK        -0.5000 
     69 N          -0.6546  -20.9112  -47.1385 N.am      12 UNK        -0.5000 
     70 CA         -1.8864  -20.4512  -47.7754 C.3       12 UNK         0.1400 
     71 CB         -2.3211  -19.1096  -47.1690 C.3       12 UNK        -0.1800 
     72 C          -3.0230  -21.4806  -47.6828 C.2       12 UNK         0.5000 
     73 O          -3.7195  -21.6902  -48.6741 O.2       12 UNK        -0.5000 
     74 N          -3.1739  -22.1322  -46.5206 N.am      13 UNK        -0.5000 
     75 CA         -4.1258  -23.2224  -46.2954 C.3       13 UNK         0.1400 
     76 CB         -4.1243  -23.6315  -44.8155 C.3       13 UNK        -0.1800 
     77 C          -3.8617  -24.4325  -47.2093 C.2       13 UNK         0.5000 
     78 O          -4.8076  -24.9638  -47.7923 O.2       13 UNK        -0.5000 
     79 N          -2.5810  -24.7962  -47.3744 N.am      14 UNK        -0.5000 
     80 CA         -2.1196  -25.8167  -48.3203 C.3       14 UNK         0.1400 
     81 CB         -0.6341  -26.1162  -48.0698 C.3       14 UNK        -0.1800 
     82 C          -2.3684  -25.4343  -49.7951 C.2       14 UNK         0.5000 
     83 O          -2.6279  -26.3161  -50.6136 O.2       14 UNK        -0.5000 
     84 N          -2.3557  -24.1289  -50.0957 N.am      15 UNK        -0.5000 
     85 CA         -2.7204  -23.5282  -51.3818 C.3       15 UNK         0.1400 
     86 CB         -1.9097  -22.2340  -51.5685 C.3       15 UNK        -0.1800 
     87 C          -4.2440  -23.2895  -51.5173 C.2       15 UNK         0.5000 
     88 O          -4.6622  -22.3299  -52.1702 O.2       15 UNK        -0.5000 
     89 N          -5.0492  -24.1623  -50.8924 N.am      16 UNK        -0.5000 
     90 CA         -6.5147  -24.1969  -50.8910 C.3       16 UNK         0.1400 
     91 CB         -7.0456  -24.5223  -52.3037 C.3       16 UNK        -0.1800 
     92 C          -7.1474  -22.9269  -50.2877 C.2       16 UNK         0.5000 
     93 O          -8.0945  -22.3831  -50.8536 O.2       16 UNK        -0.5000 
     94 N          -6.5860  -22.4535  -49.1658 N.am      17 UNK        -0.5000 
     95 CA         -6.9245  -21.1953  -48.4820 C.3       17 UNK         0.1400 
     96 CB         -8.3401  -21.2575  -47.8723 C.3       17 UNK        -0.1800 
     97 C          -6.7002  -19.9682  -49.3924 C.2       17 UNK         0.5000 
     98 O          -7.5272  -19.0565  -49.4377 O.2       17 UNK        -0.5000 
     99 N          -5.5808  -20.0110  -50.1271 N.am      18 UNK        -0.5000 
    100 CA        -5.1247  -19.0729  -51.1536 C.3       18 UNK         0.1400 
    101 CB        -4.8266  -17.6868  -50.5454 C.3       18 UNK        -0.1800 
    102 C         -6.0293  -18.9959  -52.4050 C.2       18 UNK         0.5000 
    103 O         -5.8816  -18.0617  -53.1940 O.2       18 UNK        -0.5000 
    104 N         -6.9187  -19.9798  -52.6096 N.am      19 UNK        -0.5000 
    105 CA        -7.7184  -20.1067  -53.8324 C.3       19 UNK         0.1400 
    106 CB        -8.9443  -20.9924  -53.5689 C.3       19 UNK        -0.1800 
    107 C         -6.8981  -20.6646  -55.0112 C.2       19 UNK         0.5000 
    108 O         -7.2432  -20.4021  -56.1638 O.2       19 UNK        -0.5000 
    109 N         -5.8256  -21.4054  -54.7057 N.am      20 UNK        -0.5000 
    110 CA        -4.8775  -21.9722  -55.6588 C.3       20 UNK         0.1400 
    111 CB        -4.9808  -23.5078  -55.6115 C.3       20 UNK        -0.1800 
    112 C         -3.4697  -21.4555  -55.3178 C.2       20 UNK         0.5000 
    113 O         -2.5308  -22.2437  -55.1910 O.2       20 UNK        -0.5000 
    114 N         -3.3498  -20.1305  -55.1472 N.am      21 UNK        -0.5000 
    115 CA        -2.1511  -19.4135  -54.7001 C.3       21 UNK         0.1400 
    116 CB        -2.5596  -18.0308  -54.1597 C.3       21 UNK        -0.1800 
    117 C         -1.0069  -19.3335  -55.7378 C.2       21 UNK         0.5000 
    118 O         -0.4506  -18.2539  -55.9444 O.2       21 UNK        -0.5000 
    119 N         -0.6596  -20.4883  -56.3222 N.am      22 UNK        -0.5000 
    120 CA         0.5174  -20.7842  -57.1585 C.3       22 UNK         0.1400 
    121 C          0.9004  -19.6920  -58.2048 C.2       22 UNK         0.5000 
    122 N          2.1334  -19.2019  -58.2295 N.am      22 UNK        -0.7600 
    123 O          0.0829  -19.3278  -59.0471 O.2       22 UNK        -0.5000 
    124 C124        1.6950  -21.3864  -56.3322 C.3       23 UNK        -0.0398 
    125 S125        2.2557  -20.3813  -54.9096 S.3       23 UNK        -0.2404 
    126 C126        1.3951  -21.2377  -53.5524 C.3       23 UNK        -0.0205 
    127 H127       -5.8505  -14.6731  -50.0462 H         1 UNK         0.0600 
    128 H128       -4.8720  -14.0747  -51.3871 H         1 UNK         0.0600 
    129 H129       -5.5056  -12.9464  -50.1829 H         1 UNK         0.0600 
    130 H130       -2.6697  -14.1367  -51.1085 H         1 UNK         0.3000 
    131 H131       -0.7003  -14.5707  -50.3854 H         1 UNK         0.0600 
    132 H132       -1.3738  -15.5206  -47.5911 H         1 UNK         0.0800 
    133 H133       -2.0819  -16.4048  -48.8980 H         1 UNK         0.0800 
    134 H134       -1.1286  -18.3279  -49.8900 H         1 UNK         0.0800 
    135 H135       -0.4869  -17.2414  -51.0952 H         1 UNK         0.0800 
    136 H136       -0.1208  -19.2304  -52.4926 H         1 UNK         0.1150 
    137 H137        3.3094  -21.6551  -51.6674 H         1 UNK         0.1150 
    138 H138        1.9669  -18.8057  -48.7708 H         1 UNK         0.1150 
    139 H139        4.8030  -20.8360  -49.8218 H         1 UNK         0.0800 
    140 H140        4.1631  -19.8603  -48.5276 H         1 UNK         0.0800 
    141 H141        2.2882  -20.4811  -47.0760 H         1 UNK         0.0800 
    142 H142        3.1936  -21.5532  -46.0568 H         1 UNK         0.0800 
    143 H143        1.4876  -23.4168  -46.8645 H         1 UNK         0.0600 
    144 H144        1.4012  -21.6578  -44.6482 H         1 UNK         0.3000 
    145 H145       -1.3072  -23.2383  -42.9333 H         1 UNK         0.0600 
    146 H146        0.4435  -23.3327  -41.1831 H         1 UNK         0.0600 
    147 H147        0.7425  -24.5591  -42.4061 H         1 UNK         0.0600 
    148 H148        1.7052  -23.0865  -42.3873 H         1 UNK         0.0600 
    149 H149        0.3301  -21.0033  -42.2551 H         1 UNK         0.3000 
    150 H150       -1.6856  -18.4984  -43.8782 H         1 UNK         0.0600 
    151 H151       -2.7164  -18.9058  -41.6554 H         1 UNK         0.0600 
    152 H152       -1.5670  -17.5781  -41.5704 H         1 UNK         0.0600 
    153 H153       -1.1313  -19.1647  -40.9397 H         1 UNK         0.0600 
    154 H154        0.7085  -18.2150  -42.4093 H         1 UNK         0.3000 
    155 H155        3.0170  -18.7804  -45.0956 H         1 UNK         0.0600 
    156 H156        2.3255  -16.4407  -45.3194 H         1 UNK         0.0600 
    157 H157        2.1622  -16.2585  -43.5782 H         1 UNK         0.0600 
    158 H158        3.7517  -16.5302  -44.2979 H         1 UNK         0.0600 
    159 H159        3.2832  -18.1443  -42.2951 H         1 UNK         0.3000 
    160 H160        3.6462  -21.5197  -41.1796 H         1 UNK         0.0600 
    161 H161        5.6673  -19.2320  -41.4903 H         1 UNK         0.0600 
    162 H162        5.8753  -20.8681  -42.1036 H         1 UNK         0.0600 
    163 H163        5.7972  -20.5892  -40.3714 H         1 UNK         0.0600 
    164 H164        3.8203  -18.9843  -39.8531 H         1 UNK         0.3000 
    165 H165        0.3739  -18.6615  -39.0297 H         1 UNK         0.0600 
    166 H166        1.2920  -18.6200  -36.7340 H         1 UNK         0.0600 
    167 H167        1.2856  -20.2669  -37.3429 H         1 UNK         0.0600 
    168 H168        2.7942  -19.3632  -37.2843 H         1 UNK         0.0600 
    169 H169        2.5524  -17.0636  -38.2602 H         1 UNK         0.3000 
    170 H170        2.6378  -14.9381  -39.0465 H         1 UNK         0.0600 
    171 H171        3.9182  -15.5994  -41.7603 H         1 UNK         0.0600 
    172 H172        4.4607  -14.3549  -40.6360 H         1 UNK         0.0600 
    173 H173        4.5765  -16.0492  -40.1919 H         1 UNK         0.0600 
    174 H174        2.1667  -13.8620  -41.6439 H         1 UNK         0.3000 
    175 H175       -1.1213  -13.1547  -41.6150 H         1 UNK         0.0600 
    176 H176       -0.8901  -10.7233  -41.1235 H         1 UNK         0.0600 
    177 H177        0.5771  -11.0352  -40.1953 H         1 UNK         0.0600 
    178 H178       -0.9719  -11.6588  -39.6411 H         1 UNK         0.0600 
    179 H179        1.2642  -11.6539  -42.4544 H         1 UNK         0.3000 
    180 H180        1.6821  -11.4437  -44.5764 H         1 UNK         0.0600 
    181 H181        2.0122  -14.2298  -45.7894 H         1 UNK         0.0600 
    182 H182        3.0022  -13.6169  -44.4656 H         1 UNK         0.0600 
    183 H183        3.0539  -12.8341  -46.0387 H         1 UNK         0.0600 
    184 H184        0.5857  -12.6677  -46.9040 H         1 UNK         0.3000 
    185 H185       -2.4072  -10.8062  -47.1262 H         1 UNK         0.0600 
    186 H186       -0.7800   -9.1067  -47.8759 H         1 UNK         0.0600 
    187 H187        0.1754  -10.3292  -48.6983 H         1 UNK         0.0600 
    188 H188       -1.4560   -9.9582  -49.2556 H         1 UNK         0.0600 
    189 H189       -2.5907  -12.7535  -48.1008 H         1 UNK         0.3000 
    190 H190       -0.3193  -20.3592  -46.3514 H         1 UNK         0.3000 
    191 H191       -1.6677  -20.2971  -48.8324 H         1 UNK         0.0600 
    192 H192       -1.5246  -18.3700  -47.2356 H         1 UNK         0.0600 
    193 H193       -3.1892  -18.7078  -47.6917 H         1 UNK         0.0600 
    194 H194       -2.5907  -19.2091  -46.1181 H         1 UNK         0.0600 
    195 H195       -2.6104  -21.8470  -45.7242 H         1 UNK         0.3000 
    196 H196       -5.1218  -22.8447  -46.5293 H         1 UNK         0.0600 
    197 H197       -4.8650  -24.4094  -44.6266 H         1 UNK         0.0600 
    198 H198       -4.3701  -22.7860  -44.1728 H         1 UNK         0.0600 
    199 H199       -3.1564  -24.0197  -44.5014 H         1 UNK         0.0600 
    200 H200       -1.8677  -24.3272  -46.8248 H         1 UNK         0.3000 
    201 H201       -2.6846  -26.7295  -48.1206 H         1 UNK         0.0600 
    202 H202       -0.4648  -26.4389  -47.0424 H         1 UNK         0.0600 
    203 H203       -0.0079  -25.2434  -48.2523 H         1 UNK         0.0600 
    204 H204       -0.2818  -26.9141  -48.7246 H         1 UNK         0.0600 
    205 H205       -2.1070  -23.4767  -49.3618 H         1 UNK         0.3000 
    206 H206       -2.4361  -24.2125  -52.1833 H         1 UNK         0.0600 
    207 H207       -0.8428  -22.4091  -51.4282 H         1 UNK         0.0600 
    208 H208       -2.0425  -21.8394  -52.5734 H         1 UNK         0.0600 
    209 H209       -2.2159  -21.4572  -50.8694 H         1 UNK         0.0600 
    210 H210       -4.6039  -24.8892  -50.3493 H         1 UNK         0.3000 
    211 H211       -6.8005  -25.0188  -50.2332 H         1 UNK         0.0600 
    212 H212       -6.8324  -23.7220  -53.0125 H         1 UNK         0.0600 
    213 H213       -8.1263  -24.6680  -52.2919 H         1 UNK         0.0600 
    214 H214       -6.5998  -25.4382  -52.6910 H         1 UNK         0.0600 
    215 H215       -5.7673  -22.9361  -48.8185 H         1 UNK         0.3000 
    216 H216       -6.2213  -21.0865  -47.6564 H         1 UNK         0.0600 
    217 H217       -8.5387  -20.3773  -47.2600 H         1 UNK         0.0600 
    218 H218       -8.4539  -22.1311  -47.2307 H         1 UNK         0.0600 
    219 H219       -9.1135  -21.3011  -48.6395 H         1 UNK         0.0600 
    220 H220       -4.9706  -20.8084  -49.9733 H         1 UNK         0.3000 
    221 H221       -4.1772  -19.4811  -51.5080 H         1 UNK         0.0600 
    222 H222       -5.7362  -17.1919  -50.2053 H         1 UNK         0.0600 
    223 H223       -4.1498  -17.7656  -49.6957 H         1 UNK         0.0600 
    224 H224       -4.3509  -17.0291  -51.2735 H         1 UNK         0.0600 
    225 H225       -7.0089  -20.7195  -51.9237 H         1 UNK         0.3000 
    226 H226       -8.0796  -19.1159  -54.1161 H         1 UNK         0.0600 
    227 H227       -9.5103  -20.6415  -52.7057 H         1 UNK         0.0600 
    228 H228       -9.6186  -20.9852  -54.4261 H         1 UNK         0.0600 
    229 H229       -8.6616  -22.0296  -53.3892 H         1 UNK         0.0600 
    230 H230       -5.5915  -21.5582  -53.7277 H         1 UNK         0.3000 
    231 H231       -5.0999  -21.6434  -56.6757 H         1 UNK         0.0600 
    232 H232       -4.7240  -23.8982  -54.6260 H         1 UNK         0.0600 
    233 H233       -4.3077  -23.9687  -56.3352 H         1 UNK         0.0600 
    234 H234       -5.9912  -23.8410  -55.8489 H         1 UNK         0.0600 
    235 H235       -4.1731  -19.5629  -55.2889 H         1 UNK         0.3000 
    236 H236       -1.7451  -19.9707  -53.8571 H         1 UNK         0.0600 
    237 H237       -3.2429  -18.1241  -53.3192 H         1 UNK         0.0600 
    238 H238       -1.6957  -17.4728  -53.7963 H         1 UNK         0.0600 
    239 H239       -3.0460  -17.4266  -54.9261 H         1 UNK         0.0600 
    240 H240       -1.2207  -21.2968  -56.0665 H         1 UNK         0.3000 
    241 H241        0.1765  -21.6038  -57.7925 H         1 UNK         0.0600 
    242 H242        2.8096  -19.4622  -57.5283 H         1 UNK         0.3800 
    243 H243        2.3753  -18.5110  -58.9227 H         1 UNK         0.3800 
    244 H244        2.5528  -21.5907  -56.9745 H         1 UNK         0.0800 
    245 H245        1.3950  -22.3669  -55.9601 H         1 UNK         0.0800 
    246 H246        1.7723  -22.2588  -53.4762 H         1 UNK         0.0800 
    247 H247        0.3332  -21.3259  -53.7824 H         1 UNK         0.0800 
@<TRIPOS>BOND
     1    1    2 1    
     2    1  127 1    
     3    1  128 1    
     4    1  129 1    
     5    2    3 2    
     6    2    4 am   BACKBONE|DICT|INTERRES
     7    4    5 1    
     8    4  130 1    
     9    5    6 1    
    10    5   65 1    
    11    5  131 1    
    12    6    7 1    
    13    6  132 1    
    14    6  133 1    
    15    7    8 1    
    16    8    9 1    
    17    8  134 1    
    18    8  135 1    
    19    9   10 ar   
    20    9   14 ar   
    21   10   11 ar   
    22   10  136 1    
    23   11   12 ar   
    24   11  126 1    
    25   12   13 ar   
    26   12  137 1    
    27   13   14 ar   
    28   13   15 1    
    29   14  138 1    
    30   15   16 1    
    31   15  139 1    
    32   15  140 1    
    33   16   17 1    
    34   17   18 1    
    35   17  141 1    
    36   17  142 1    
    37   18   19 1    
    38   18   67 1    
    39   18  143 1    
    40   19   20 am   BACKBONE|DICT|INTERRES
    41   19  144 1    
    42   20   21 2    
    43   20   22 1    
    44   22   23 1    
    45   22   24 1    
    46   22  145 1    
    47   23  146 1    
    48   23  147 1    
    49   23  148 1    
    50   24   25 am   BACKBONE|DICT|INTERRES
    51   24  149 1    
    52   25   26 2    
    53   25   27 1    
    54   27   28 1    
    55   27   29 1    
    56   27  150 1    
    57   28  151 1    
    58   28  152 1    
    59   28  153 1    
    60   29   30 am   BACKBONE|DICT|INTERRES
    61   29  154 1    
    62   30   31 2    
    63   30   32 1    
    64   32   33 1    
    65   32   34 1    
    66   32  155 1    
    67   33  156 1    
    68   33  157 1    
    69   33  158 1    
    70   34   35 am   BACKBONE|DICT|INTERRES
    71   34  159 1    
    72   35   36 2    
    73   35   37 1    
    74   37   38 1    
    75   37   39 1    
    76   37  160 1    
    77   38  161 1    
    78   38  162 1    
    79   38  163 1    
    80   39   40 am   BACKBONE|DICT|INTERRES
    81   39  164 1    
    82   40   41 2    
    83   40   42 1    
    84   42   43 1    
    85   42   44 1    
    86   42  165 1    
    87   43  166 1    
    88   43  167 1    
    89   43  168 1    
    90   44   45 am   BACKBONE|DICT|INTERRES
    91   44  169 1    
    92   45   46 2    
    93   45   47 1    
    94   47   48 1    
    95   47   49 1    
    96   47  170 1    
    97   48  171 1    
    98   48  172 1    
    99   48  173 1    
   100   49   50 am   BACKBONE|DICT|INTERRES
   101   49  174 1    
   102   50   51 2    
   103   50   52 1    
   104   52   53 1    
   105   52   54 1    
   106   52  175 1    
   107   53  176 1    
   108   53  177 1    
   109   53  178 1    
   110   54   55 am   BACKBONE|DICT|INTERRES
   111   54  179 1    
   112   55   56 2    
   113   55   57 1    
   114   57   58 1    
   115   57   59 1    
   116   57  180 1    
   117   58  181 1    
   118   58  182 1    
   119   58  183 1    
   120   59   60 am   BACKBONE|DICT|INTERRES
   121   59  184 1    
   122   60   61 2    
   123   60   62 1    
   124   62   63 1    
   125   62   64 1    
   126   62  185 1    
   127   63  186 1    
   128   63  187 1    
   129   63  188 1    
   130   64   65 am   BACKBONE|DICT|INTERRES
   131   64  189 1    
   132   65   66 2    
   133   67   68 2    
   134   67   69 am   BACKBONE|DICT|INTERRES
   135   69   70 1    
   136   69  190 1    
   137   70   71 1    
   138   70   72 1    
   139   70  191 1    
   140   71  192 1    
   141   71  193 1    
   142   71  194 1    
   143   72   73 2    
   144   72   74 am   BACKBONE|DICT|INTERRES
   145   74   75 1    
   146   74  195 1    
   147   75   76 1    
   148   75   77 1    
   149   75  196 1    
   150   76  197 1    
   151   76  198 1    
   152   76  199 1    
   153   77   78 2    
   154   77   79 am   BACKBONE|DICT|INTERRES
   155   79   80 1    
   156   79  200 1    
   157   80   81 1    
   158   80   82 1    
   159   80  201 1    
   160   81  202 1    
   161   81  203 1    
   162   81  204 1    
   163   82   83 2    
   164   82   84 am   BACKBONE|DICT|INTERRES
   165   84   85 1    
   166   84  205 1    
   167   85   86 1    
   168   85   87 1    
   169   85  206 1    
   170   86  207 1    
   171   86  208 1    
   172   86  209 1    
   173   87   88 2    
   174   87   89 am   BACKBONE|DICT|INTERRES
   175   89   90 1    
   176   89  210 1    
   177   90   91 1    
   178   90   92 1    
   179   90  211 1    
   180   91  212 1    
   181   91  213 1    
   182   91  214 1    
   183   92   93 2    
   184   92   94 am   BACKBONE|DICT|INTERRES
   185   94   95 1    
   186   94  215 1    
   187   95   96 1    
   188   95   97 1    
   189   95  216 1    
   190   96  217 1    
   191   96  218 1    
   192   96  219 1    
   193   97   98 2    
   194   97   99 am   BACKBONE|DICT|INTERRES
   195   99  100 1    
   196   99  220 1    
   197  100  101 1    
   198  100  102 1    
   199  100  221 1    
   200  101  222 1    
   201  101  223 1    
   202  101  224 1    
   203  102  103 2    
   204  102  104 am   BACKBONE|DICT|INTERRES
   205  104  105 1    
   206  104  225 1    
   207  105  106 1    
   208  105  107 1    
   209  105  226 1    
   210  106  227 1    
   211  106  228 1    
   212  106  229 1    
   213  107  108 2    
   214  107  109 am   BACKBONE|DICT|INTERRES
   215  109  110 1    
   216  109  230 1    
   217  110  111 1    
   218  110  112 1    
   219  110  231 1    
   220  111  232 1    
   221  111  233 1    
   222  111  234 1    
   223  112  113 2    
   224  112  114 am   BACKBONE|DICT|INTERRES
   225  114  115 1    
   226  114  235 1    
   227  115  116 1    
   228  115  117 1    
   229  115  236 1    
   230  116  237 1    
   231  116  238 1    
   232  116  239 1    
   233  117  118 2    
   234  117  119 am   BACKBONE|DICT|INTERRES
   235  119  120 1    
   236  119  240 1    
   237  120  121 1    
   238  120  124 1    
   239  120  241 1    
   240  121  122 am   BACKBONE|DICT|INTERRES
   241  121  123 2    
   242  122  242 1    
   243  122  243 1    
   244  124  125 1    
   245  124  244 1    
   246  124  245 1    
   247  125  126 1    
   248  126  246 1    
   249  126  247 1    
@<TRIPOS>SUBSTRUCTURE
     1 UNK         1 GROUP             0       ****    0 ROOT    
