@<TRIPOS>MOLECULE
3R540
247   249    1
SMALL
USER_CHARGES


@<TRIPOS>ATOM
      1 CA          4.6454   -8.8244  -47.7207 C.3       0 UNK        -0.1800 
      2 C           4.1701  -10.1874  -48.2056 C.2       0 UNK         0.5000 
      3 O           3.4770  -10.2690  -49.2207 O.2       0 UNK        -0.5000 
      4 N           4.5328  -11.2537  -47.4786 N.am      1 UNK        -0.5000 
      5 CA          4.2004  -12.6670  -47.7147 C.3       1 UNK         0.1400 
      6 C6          4.6702  -13.1916  -49.1005 C.3       23 UNK        -0.0398 
      7 S7          4.7959  -15.0122  -49.1883 S.3       23 UNK        -0.2404 
      8 C8          3.1909  -15.4124  -49.9656 C.3       23 UNK        -0.0205 
      9 C9          2.8953  -16.9022  -50.1217 C.ar      23 UNK        -0.0193 
     10 C10         2.0679  -17.3011  -51.1741 C.ar      23 UNK        -0.1150 
     11 C11         1.7312  -18.6450  -51.3589 C.ar      23 UNK        -0.0193 
     12 C12         2.2672  -19.6023  -50.4952 C.ar      23 UNK        -0.1150 
     13 C13         3.0892  -19.2266  -49.4279 C.ar      23 UNK        -0.0193 
     14 C14         3.3858  -17.8723  -49.2361 C.ar      23 UNK        -0.1150 
     15 C15         3.6914  -20.2898  -48.5145 C.3       23 UNK        -0.0205 
     16 S16         2.5857  -20.7747  -47.1477 S.3       23 UNK        -0.2404 
     17 C17         1.2247  -21.5820  -48.0521 C.3       23 UNK        -0.0398 
     18 CA          0.3750  -22.5627  -47.2071 C.3       11 UNK         0.1400 
     19 N          -0.1425  -21.9838  -45.9613 N.am      11 UNK        -0.5000 
     20 C          -0.8291  -22.6692  -45.0330 C.2       10 UNK         0.5000 
     21 O          -1.0133  -23.8849  -45.0790 O.2       10 UNK        -0.5000 
     22 CA         -1.4804  -21.8602  -43.8993 C.3       10 UNK         0.1400 
     23 CB         -0.5266  -21.7108  -42.7047 C.3       10 UNK        -0.1800 
     24 N          -1.9287  -20.5483  -44.3677 N.am      10 UNK        -0.5000 
     25 C          -3.0090  -20.3620  -45.1419 C.2       9 UNK         0.5000 
     26 O          -3.7640  -21.2732  -45.4801 O.2       9 UNK        -0.5000 
     27 CA         -3.2717  -18.9338  -45.6583 C.3       9 UNK         0.1400 
     28 CB         -4.1360  -18.1471  -44.6623 C.3       9 UNK        -0.1800 
     29 N          -2.0398  -18.1905  -45.9154 N.am      9 UNK        -0.5000 
     30 C          -1.1657  -18.4834  -46.8884 C.2       8 UNK         0.5000 
     31 O          -1.3422  -19.3795  -47.7149 O.2       8 UNK        -0.5000 
     32 CA          0.1523  -17.6819  -46.8897 C.3       8 UNK         0.1400 
     33 CB          0.0302  -16.4287  -47.7649 C.3       8 UNK        -0.1800 
     34 N           0.5895  -17.2780  -45.5491 N.am      8 UNK        -0.5000 
     35 C           0.8737  -18.1144  -44.5423 C.2       7 UNK         0.5000 
     36 O           0.7576  -19.3365  -44.6268 O.2       7 UNK        -0.5000 
     37 CA          1.3306  -17.4610  -43.2220 C.3       7 UNK         0.1400 
     38 CB          1.7340  -18.4861  -42.1419 C.3       7 UNK        -0.1800 
     39 N           2.3945  -16.4732  -43.4302 N.am      7 UNK        -0.5000 
     40 C           3.6146  -16.6888  -43.9487 C.2       6 UNK         0.5000 
     41 O           4.0284  -17.7968  -44.2934 O.2       6 UNK        -0.5000 
     42 CA          4.5352  -15.4618  -44.0962 C.3       6 UNK         0.1400 
     43 CB          5.3134  -15.4873  -45.4236 C.3       6 UNK        -0.1800 
     44 N           3.7844  -14.2059  -43.9740 N.am      6 UNK        -0.5000 
     45 C           4.1415  -13.1798  -43.1899 C.2       5 UNK         0.5000 
     46 O           5.2138  -13.1198  -42.5851 O.2       5 UNK        -0.5000 
     47 CA          3.1109  -12.0464  -43.0041 C.3       5 UNK         0.1400 
     48 CB          3.1880  -11.0219  -44.1447 C.3       5 UNK        -0.1800 
     49 N           1.7280  -12.5153  -42.8447 N.am      5 UNK        -0.5000 
     50 C           1.3017  -13.2811  -41.8268 C.2       4 UNK         0.5000 
     51 O           2.0537  -13.7396  -40.9663 O.2       4 UNK        -0.5000 
     52 CA         -0.2069  -13.5876  -41.7163 C.3       4 UNK         0.1400 
     53 CB         -0.8050  -12.9018  -40.4769 C.3       4 UNK        -0.1800 
     54 N          -0.9999  -13.2018  -42.8831 N.am      4 UNK        -0.5000 
     55 C          -1.0080  -13.8449  -44.0557 C.2       3 UNK         0.5000 
     56 O          -0.2861  -14.8130  -44.3018 O.2       3 UNK        -0.5000 
     57 CA         -1.9811  -13.3343  -45.1407 C.3       3 UNK         0.1400 
     58 CB         -2.7682  -12.0612  -44.7525 C.3       3 UNK        -0.1800 
     59 N          -1.2971  -13.1485  -46.4209 N.am      3 UNK        -0.5000 
     60 C          -0.2399  -12.3591  -46.6525 C.2       2 UNK         0.5000 
     61 O           0.2447  -11.5830  -45.8237 O.2       2 UNK        -0.5000 
     62 CA          0.3553  -12.4503  -48.0695 C.3       2 UNK         0.1400 
     63 CB         -0.2918  -11.4052  -48.9921 C.3       2 UNK        -0.1800 
     64 N           1.8063  -12.2735  -48.1048 N.am      2 UNK        -0.5000 
     65 C           2.7157  -12.9976  -47.4392 C.2       1 UNK         0.5000 
     66 O           2.4331  -13.8972  -46.6459 O.2       1 UNK        -0.5000 
     67 C          -0.7722  -23.1253  -48.0723 C.2       11 UNK         0.5000 
     68 O          -0.6800  -24.2581  -48.5431 O.2       11 UNK        -0.5000 
     69 N          -1.8473  -22.3381  -48.2276 N.am      12 UNK        -0.5000 
     70 CA         -3.0620  -22.7322  -48.9418 C.3       12 UNK         0.1400 
     71 CB         -3.9685  -21.5084  -49.1248 C.3       12 UNK        -0.1800 
     72 C          -3.8147  -23.8874  -48.2543 C.2       12 UNK         0.5000 
     73 O          -4.2874  -24.7961  -48.9366 O.2       12 UNK        -0.5000 
     74 N          -3.8797  -23.8680  -46.9148 N.am      13 UNK        -0.5000 
     75 CA         -4.4506  -24.9473  -46.1050 C.3       13 UNK         0.1400 
     76 CB         -4.5362  -24.5147  -44.6343 C.3       13 UNK        -0.1800 
     77 C          -3.6691  -26.2673  -46.2476 C.2       13 UNK         0.5000 
     78 O          -4.2841  -27.3162  -46.4438 O.2       13 UNK        -0.5000 
     79 N          -2.3304  -26.1879  -46.2107 N.am      14 UNK        -0.5000 
     80 CA         -1.4175  -27.3112  -46.4467 C.3       14 UNK         0.1400 
     81 CB          0.0206  -26.8788  -46.1238 C.3       14 UNK        -0.1800 
     82 C          -1.5095  -27.8755  -47.8789 C.2       14 UNK         0.5000 
     83 O          -1.3401  -29.0798  -48.0705 O.2       14 UNK        -0.5000 
     84 N          -1.8268  -27.0065  -48.8473 N.am      15 UNK        -0.5000 
     85 CA         -2.1080  -27.3446  -50.2435 C.3       15 UNK         0.1400 
     86 CB         -1.8036  -26.1184  -51.1208 C.3       15 UNK        -0.1800 
     87 C          -3.5475  -27.8602  -50.4761 C.2       15 UNK         0.5000 
     88 O          -3.9396  -28.0293  -51.6306 O.2       15 UNK        -0.5000 
     89 N          -4.3108  -28.1012  -49.3984 N.am      16 UNK        -0.5000 
     90 CA         -5.6790  -28.6286  -49.3734 C.3       16 UNK         0.1400 
     91 CB         -5.7322  -30.0637  -49.9397 C.3       16 UNK        -0.1800 
     92 C          -6.7023  -27.6745  -50.0220 C.2       16 UNK         0.5000 
     93 O          -7.5771  -28.1148  -50.7698 O.2       16 UNK        -0.5000 
     94 N          -6.5639  -26.3789  -49.7083 N.am      17 UNK        -0.5000 
     95 CA         -7.3918  -25.2480  -50.1422 C.3       17 UNK         0.1400 
     96 CB         -8.8821  -25.4530  -49.7966 C.3       17 UNK        -0.1800 
     97 C          -7.1657  -24.8251  -51.6074 C.2       17 UNK         0.5000 
     98 O          -7.9251  -24.0024  -52.1234 O.2       17 UNK        -0.5000 
     99 N          -6.1023  -25.3388  -52.2406 N.am      18 UNK        -0.5000 
    100 CA        -5.5448  -24.7872  -53.4746 C.3       18 UNK         0.1400 
    101 CB        -4.6236  -25.8307  -54.1229 C.3       18 UNK        -0.1800 
    102 C         -4.7746  -23.4874  -53.1698 C.2       18 UNK         0.5000 
    103 O         -4.3609  -23.2781  -52.0284 O.2       18 UNK        -0.5000 
    104 N         -4.5898  -22.6471  -54.1971 N.am      19 UNK        -0.5000 
    105 CA        -3.9865  -21.3103  -54.1232 C.3       19 UNK         0.1400 
    106 CB        -2.5078  -21.3764  -53.6824 C.3       19 UNK        -0.1800 
    107 C         -4.8368  -20.3574  -53.2578 C.2       19 UNK         0.5000 
    108 O         -4.3592  -19.8004  -52.2678 O.2       19 UNK        -0.5000 
    109 N         -6.1031  -20.1811  -53.6605 N.am      20 UNK        -0.5000 
    110 CA        -7.0963  -19.3362  -52.9861 C.3       20 UNK         0.1400 
    111 CB        -8.4550  -19.5127  -53.6810 C.3       20 UNK        -0.1800 
    112 C         -6.7166  -17.8414  -52.9088 C.2       20 UNK         0.5000 
    113 O         -7.1972  -17.1421  -52.0167 O.2       20 UNK        -0.5000 
    114 N         -5.8481  -17.3850  -53.8230 N.am      21 UNK        -0.5000 
    115 CA        -5.2406  -16.0527  -53.8053 C.3       21 UNK         0.1400 
    116 CB        -4.5944  -15.7805  -55.1725 C.3       21 UNK        -0.1800 
    117 C         -4.2041  -15.8800  -52.6752 C.2       21 UNK         0.5000 
    118 O         -4.0232  -14.7625  -52.1896 O.2       21 UNK        -0.5000 
    119 N         -3.5503  -16.9793  -52.2787 N.am      22 UNK        -0.5000 
    120 CA        -2.6356  -17.0464  -51.1300 C.3       22 UNK         0.1400 
    121 C         -3.4239  -17.2199  -49.8055 C.2       22 UNK         0.5000 
    122 N         -4.4007  -18.1187  -49.7615 N.am      22 UNK        -0.7600 
    123 O         -3.1715  -16.5175  -48.8313 O.2       22 UNK        -0.5000 
    124 C124       -1.5729  -18.1654  -51.2935 C.3       23 UNK        -0.0398 
    125 S125       -0.5817  -17.9554  -52.8123 S.3       23 UNK        -0.2404 
    126 C126        0.8194  -19.0837  -52.5022 C.3       23 UNK        -0.0205 
    127 H127        5.2407   -8.9015  -46.8099 H         1 UNK         0.0600 
    128 H128        3.7892   -8.1812  -47.5140 H         1 UNK         0.0600 
    129 H129        5.2558   -8.3458  -48.4866 H         1 UNK         0.0600 
    130 H130        5.0956  -11.0921  -46.6547 H         1 UNK         0.3000 
    131 H131        4.7774  -13.1965  -46.9576 H         1 UNK         0.0600 
    132 H132        4.0322  -12.8223  -49.9054 H         1 UNK         0.0800 
    133 H133        5.6658  -12.8005  -49.3145 H         1 UNK         0.0800 
    134 H134        2.3784  -14.9707  -49.3885 H         1 UNK         0.0800 
    135 H135        3.1674  -14.9312  -50.9470 H         1 UNK         0.0800 
    136 H136        1.6764  -16.5558  -51.8520 H         1 UNK         0.1150 
    137 H137        2.0442  -20.6467  -50.6578 H         1 UNK         0.1150 
    138 H138        4.0114  -17.5809  -48.4044 H         1 UNK         0.1150 
    139 H139        3.9592  -21.1730  -49.0964 H         1 UNK         0.0800 
    140 H140        4.6248  -19.9205  -48.0871 H         1 UNK         0.0800 
    141 H141        1.6565  -22.1263  -48.8935 H         1 UNK         0.0800 
    142 H142        0.6046  -20.7976  -48.4851 H         1 UNK         0.0800 
    143 H143        1.0154  -23.4015  -46.9260 H         1 UNK         0.0600 
    144 H144        0.0239  -20.9953  -45.8130 H         1 UNK         0.3000 
    145 H145       -2.3560  -22.4111  -43.5510 H         1 UNK         0.0600 
    146 H146       -0.9586  -21.0815  -41.9265 H         1 UNK         0.0600 
    147 H147       -0.3184  -22.6837  -42.2580 H         1 UNK         0.0600 
    148 H148        0.4317  -21.2819  -42.9955 H         1 UNK         0.0600 
    149 H149       -1.2933  -19.7772  -44.2110 H         1 UNK         0.3000 
    150 H150       -3.8201  -19.0155  -46.5993 H         1 UNK         0.0600 
    151 H151       -5.0748  -18.6669  -44.4656 H         1 UNK         0.0600 
    152 H152       -4.3876  -17.1608  -45.0530 H         1 UNK         0.0600 
    153 H153       -3.6286  -18.0113  -43.7063 H         1 UNK         0.0600 
    154 H154       -1.8155  -17.4368  -45.2831 H         1 UNK         0.3000 
    155 H155        0.9298  -18.3189  -47.3139 H         1 UNK         0.0600 
    156 H156        0.9572  -15.8575  -47.7573 H         1 UNK         0.0600 
    157 H157       -0.7709  -15.7766  -47.4177 H         1 UNK         0.0600 
    158 H158       -0.1813  -16.6908  -48.8008 H         1 UNK         0.0600 
    159 H159        0.6314  -16.2811  -45.3625 H         1 UNK         0.3000 
    160 H160        0.4703  -16.9118  -42.8371 H         1 UNK         0.0600 
    161 H161        2.5372  -19.1418  -42.4811 H         1 UNK         0.0600 
    162 H162        0.8875  -19.1184  -41.8722 H         1 UNK         0.0600 
    163 H163        2.0679  -17.9885  -41.2312 H         1 UNK         0.0600 
    164 H164        2.1607  -15.5243  -43.1768 H         1 UNK         0.3000 
    165 H165        5.2599  -15.5416  -43.2819 H         1 UNK         0.0600 
    166 H166        4.6338  -15.5049  -46.2767 H         1 UNK         0.0600 
    167 H167        5.9682  -14.6199  -45.5148 H         1 UNK         0.0600 
    168 H168        5.9468  -16.3742  -45.4952 H         1 UNK         0.0600 
    169 H169        2.9319  -14.1403  -44.5213 H         1 UNK         0.3000 
    170 H170        3.3793  -11.5250  -42.0820 H         1 UNK         0.0600 
    171 H171        4.2099  -10.6665  -44.2867 H         1 UNK         0.0600 
    172 H172        2.8494  -11.4475  -45.0874 H         1 UNK         0.0600 
    173 H173        2.5663  -10.1504  -43.9342 H         1 UNK         0.0600 
    174 H174        1.0563  -12.1967  -43.5314 H         1 UNK         0.3000 
    175 H175       -0.3032  -14.6676  -41.5830 H         1 UNK         0.0600 
    176 H176       -0.7441  -11.8149  -40.5502 H         1 UNK         0.0600 
    177 H177       -1.8530  -13.1719  -40.3430 H         1 UNK         0.0600 
    178 H178       -0.2778  -13.1994  -39.5693 H         1 UNK         0.0600 
    179 H179       -1.6024  -12.3991  -42.7713 H         1 UNK         0.3000 
    180 H180       -2.7054  -14.1357  -45.2936 H         1 UNK         0.0600 
    181 H181       -2.1117  -11.2149  -44.5466 H         1 UNK         0.0600 
    182 H182       -3.3849  -12.2303  -43.8688 H         1 UNK         0.0600 
    183 H183       -3.4428  -11.7636  -45.5557 H         1 UNK         0.0600 
    184 H184       -1.6215  -13.7458  -47.1681 H         1 UNK         0.3000 
    185 H185        0.1448  -13.4445  -48.4705 H         1 UNK         0.0600 
    186 H186       -0.0755  -10.3886  -48.6580 H         1 UNK         0.0600 
    187 H187        0.0680  -11.5057  -50.0166 H         1 UNK         0.0600 
    188 H188       -1.3768  -11.5195  -49.0174 H         1 UNK         0.0600 
    189 H189        2.1583  -11.5146  -48.6818 H         1 UNK         0.3000 
    190 H190       -1.8254  -21.3985  -47.8451 H         1 UNK         0.3000 
    191 H191       -2.7609  -23.0784  -49.9319 H         1 UNK         0.0600 
    192 H192       -3.4528  -20.7308  -49.6875 H         1 UNK         0.0600 
    193 H193       -4.8683  -21.7688  -49.6839 H         1 UNK         0.0600 
    194 H194       -4.2806  -21.0847  -48.1704 H         1 UNK         0.0600 
    195 H195       -3.5337  -23.0539  -46.4181 H         1 UNK         0.3000 
    196 H196       -5.4675  -25.1234  -46.4623 H         1 UNK         0.0600 
    197 H197       -5.0339  -25.2774  -44.0343 H         1 UNK         0.0600 
    198 H198       -5.1063  -23.5918  -44.5254 H         1 UNK         0.0600 
    199 H199       -3.5492  -24.3540  -44.2023 H         1 UNK         0.0600 
    200 H200       -1.8980  -25.2915  -46.0002 H         1 UNK         0.3000 
    201 H201       -1.6935  -28.1134  -45.7593 H         1 UNK         0.0600 
    202 H202        0.1102  -26.5521  -45.0875 H         1 UNK         0.0600 
    203 H203        0.3467  -26.0571  -46.7618 H         1 UNK         0.0600 
    204 H204        0.7192  -27.7041  -46.2669 H         1 UNK         0.0600 
    205 H205       -1.8889  -26.0237  -48.6064 H         1 UNK         0.3000 
    206 H206       -1.4308  -28.1455  -50.5467 H         1 UNK         0.0600 
    207 H207       -0.8058  -25.7265  -50.9231 H         1 UNK         0.0600 
    208 H208       -1.8401  -26.3769  -52.1790 H         1 UNK         0.0600 
    209 H209       -2.5198  -25.3137  -50.9529 H         1 UNK         0.0600 
    210 H210       -3.9233  -27.8843  -48.4879 H         1 UNK         0.3000 
    211 H211       -5.9558  -28.6885  -48.3199 H         1 UNK         0.0600 
    212 H212       -5.5283  -30.0879  -51.0105 H         1 UNK         0.0600 
    213 H213       -6.7171  -30.5063  -49.7863 H         1 UNK         0.0600 
    214 H214       -5.0068  -30.7095  -49.4448 H         1 UNK         0.0600 
    215 H215       -5.7433  -26.1047  -49.1744 H         1 UNK         0.3000 
    216 H216       -7.0441  -24.4020  -49.5474 H         1 UNK         0.0600 
    217 H217       -9.0097  -25.7502  -48.7557 H         1 UNK         0.0600 
    218 H218       -9.3464  -26.2133  -50.4249 H         1 UNK         0.0600 
    219 H219       -9.4450  -24.5300  -49.9398 H         1 UNK         0.0600 
    220 H220       -5.5133  -25.9833  -51.7322 H         1 UNK         0.3000 
    221 H221       -6.3606  -24.5628  -54.1650 H         1 UNK         0.0600 
    222 H222       -3.7572  -26.0434  -53.4979 H         1 UNK         0.0600 
    223 H223       -5.1495  -26.7701  -54.2959 H         1 UNK         0.0600 
    224 H224       -4.2529  -25.4820  -55.0873 H         1 UNK         0.0600 
    225 H225       -4.9522  -22.9116  -55.1026 H         1 UNK         0.3000 
    226 H226       -4.0025  -20.9076  -55.1370 H         1 UNK         0.0600 
    227 H227       -1.9437  -22.0802  -54.2942 H         1 UNK         0.0600 
    228 H228       -2.0328  -20.4015  -53.7888 H         1 UNK         0.0600 
    229 H229       -2.3986  -21.6755  -52.6395 H         1 UNK         0.0600 
    230 H230       -6.4248  -20.6832  -54.4751 H         1 UNK         0.3000 
    231 H231       -7.1890  -19.6972  -51.9596 H         1 UNK         0.0600 
    232 H232       -9.2270  -18.9204  -53.1877 H         1 UNK         0.0600 
    233 H233       -8.7799  -20.5532  -53.6537 H         1 UNK         0.0600 
    234 H234       -8.4168  -19.1982  -54.7247 H         1 UNK         0.0600 
    235 H235       -5.5243  -18.0231  -54.5343 H         1 UNK         0.3000 
    236 H236       -6.0309  -15.3156  -53.6476 H         1 UNK         0.0600 
    237 H237       -5.3300  -15.8359  -55.9752 H         1 UNK         0.0600 
    238 H238       -4.1545  -14.7828  -55.2040 H         1 UNK         0.0600 
    239 H239       -3.8006  -16.4958  -55.3922 H         1 UNK         0.0600 
    240 H240       -3.8028  -17.8734  -52.6794 H         1 UNK         0.3000 
    241 H241       -2.0968  -16.0988  -51.0614 H         1 UNK         0.0600 
    242 H242       -4.5750  -18.7160  -50.5620 H         1 UNK         0.3800 
    243 H243       -4.9428  -18.2234  -48.9208 H         1 UNK         0.3800 
    244 H244       -2.0386  -19.1512  -51.3181 H         1 UNK         0.0800 
    245 H245       -0.9010  -18.1755  -50.4346 H         1 UNK         0.0800 
    246 H246        0.4219  -20.0826  -52.3148 H         1 UNK         0.0800 
    247 H247        1.4174  -19.1539  -53.4115 H         1 UNK         0.0800 
@<TRIPOS>BOND
     1    1    2 1    
     2    1  127 1    
     3    1  128 1    
     4    1  129 1    
     5    2    3 2    
     6    2    4 am   BACKBONE|DICT|INTERRES
     7    4    5 1    
     8    4  130 1    
     9    5    6 1    
    10    5   65 1    
    11    5  131 1    
    12    6    7 1    
    13    6  132 1    
    14    6  133 1    
    15    7    8 1    
    16    8    9 1    
    17    8  134 1    
    18    8  135 1    
    19    9   10 ar   
    20    9   14 ar   
    21   10   11 ar   
    22   10  136 1    
    23   11   12 ar   
    24   11  126 1    
    25   12   13 ar   
    26   12  137 1    
    27   13   14 ar   
    28   13   15 1    
    29   14  138 1    
    30   15   16 1    
    31   15  139 1    
    32   15  140 1    
    33   16   17 1    
    34   17   18 1    
    35   17  141 1    
    36   17  142 1    
    37   18   19 1    
    38   18   67 1    
    39   18  143 1    
    40   19   20 am   BACKBONE|DICT|INTERRES
    41   19  144 1    
    42   20   21 2    
    43   20   22 1    
    44   22   23 1    
    45   22   24 1    
    46   22  145 1    
    47   23  146 1    
    48   23  147 1    
    49   23  148 1    
    50   24   25 am   BACKBONE|DICT|INTERRES
    51   24  149 1    
    52   25   26 2    
    53   25   27 1    
    54   27   28 1    
    55   27   29 1    
    56   27  150 1    
    57   28  151 1    
    58   28  152 1    
    59   28  153 1    
    60   29   30 am   BACKBONE|DICT|INTERRES
    61   29  154 1    
    62   30   31 2    
    63   30   32 1    
    64   32   33 1    
    65   32   34 1    
    66   32  155 1    
    67   33  156 1    
    68   33  157 1    
    69   33  158 1    
    70   34   35 am   BACKBONE|DICT|INTERRES
    71   34  159 1    
    72   35   36 2    
    73   35   37 1    
    74   37   38 1    
    75   37   39 1    
    76   37  160 1    
    77   38  161 1    
    78   38  162 1    
    79   38  163 1    
    80   39   40 am   BACKBONE|DICT|INTERRES
    81   39  164 1    
    82   40   41 2    
    83   40   42 1    
    84   42   43 1    
    85   42   44 1    
    86   42  165 1    
    87   43  166 1    
    88   43  167 1    
    89   43  168 1    
    90   44   45 am   BACKBONE|DICT|INTERRES
    91   44  169 1    
    92   45   46 2    
    93   45   47 1    
    94   47   48 1    
    95   47   49 1    
    96   47  170 1    
    97   48  171 1    
    98   48  172 1    
    99   48  173 1    
   100   49   50 am   BACKBONE|DICT|INTERRES
   101   49  174 1    
   102   50   51 2    
   103   50   52 1    
   104   52   53 1    
   105   52   54 1    
   106   52  175 1    
   107   53  176 1    
   108   53  177 1    
   109   53  178 1    
   110   54   55 am   BACKBONE|DICT|INTERRES
   111   54  179 1    
   112   55   56 2    
   113   55   57 1    
   114   57   58 1    
   115   57   59 1    
   116   57  180 1    
   117   58  181 1    
   118   58  182 1    
   119   58  183 1    
   120   59   60 am   BACKBONE|DICT|INTERRES
   121   59  184 1    
   122   60   61 2    
   123   60   62 1    
   124   62   63 1    
   125   62   64 1    
   126   62  185 1    
   127   63  186 1    
   128   63  187 1    
   129   63  188 1    
   130   64   65 am   BACKBONE|DICT|INTERRES
   131   64  189 1    
   132   65   66 2    
   133   67   68 2    
   134   67   69 am   BACKBONE|DICT|INTERRES
   135   69   70 1    
   136   69  190 1    
   137   70   71 1    
   138   70   72 1    
   139   70  191 1    
   140   71  192 1    
   141   71  193 1    
   142   71  194 1    
   143   72   73 2    
   144   72   74 am   BACKBONE|DICT|INTERRES
   145   74   75 1    
   146   74  195 1    
   147   75   76 1    
   148   75   77 1    
   149   75  196 1    
   150   76  197 1    
   151   76  198 1    
   152   76  199 1    
   153   77   78 2    
   154   77   79 am   BACKBONE|DICT|INTERRES
   155   79   80 1    
   156   79  200 1    
   157   80   81 1    
   158   80   82 1    
   159   80  201 1    
   160   81  202 1    
   161   81  203 1    
   162   81  204 1    
   163   82   83 2    
   164   82   84 am   BACKBONE|DICT|INTERRES
   165   84   85 1    
   166   84  205 1    
   167   85   86 1    
   168   85   87 1    
   169   85  206 1    
   170   86  207 1    
   171   86  208 1    
   172   86  209 1    
   173   87   88 2    
   174   87   89 am   BACKBONE|DICT|INTERRES
   175   89   90 1    
   176   89  210 1    
   177   90   91 1    
   178   90   92 1    
   179   90  211 1    
   180   91  212 1    
   181   91  213 1    
   182   91  214 1    
   183   92   93 2    
   184   92   94 am   BACKBONE|DICT|INTERRES
   185   94   95 1    
   186   94  215 1    
   187   95   96 1    
   188   95   97 1    
   189   95  216 1    
   190   96  217 1    
   191   96  218 1    
   192   96  219 1    
   193   97   98 2    
   194   97   99 am   BACKBONE|DICT|INTERRES
   195   99  100 1    
   196   99  220 1    
   197  100  101 1    
   198  100  102 1    
   199  100  221 1    
   200  101  222 1    
   201  101  223 1    
   202  101  224 1    
   203  102  103 2    
   204  102  104 am   BACKBONE|DICT|INTERRES
   205  104  105 1    
   206  104  225 1    
   207  105  106 1    
   208  105  107 1    
   209  105  226 1    
   210  106  227 1    
   211  106  228 1    
   212  106  229 1    
   213  107  108 2    
   214  107  109 am   BACKBONE|DICT|INTERRES
   215  109  110 1    
   216  109  230 1    
   217  110  111 1    
   218  110  112 1    
   219  110  231 1    
   220  111  232 1    
   221  111  233 1    
   222  111  234 1    
   223  112  113 2    
   224  112  114 am   BACKBONE|DICT|INTERRES
   225  114  115 1    
   226  114  235 1    
   227  115  116 1    
   228  115  117 1    
   229  115  236 1    
   230  116  237 1    
   231  116  238 1    
   232  116  239 1    
   233  117  118 2    
   234  117  119 am   BACKBONE|DICT|INTERRES
   235  119  120 1    
   236  119  240 1    
   237  120  121 1    
   238  120  124 1    
   239  120  241 1    
   240  121  122 am   BACKBONE|DICT|INTERRES
   241  121  123 2    
   242  122  242 1    
   243  122  243 1    
   244  124  125 1    
   245  124  244 1    
   246  124  245 1    
   247  125  126 1    
   248  126  246 1    
   249  126  247 1    
@<TRIPOS>SUBSTRUCTURE
     1 UNK         1 GROUP             0       ****    0 ROOT    
