@<TRIPOS>MOLECULE
3R540
247   249    1
SMALL
USER_CHARGES


@<TRIPOS>ATOM
      1 CA         -2.8953  -12.7474  -44.1304 C.3       0 UNK        -0.1800 
      2 C          -2.3016  -12.0724  -45.3584 C.2       0 UNK         0.5000 
      3 O          -2.7107  -10.9615  -45.6981 O.2       0 UNK        -0.5000 
      4 N          -1.3595  -12.7413  -46.0347 N.am      1 UNK        -0.5000 
      5 CA         -0.6835  -12.2334  -47.2310 C.3       1 UNK         0.1400 
      6 C6         -0.2571  -13.3824  -48.1799 C.3       23 UNK        -0.0398 
      7 S7          1.0857  -14.4554  -47.5607 S.3       23 UNK        -0.2404 
      8 C8          1.7190  -15.1628  -49.1126 C.3       23 UNK        -0.0205 
      9 C9          0.7509  -16.1685  -49.7172 C.ar      23 UNK        -0.0193 
     10 C10        -0.2734  -15.7409  -50.5672 C.ar      23 UNK        -0.1150 
     11 C11        -1.1594  -16.6603  -51.1347 C.ar      23 UNK        -0.0193 
     12 C12        -1.0049  -18.0207  -50.8574 C.ar      23 UNK        -0.1150 
     13 C13         0.0321  -18.4641  -50.0327 C.ar      23 UNK        -0.0193 
     14 C14         0.8964  -17.5327  -49.4503 C.ar      23 UNK        -0.1150 
     15 C15         0.2429  -19.9503  -49.8036 C.3       23 UNK        -0.0205 
     16 S16        -0.7680  -20.5654  -48.4303 S.3       23 UNK        -0.2404 
     17 C17        -0.1759  -22.2848  -48.3689 C.3       23 UNK        -0.0398 
     18 CA         -0.6573  -23.0962  -47.1449 C.3       11 UNK         0.1400 
     19 N          -0.2053  -22.5553  -45.8585 N.am      11 UNK        -0.5000 
     20 C          -0.1718  -23.2912  -44.7373 C.2       10 UNK         0.5000 
     21 O          -0.5218  -24.4708  -44.6871 O.2       10 UNK        -0.5000 
     22 CA          0.2939  -22.5973  -43.4482 C.3       10 UNK         0.1400 
     23 CB          1.8150  -22.3832  -43.4616 C.3       10 UNK        -0.1800 
     24 N          -0.3923  -21.3306  -43.1996 N.am      10 UNK        -0.5000 
     25 C          -1.7141  -21.2054  -43.0113 C.2       9 UNK         0.5000 
     26 O          -2.5021  -22.1495  -43.0390 O.2       9 UNK        -0.5000 
     27 CA         -2.2580  -19.7850  -42.7827 C.3       9 UNK         0.1400 
     28 CB         -2.0608  -19.3563  -41.3217 C.3       9 UNK        -0.1800 
     29 N          -1.6573  -18.7968  -43.6776 N.am      9 UNK        -0.5000 
     30 C          -1.7830  -18.8153  -45.0127 C.2       8 UNK         0.5000 
     31 O          -2.4464  -19.6534  -45.6226 O.2       8 UNK        -0.5000 
     32 CA         -1.0173  -17.7325  -45.7942 C.3       8 UNK         0.1400 
     33 CB         -1.7783  -16.3997  -45.7554 C.3       8 UNK        -0.1800 
     34 N           0.3424  -17.5365  -45.2913 N.am      8 UNK        -0.5000 
     35 C           1.3035  -18.4715  -45.3198 C.2       7 UNK         0.5000 
     36 O           1.1707  -19.5928  -45.8117 O.2       7 UNK        -0.5000 
     37 CA          2.6202  -18.1068  -44.6160 C.3       7 UNK         0.1400 
     38 CB          3.4666  -17.1560  -45.4787 C.3       7 UNK        -0.1800 
     39 N           2.3834  -17.5171  -43.2962 N.am      7 UNK        -0.5000 
     40 C           1.8811  -18.1928  -42.2509 C.2       6 UNK         0.5000 
     41 O           1.5802  -19.3841  -42.2908 O.2       6 UNK        -0.5000 
     42 CA          1.6478  -17.4099  -40.9458 C.3       6 UNK         0.1400 
     43 CB          2.9176  -17.4181  -40.0819 C.3       6 UNK        -0.1800 
     44 N           1.2289  -16.0281  -41.1687 N.am      6 UNK        -0.5000 
     45 C           0.0871  -15.6528  -41.7628 C.2       5 UNK         0.5000 
     46 O          -0.7701  -16.4380  -42.1664 O.2       5 UNK        -0.5000 
     47 CA         -0.0837  -14.1417  -42.0060 C.3       5 UNK         0.1400 
     48 CB         -0.7346  -13.4583  -40.7952 C.3       5 UNK        -0.1800 
     49 N           1.1870  -13.4837  -42.3239 N.am      5 UNK        -0.5000 
     50 C           1.8957  -13.7562  -43.4262 C.2       4 UNK         0.5000 
     51 O           1.5064  -14.5258  -44.3077 O.2       4 UNK        -0.5000 
     52 CA          3.3031  -13.1559  -43.5093 C.3       4 UNK         0.1400 
     53 CB          4.2965  -14.0896  -42.7845 C.3       4 UNK        -0.1800 
     54 N           3.6465  -13.0027  -44.9185 N.am      4 UNK        -0.5000 
     55 C           4.7709  -12.4815  -45.4230 C.2       3 UNK         0.5000 
     56 O           5.7153  -12.0752  -44.7449 O.2       3 UNK        -0.5000 
     57 CA          4.8256  -12.3537  -46.9554 C.3       3 UNK         0.1400 
     58 CB          4.9098  -13.7342  -47.6266 C.3       3 UNK        -0.1800 
     59 N           3.6699  -11.6149  -47.4676 N.am      3 UNK        -0.5000 
     60 C           3.4812  -10.2985  -47.2850 C.2       2 UNK         0.5000 
     61 O           4.3051   -9.5609  -46.7424 O.2       2 UNK        -0.5000 
     62 CA          2.1578   -9.6892  -47.7908 C.3       2 UNK         0.1400 
     63 CB          2.3668   -9.0150  -49.1558 C.3       2 UNK        -0.1800 
     64 N           1.0522  -10.6439  -47.9003 N.am      2 UNK        -0.5000 
     65 C           0.4790  -11.2815  -46.8701 C.2       1 UNK         0.5000 
     66 O           0.8441  -11.1489  -45.6987 O.2       1 UNK        -0.5000 
     67 C          -2.1730  -23.3786  -47.1700 C.2       11 UNK         0.5000 
     68 O          -2.5829  -24.3424  -47.8127 O.2       11 UNK        -0.5000 
     69 N          -2.9737  -22.5820  -46.4457 N.am      12 UNK        -0.5000 
     70 CA         -4.4039  -22.8262  -46.2580 C.3       12 UNK         0.1400 
     71 CB         -5.0676  -21.5998  -45.6158 C.3       12 UNK        -0.1800 
     72 C          -4.6746  -24.0988  -45.4332 C.2       12 UNK         0.5000 
     73 O          -5.5116  -24.9086  -45.8319 O.2       12 UNK        -0.5000 
     74 N          -3.9391  -24.2774  -44.3255 N.am      13 UNK        -0.5000 
     75 CA         -4.0139  -25.4526  -43.4521 C.3       13 UNK         0.1400 
     76 CB         -3.1986  -25.1988  -42.1753 C.3       13 UNK        -0.1800 
     77 C          -3.5478  -26.7475  -44.1428 C.2       13 UNK         0.5000 
     78 O          -4.1531  -27.7998  -43.9370 O.2       13 UNK        -0.5000 
     79 N          -2.5061  -26.6399  -44.9777 N.am      14 UNK        -0.5000 
     80 CA         -1.9824  -27.7231  -45.8134 C.3       14 UNK         0.1400 
     81 CB         -0.5380  -27.3779  -46.2110 C.3       14 UNK        -0.1800 
     82 C          -2.8307  -27.9980  -47.0736 C.2       14 UNK         0.5000 
     83 O          -2.5078  -28.9239  -47.8198 O.2       14 UNK        -0.5000 
     84 N          -3.8594  -27.1736  -47.3198 N.am      15 UNK        -0.5000 
     85 CA         -4.7294  -27.0907  -48.4984 C.3       15 UNK         0.1400 
     86 CB         -5.4656  -28.4141  -48.7786 C.3       15 UNK        -0.1800 
     87 C          -4.0056  -26.5618  -49.7498 C.2       15 UNK         0.5000 
     88 O          -4.5071  -25.6288  -50.3787 O.2       15 UNK        -0.5000 
     89 N          -2.8367  -27.1380  -50.0653 N.am      16 UNK        -0.5000 
     90 CA         -1.9068  -26.7553  -51.1298 C.3       16 UNK         0.1400 
     91 CB         -1.1544  -25.4717  -50.7197 C.3       16 UNK        -0.1800 
     92 C          -2.5999  -26.6859  -52.5080 C.2       16 UNK         0.5000 
     93 O          -3.1413  -27.7004  -52.9512 O.2       16 UNK        -0.5000 
     94 N          -2.6013  -25.5096  -53.1464 N.am      17 UNK        -0.5000 
     95 CA         -3.2904  -25.2351  -54.4072 C.3       17 UNK         0.1400 
     96 CB         -2.2823  -24.6157  -55.3928 C.3       17 UNK        -0.1800 
     97 C          -4.5051  -24.3264  -54.1393 C.2       17 UNK         0.5000 
     98 O          -4.6677  -23.3051  -54.8089 O.2       17 UNK        -0.5000 
     99 N          -5.3037  -24.6979  -53.1237 N.am      18 UNK        -0.5000 
    100 CA        -6.3632  -23.9052  -52.4846 C.3       18 UNK         0.1400 
    101 CB        -7.5300  -23.6317  -53.4568 C.3       18 UNK        -0.1800 
    102 C         -5.7546  -22.6301  -51.8701 C.2       18 UNK         0.5000 
    103 O         -6.1131  -21.5172  -52.2579 O.2       18 UNK        -0.5000 
    104 N         -4.7633  -22.8512  -50.9921 N.am      19 UNK        -0.5000 
    105 CA        -3.6747  -21.9387  -50.6367 C.3       19 UNK         0.1400 
    106 CB        -4.1789  -20.6286  -49.9894 C.3       19 UNK        -0.1800 
    107 C         -2.7845  -21.7488  -51.8790 C.2       19 UNK         0.5000 
    108 O         -1.9614  -22.6207  -52.1629 O.2       19 UNK        -0.5000 
    109 N         -3.0180  -20.6775  -52.6391 N.am      20 UNK        -0.5000 
    110 CA        -2.4995  -20.4781  -53.9858 C.3       20 UNK         0.1400 
    111 CB        -1.0868  -19.8700  -53.9452 C.3       20 UNK        -0.1800 
    112 C         -3.4794  -19.5703  -54.7374 C.2       20 UNK         0.5000 
    113 O         -4.2283  -18.8176  -54.1062 O.2       20 UNK        -0.5000 
    114 N         -3.4400  -19.6304  -56.0732 N.am      21 UNK        -0.5000 
    115 CA        -4.2821  -18.8538  -56.9865 C.3       21 UNK         0.1400 
    116 CB        -4.3530  -19.5927  -58.3354 C.3       21 UNK        -0.1800 
    117 C         -3.8031  -17.3916  -57.1296 C.2       21 UNK         0.5000 
    118 O         -3.5164  -16.9346  -58.2381 O.2       21 UNK        -0.5000 
    119 N         -3.7015  -16.6925  -55.9953 N.am      22 UNK        -0.5000 
    120 CA        -3.3358  -15.2742  -55.8900 C.3       22 UNK         0.1400 
    121 C         -4.4086  -14.3346  -56.5090 C.2       22 UNK         0.5000 
    122 N         -3.9967  -13.2420  -57.1375 N.am      22 UNK        -0.7600 
    123 O         -5.6105  -14.5636  -56.3881 O.2       22 UNK        -0.5000 
    124 C124       -3.0532  -14.8733  -54.4210 C.3       23 UNK        -0.0398 
    125 S125       -1.6355  -15.7737  -53.7054 S.3       23 UNK        -0.2404 
    126 C126       -2.2735  -16.1762  -52.0497 C.3       23 UNK        -0.0205 
    127 H127       -2.4806  -12.3091  -43.2229 H         1 UNK         0.0600 
    128 H128       -2.6993  -13.8189  -44.1249 H         1 UNK         0.0600 
    129 H129       -3.9763  -12.6087  -44.1112 H         1 UNK         0.0600 
    130 H130       -1.0011  -13.6153  -45.6778 H         1 UNK         0.3000 
    131 H131       -1.4049  -11.6309  -47.7877 H         1 UNK         0.0600 
    132 H132        0.0437  -12.9678  -49.1427 H         1 UNK         0.0800 
    133 H133       -1.1215  -14.0125  -48.3934 H         1 UNK         0.0800 
    134 H134        1.9341  -14.3660  -49.8259 H         1 UNK         0.0800 
    135 H135        2.6733  -15.6505  -48.9094 H         1 UNK         0.0800 
    136 H136       -0.3821  -14.6904  -50.7951 H         1 UNK         0.1150 
    137 H137       -1.6820  -18.7382  -51.2946 H         1 UNK         0.1150 
    138 H138        1.6919  -17.8719  -48.8015 H         1 UNK         0.1150 
    139 H139       -0.0024  -20.5052  -50.7107 H         1 UNK         0.0800 
    140 H140        1.2956  -20.1472  -49.5955 H         1 UNK         0.0800 
    141 H141        0.9149  -22.2696  -48.3740 H         1 UNK         0.0800 
    142 H142       -0.4693  -22.7846  -49.2940 H         1 UNK         0.0800 
    143 H143       -0.1815  -24.0741  -47.2477 H         1 UNK         0.0600 
    144 H144        0.0770  -21.5812  -45.8375 H         1 UNK         0.3000 
    145 H145        0.0585  -23.2644  -42.6164 H         1 UNK         0.0600 
    146 H146        2.1703  -22.0320  -42.4929 H         1 UNK         0.0600 
    147 H147        2.3403  -23.3139  -43.6798 H         1 UNK         0.0600 
    148 H148        2.1139  -21.6518  -44.2130 H         1 UNK         0.0600 
    149 H149        0.1975  -20.5078  -43.1198 H         1 UNK         0.3000 
    150 H150       -3.3306  -19.8050  -42.9859 H         1 UNK         0.0600 
    151 H151       -2.5297  -20.0670  -40.6401 H         1 UNK         0.0600 
    152 H152       -2.5085  -18.3806  -41.1325 H         1 UNK         0.0600 
    153 H153       -1.0047  -19.2981  -41.0594 H         1 UNK         0.0600 
    154 H154       -1.1391  -18.0405  -43.2407 H         1 UNK         0.3000 
    155 H155       -0.9482  -18.0531  -46.8352 H         1 UNK         0.0600 
    156 H156       -1.8014  -15.9799  -44.7498 H         1 UNK         0.0600 
    157 H157       -2.8102  -16.5282  -46.0846 H         1 UNK         0.0600 
    158 H158       -1.3195  -15.6693  -46.4184 H         1 UNK         0.0600 
    159 H159        0.5535  -16.6397  -44.8727 H         1 UNK         0.3000 
    160 H160        3.1889  -19.0287  -44.4761 H         1 UNK         0.0600 
    161 H161        2.9605  -16.2086  -45.6619 H         1 UNK         0.0600 
    162 H162        3.6785  -17.6013  -46.4515 H         1 UNK         0.0600 
    163 H163        4.4242  -16.9391  -45.0059 H         1 UNK         0.0600 
    164 H164        2.5452  -16.5256  -43.2053 H         1 UNK         0.3000 
    165 H165        0.8548  -17.9145  -40.3909 H         1 UNK         0.0600 
    166 H166        2.7436  -16.9366  -39.1194 H         1 UNK         0.0600 
    167 H167        3.2442  -18.4389  -39.8785 H         1 UNK         0.0600 
    168 H168        3.7432  -16.9010  -40.5727 H         1 UNK         0.0600 
    169 H169        1.8688  -15.3083  -40.8689 H         1 UNK         0.3000 
    170 H170       -0.7435  -14.0261  -42.8651 H         1 UNK         0.0600 
    171 H171       -1.6948  -13.9187  -40.5584 H         1 UNK         0.0600 
    172 H172       -0.1075  -13.5287  -39.9057 H         1 UNK         0.0600 
    173 H173       -0.9217  -12.4026  -40.9923 H         1 UNK         0.0600 
    174 H174        1.5585  -12.8456  -41.6348 H         1 UNK         0.3000 
    175 H175        3.3005  -12.1708  -43.0392 H         1 UNK         0.0600 
    176 H176        4.3910  -15.0486  -43.2944 H         1 UNK         0.0600 
    177 H177        5.2908  -13.6498  -42.7172 H         1 UNK         0.0600 
    178 H178        3.9760  -14.2913  -41.7618 H         1 UNK         0.0600 
    179 H179        2.9111  -13.3052  -45.5463 H         1 UNK         0.3000 
    180 H180        5.7292  -11.7992  -47.2180 H         1 UNK         0.0600 
    181 H181        4.0672  -14.3704  -47.3588 H         1 UNK         0.0600 
    182 H182        5.8173  -14.2564  -47.3211 H         1 UNK         0.0600 
    183 H183        4.9350  -13.6468  -48.7129 H         1 UNK         0.0600 
    184 H184        2.9407  -12.1503  -47.9140 H         1 UNK         0.3000 
    185 H185        1.8620   -8.9205  -47.0737 H         1 UNK         0.0600 
    186 H186        3.1639   -8.2718  -49.1074 H         1 UNK         0.0600 
    187 H187        2.6401   -9.7391  -49.9244 H         1 UNK         0.0600 
    188 H188        1.4646   -8.4987  -49.4845 H         1 UNK         0.0600 
    189 H189        0.6949  -10.7957  -48.8322 H         1 UNK         0.3000 
    190 H190       -2.5813  -21.7697  -45.9821 H         1 UNK         0.3000 
    191 H191       -4.8508  -22.9694  -47.2445 H         1 UNK         0.0600 
    192 H192       -4.9552  -20.7180  -46.2470 H         1 UNK         0.0600 
    193 H193       -6.1363  -21.7633  -45.4729 H         1 UNK         0.0600 
    194 H194       -4.6361  -21.3703  -44.6413 H         1 UNK         0.0600 
    195 H195       -3.2972  -23.5429  -44.0360 H         1 UNK         0.3000 
    196 H196       -5.0587  -25.5889  -43.1657 H         1 UNK         0.0600 
    197 H197       -3.2413  -26.0582  -41.5051 H         1 UNK         0.0600 
    198 H198       -3.5845  -24.3395  -41.6266 H         1 UNK         0.0600 
    199 H199       -2.1487  -25.0075  -42.4002 H         1 UNK         0.0600 
    200 H200       -2.0199  -25.7499  -45.0365 H         1 UNK         0.3000 
    201 H201       -1.9642  -28.6425  -45.2249 H         1 UNK         0.0600 
    202 H202       -0.0802  -28.1889  -46.7786 H         1 UNK         0.0600 
    203 H203        0.0840  -27.2070  -45.3322 H         1 UNK         0.0600 
    204 H204       -0.4987  -26.4809  -46.8299 H         1 UNK         0.0600 
    205 H205       -4.0019  -26.4225  -46.6570 H         1 UNK         0.3000 
    206 H206       -5.4871  -26.3485  -48.2431 H         1 UNK         0.0600 
    207 H207       -6.0038  -28.7594  -47.8959 H         1 UNK         0.0600 
    208 H208       -6.1976  -28.2854  -49.5768 H         1 UNK         0.0600 
    209 H209       -4.7860  -29.2074  -49.0901 H         1 UNK         0.0600 
    210 H210       -2.5431  -27.9109  -49.4757 H         1 UNK         0.3000 
    211 H211       -1.1714  -27.5575  -51.2036 H         1 UNK         0.0600 
    212 H212       -1.8397  -24.6457  -50.5330 H         1 UNK         0.0600 
    213 H213       -0.4427  -25.1580  -51.4842 H         1 UNK         0.0600 
    214 H214       -0.5887  -25.6328  -49.8019 H         1 UNK         0.0600 
    215 H215       -2.1885  -24.7016  -52.6916 H         1 UNK         0.3000 
    216 H216       -3.6740  -26.1540  -54.8546 H         1 UNK         0.0600 
    217 H217       -2.7535  -24.3884  -56.3498 H         1 UNK         0.0600 
    218 H218       -1.4597  -25.3023  -55.5928 H         1 UNK         0.0600 
    219 H219       -1.8556  -23.6912  -55.0034 H         1 UNK         0.0600 
    220 H220       -5.0310  -25.5229  -52.6045 H         1 UNK         0.3000 
    221 H221       -6.7533  -24.5024  -51.6590 H         1 UNK         0.0600 
    222 H222       -7.2318  -22.9963  -54.2910 H         1 UNK         0.0600 
    223 H223       -7.9250  -24.5606  -53.8680 H         1 UNK         0.0600 
    224 H224       -8.3495  -23.1281  -52.9432 H         1 UNK         0.0600 
    225 H225       -4.5852  -23.8260  -50.7543 H         1 UNK         0.3000 
    226 H226       -3.0671  -22.4565  -49.8945 H         1 UNK         0.0600 
    227 H227       -4.7341  -20.8391  -49.0754 H         1 UNK         0.0600 
    228 H228       -3.3435  -19.9851  -49.7149 H         1 UNK         0.0600 
    229 H229       -4.8267  -20.0459  -50.6429 H         1 UNK         0.0600 
    230 H230       -3.7796  -20.0536  -52.3987 H         1 UNK         0.3000 
    231 H231       -2.4678  -21.4410  -54.4987 H         1 UNK         0.0600 
    232 H232       -1.0975  -18.8490  -53.5653 H         1 UNK         0.0600 
    233 H233       -0.6518  -19.8358  -54.9443 H         1 UNK         0.0600 
    234 H234       -0.4146  -20.4571  -53.3195 H         1 UNK         0.0600 
    235 H235       -2.7708  -20.2468  -56.5109 H         1 UNK         0.3000 
    236 H236       -5.2950  -18.8174  -56.5795 H         1 UNK         0.0600 
    237 H237       -4.7486  -20.6012  -58.2118 H         1 UNK         0.0600 
    238 H238       -5.0104  -19.0724  -59.0332 H         1 UNK         0.0600 
    239 H239       -3.3713  -19.6722  -58.8040 H         1 UNK         0.0600 
    240 H240       -3.9447  -17.1638  -55.1302 H         1 UNK         0.3000 
    241 H241       -2.4131  -15.1401  -56.4583 H         1 UNK         0.0600 
    242 H242       -4.6820  -12.6155  -57.5312 H         1 UNK         0.3800 
    243 H243       -3.0163  -13.0293  -57.2435 H         1 UNK         0.3800 
    244 H244       -2.8279  -13.8076  -54.3511 H         1 UNK         0.0800 
    245 H245       -3.9426  -15.0371  -53.8098 H         1 UNK         0.0800 
    246 H246       -2.7390  -15.2924  -51.6105 H         1 UNK         0.0800 
    247 H247       -3.0568  -16.9311  -52.1384 H         1 UNK         0.0800 
@<TRIPOS>BOND
     1    1    2 1    
     2    1  127 1    
     3    1  128 1    
     4    1  129 1    
     5    2    3 2    
     6    2    4 am   BACKBONE|DICT|INTERRES
     7    4    5 1    
     8    4  130 1    
     9    5    6 1    
    10    5   65 1    
    11    5  131 1    
    12    6    7 1    
    13    6  132 1    
    14    6  133 1    
    15    7    8 1    
    16    8    9 1    
    17    8  134 1    
    18    8  135 1    
    19    9   10 ar   
    20    9   14 ar   
    21   10   11 ar   
    22   10  136 1    
    23   11   12 ar   
    24   11  126 1    
    25   12   13 ar   
    26   12  137 1    
    27   13   14 ar   
    28   13   15 1    
    29   14  138 1    
    30   15   16 1    
    31   15  139 1    
    32   15  140 1    
    33   16   17 1    
    34   17   18 1    
    35   17  141 1    
    36   17  142 1    
    37   18   19 1    
    38   18   67 1    
    39   18  143 1    
    40   19   20 am   BACKBONE|DICT|INTERRES
    41   19  144 1    
    42   20   21 2    
    43   20   22 1    
    44   22   23 1    
    45   22   24 1    
    46   22  145 1    
    47   23  146 1    
    48   23  147 1    
    49   23  148 1    
    50   24   25 am   BACKBONE|DICT|INTERRES
    51   24  149 1    
    52   25   26 2    
    53   25   27 1    
    54   27   28 1    
    55   27   29 1    
    56   27  150 1    
    57   28  151 1    
    58   28  152 1    
    59   28  153 1    
    60   29   30 am   BACKBONE|DICT|INTERRES
    61   29  154 1    
    62   30   31 2    
    63   30   32 1    
    64   32   33 1    
    65   32   34 1    
    66   32  155 1    
    67   33  156 1    
    68   33  157 1    
    69   33  158 1    
    70   34   35 am   BACKBONE|DICT|INTERRES
    71   34  159 1    
    72   35   36 2    
    73   35   37 1    
    74   37   38 1    
    75   37   39 1    
    76   37  160 1    
    77   38  161 1    
    78   38  162 1    
    79   38  163 1    
    80   39   40 am   BACKBONE|DICT|INTERRES
    81   39  164 1    
    82   40   41 2    
    83   40   42 1    
    84   42   43 1    
    85   42   44 1    
    86   42  165 1    
    87   43  166 1    
    88   43  167 1    
    89   43  168 1    
    90   44   45 am   BACKBONE|DICT|INTERRES
    91   44  169 1    
    92   45   46 2    
    93   45   47 1    
    94   47   48 1    
    95   47   49 1    
    96   47  170 1    
    97   48  171 1    
    98   48  172 1    
    99   48  173 1    
   100   49   50 am   BACKBONE|DICT|INTERRES
   101   49  174 1    
   102   50   51 2    
   103   50   52 1    
   104   52   53 1    
   105   52   54 1    
   106   52  175 1    
   107   53  176 1    
   108   53  177 1    
   109   53  178 1    
   110   54   55 am   BACKBONE|DICT|INTERRES
   111   54  179 1    
   112   55   56 2    
   113   55   57 1    
   114   57   58 1    
   115   57   59 1    
   116   57  180 1    
   117   58  181 1    
   118   58  182 1    
   119   58  183 1    
   120   59   60 am   BACKBONE|DICT|INTERRES
   121   59  184 1    
   122   60   61 2    
   123   60   62 1    
   124   62   63 1    
   125   62   64 1    
   126   62  185 1    
   127   63  186 1    
   128   63  187 1    
   129   63  188 1    
   130   64   65 am   BACKBONE|DICT|INTERRES
   131   64  189 1    
   132   65   66 2    
   133   67   68 2    
   134   67   69 am   BACKBONE|DICT|INTERRES
   135   69   70 1    
   136   69  190 1    
   137   70   71 1    
   138   70   72 1    
   139   70  191 1    
   140   71  192 1    
   141   71  193 1    
   142   71  194 1    
   143   72   73 2    
   144   72   74 am   BACKBONE|DICT|INTERRES
   145   74   75 1    
   146   74  195 1    
   147   75   76 1    
   148   75   77 1    
   149   75  196 1    
   150   76  197 1    
   151   76  198 1    
   152   76  199 1    
   153   77   78 2    
   154   77   79 am   BACKBONE|DICT|INTERRES
   155   79   80 1    
   156   79  200 1    
   157   80   81 1    
   158   80   82 1    
   159   80  201 1    
   160   81  202 1    
   161   81  203 1    
   162   81  204 1    
   163   82   83 2    
   164   82   84 am   BACKBONE|DICT|INTERRES
   165   84   85 1    
   166   84  205 1    
   167   85   86 1    
   168   85   87 1    
   169   85  206 1    
   170   86  207 1    
   171   86  208 1    
   172   86  209 1    
   173   87   88 2    
   174   87   89 am   BACKBONE|DICT|INTERRES
   175   89   90 1    
   176   89  210 1    
   177   90   91 1    
   178   90   92 1    
   179   90  211 1    
   180   91  212 1    
   181   91  213 1    
   182   91  214 1    
   183   92   93 2    
   184   92   94 am   BACKBONE|DICT|INTERRES
   185   94   95 1    
   186   94  215 1    
   187   95   96 1    
   188   95   97 1    
   189   95  216 1    
   190   96  217 1    
   191   96  218 1    
   192   96  219 1    
   193   97   98 2    
   194   97   99 am   BACKBONE|DICT|INTERRES
   195   99  100 1    
   196   99  220 1    
   197  100  101 1    
   198  100  102 1    
   199  100  221 1    
   200  101  222 1    
   201  101  223 1    
   202  101  224 1    
   203  102  103 2    
   204  102  104 am   BACKBONE|DICT|INTERRES
   205  104  105 1    
   206  104  225 1    
   207  105  106 1    
   208  105  107 1    
   209  105  226 1    
   210  106  227 1    
   211  106  228 1    
   212  106  229 1    
   213  107  108 2    
   214  107  109 am   BACKBONE|DICT|INTERRES
   215  109  110 1    
   216  109  230 1    
   217  110  111 1    
   218  110  112 1    
   219  110  231 1    
   220  111  232 1    
   221  111  233 1    
   222  111  234 1    
   223  112  113 2    
   224  112  114 am   BACKBONE|DICT|INTERRES
   225  114  115 1    
   226  114  235 1    
   227  115  116 1    
   228  115  117 1    
   229  115  236 1    
   230  116  237 1    
   231  116  238 1    
   232  116  239 1    
   233  117  118 2    
   234  117  119 am   BACKBONE|DICT|INTERRES
   235  119  120 1    
   236  119  240 1    
   237  120  121 1    
   238  120  124 1    
   239  120  241 1    
   240  121  122 am   BACKBONE|DICT|INTERRES
   241  121  123 2    
   242  122  242 1    
   243  122  243 1    
   244  124  125 1    
   245  124  244 1    
   246  124  245 1    
   247  125  126 1    
   248  126  246 1    
   249  126  247 1    
@<TRIPOS>SUBSTRUCTURE
     1 UNK         1 GROUP             0       ****    0 ROOT    
