@<TRIPOS>MOLECULE
3R540
247   249    1
SMALL
USER_CHARGES


@<TRIPOS>ATOM
      1 CA          5.8737  -13.2440  -43.0057 C.3       0 UNK        -0.1800 
      2 C           4.7206  -13.2223  -43.9964 C.2       0 UNK         0.5000 
      3 O           3.8431  -12.3640  -43.9021 O.2       0 UNK        -0.5000 
      4 N           4.7115  -14.1525  -44.9590 N.am      1 UNK        -0.5000 
      5 CA          3.6683  -14.2730  -45.9854 C.3       1 UNK         0.1400 
      6 C6          3.7825  -15.5877  -46.7903 C.3       23 UNK        -0.0398 
      7 S7          5.3904  -15.8262  -47.6242 S.3       23 UNK        -0.2404 
      8 C8          4.9405  -15.5468  -49.3689 C.3       23 UNK        -0.0205 
      9 C9          3.9153  -16.5516  -49.8807 C.ar      23 UNK        -0.0193 
     10 C10         2.7058  -16.1104  -50.4263 C.ar      23 UNK        -0.1150 
     11 C11         1.7747  -17.0292  -50.9190 C.ar      23 UNK        -0.0193 
     12 C12         2.0568  -18.3960  -50.8552 C.ar      23 UNK        -0.1150 
     13 C13         3.2472  -18.8558  -50.2790 C.ar      23 UNK        -0.0193 
     14 C14         4.1775  -17.9231  -49.8133 C.ar      23 UNK        -0.1150 
     15 C15         3.5730  -20.3440  -50.1613 C.3       23 UNK        -0.0205 
     16 S16         2.1256  -21.4385  -49.9667 S.3       23 UNK        -0.2404 
     17 C17         1.3758  -20.8074  -48.4242 C.3       23 UNK        -0.0398 
     18 CA          0.3191  -21.7801  -47.8492 C.3       11 UNK         0.1400 
     19 N          -0.0117  -21.4756  -46.4532 N.am      11 UNK        -0.5000 
     20 C          -0.7576  -22.2655  -45.6656 C.2       10 UNK         0.5000 
     21 O          -1.2273  -23.3431  -46.0283 O.2       10 UNK        -0.5000 
     22 CA         -1.0843  -21.7427  -44.2568 C.3       10 UNK         0.1400 
     23 CB          0.1398  -21.8381  -43.3340 C.3       10 UNK        -0.1800 
     24 N          -1.5810  -20.3690  -44.2803 N.am      10 UNK        -0.5000 
     25 C          -2.7066  -19.9724  -44.8906 C.2       9 UNK         0.5000 
     26 O          -3.4926  -20.7393  -45.4466 O.2       9 UNK        -0.5000 
     27 CA         -2.9713  -18.4559  -44.9271 C.3       9 UNK         0.1400 
     28 CB         -3.6299  -17.9798  -43.6235 C.3       9 UNK        -0.1800 
     29 N          -1.7577  -17.6760  -45.1794 N.am      9 UNK        -0.5000 
     30 C          -1.0238  -17.7498  -46.2996 C.2       8 UNK         0.5000 
     31 O          -1.2889  -18.4851  -47.2470 O.2       8 UNK        -0.5000 
     32 CA          0.2533  -16.8990  -46.3393 C.3       8 UNK         0.1400 
     33 CB         -0.0902  -15.4270  -46.6201 C.3       8 UNK        -0.1800 
     34 N           1.0082  -17.0216  -45.0905 N.am      8 UNK        -0.5000 
     35 C           1.6446  -18.1436  -44.7146 C.2       7 UNK         0.5000 
     36 O           1.7077  -19.1558  -45.4138 O.2       7 UNK        -0.5000 
     37 CA          2.2867  -18.1571  -43.3113 C.3       7 UNK         0.1400 
     38 CB          3.7182  -17.6031  -43.3677 C.3       7 UNK        -0.1800 
     39 N           1.5246  -17.4038  -42.3146 N.am      7 UNK        -0.5000 
     40 C           0.2604  -17.6642  -41.9545 C.2       6 UNK         0.5000 
     41 O          -0.3682  -18.6426  -42.3546 O.2       6 UNK        -0.5000 
     42 CA         -0.4454  -16.6419  -41.0390 C.3       6 UNK         0.1400 
     43 CB         -0.4632  -17.1503  -39.5900 C.3       6 UNK        -0.1800 
     44 N           0.1078  -15.2805  -41.0604 N.am      6 UNK        -0.5000 
     45 C           0.2917  -14.5160  -42.1463 C.2       5 UNK         0.5000 
     46 O           0.0917  -14.9137  -43.2977 O.2       5 UNK        -0.5000 
     47 CA          0.8343  -13.0938  -41.8918 C.3       5 UNK         0.1400 
     48 CB          2.2212  -13.1472  -41.2290 C.3       5 UNK        -0.1800 
     49 N           0.9264  -12.3215  -43.1322 N.am      5 UNK        -0.5000 
     50 C          -0.1310  -11.8186  -43.7868 C.2       4 UNK         0.5000 
     51 O          -1.2777  -11.8351  -43.3336 O.2       4 UNK        -0.5000 
     52 CA          0.1340  -11.2220  -45.1852 C.3       4 UNK         0.1400 
     53 CB         -0.9879  -10.2799  -45.6704 C.3       4 UNK        -0.1800 
     54 N           1.4476  -10.5852  -45.3095 N.am      4 UNK        -0.5000 
     55 C           1.9034   -9.5036  -44.6567 C.2       3 UNK         0.5000 
     56 O           1.2311   -8.8582  -43.8514 O.2       3 UNK        -0.5000 
     57 CA          3.3573   -9.0680  -44.9416 C.3       3 UNK         0.1400 
     58 CB          4.1576   -8.9170  -43.6361 C.3       3 UNK        -0.1800 
     59 N           4.0540  -10.0205  -45.8080 N.am      3 UNK        -0.5000 
     60 C           4.1805   -9.9156  -47.1381 C.2       2 UNK         0.5000 
     61 O           3.7930   -8.9436  -47.7867 O.2       2 UNK        -0.5000 
     62 CA          4.8249  -11.1088  -47.8756 C.3       2 UNK         0.1400 
     63 CB          6.3063  -10.8266  -48.1671 C.3       2 UNK        -0.1800 
     64 N           4.7202  -12.3718  -47.1407 N.am      2 UNK        -0.5000 
     65 C           3.5791  -13.0363  -46.9072 C.2       1 UNK         0.5000 
     66 O           2.4829  -12.6723  -47.3308 O.2       1 UNK        -0.5000 
     67 C          -0.9438  -21.8577  -48.7365 C.2       11 UNK         0.5000 
     68 O          -1.0872  -22.8074  -49.5069 O.2       11 UNK        -0.5000 
     69 N          -1.8619  -20.8960  -48.5679 N.am      12 UNK        -0.5000 
     70 CA         -3.1389  -20.8165  -49.2759 C.3       12 UNK         0.1400 
     71 CB         -3.8548  -19.5130  -48.8933 C.3       12 UNK        -0.1800 
     72 C          -4.0716  -22.0169  -49.0381 C.2       12 UNK         0.5000 
     73 O          -4.8562  -22.3302  -49.9300 O.2       12 UNK        -0.5000 
     74 N          -3.9822  -22.6475  -47.8599 N.am      13 UNK        -0.5000 
     75 CA         -4.7288  -23.8552  -47.5064 C.3       13 UNK         0.1400 
     76 CB         -4.9962  -23.8451  -45.9939 C.3       13 UNK        -0.1800 
     77 C          -3.9908  -25.1461  -47.9100 C.2       13 UNK         0.5000 
     78 O          -4.6410  -26.1570  -48.1791 O.2       13 UNK        -0.5000 
     79 N          -2.6512  -25.1105  -47.9181 N.am      14 UNK        -0.5000 
     80 CA         -1.7970  -26.2389  -48.2890 C.3       14 UNK         0.1400 
     81 CB         -0.3724  -25.9985  -47.7681 C.3       14 UNK        -0.1800 
     82 C          -1.7751  -26.4986  -49.8046 C.2       14 UNK         0.5000 
     83 O          -1.6660  -27.6565  -50.2097 O.2       14 UNK        -0.5000 
     84 N          -1.8738  -25.4268  -50.6039 N.am      15 UNK        -0.5000 
     85 CA         -1.8757  -25.4102  -52.0685 C.3       15 UNK         0.1400 
     86 CB         -2.0801  -23.9607  -52.5363 C.3       15 UNK        -0.1800 
     87 C          -2.9306  -26.3537  -52.6816 C.2       15 UNK         0.5000 
     88 O          -4.1135  -26.0160  -52.7171 O.2       15 UNK        -0.5000 
     89 N          -2.4774  -27.5431  -53.1058 N.am      16 UNK        -0.5000 
     90 CA         -3.2744  -28.6677  -53.6162 C.3       16 UNK         0.1400 
     91 CB         -3.9402  -28.3010  -54.9596 C.3       16 UNK        -0.1800 
     92 C          -4.2827  -29.2364  -52.5895 C.2       16 UNK         0.5000 
     93 O          -5.2599  -29.8737  -52.9863 O.2       16 UNK        -0.5000 
     94 N          -4.0233  -29.0002  -51.2929 N.am      17 UNK        -0.5000 
     95 CA         -4.8492  -29.3549  -50.1331 C.3       17 UNK         0.1400 
     96 CB         -4.8287  -30.8805  -49.9048 C.3       17 UNK        -0.1800 
     97 C          -6.2798  -28.7712  -50.1922 C.2       17 UNK         0.5000 
     98 O          -7.2311  -29.4203  -49.7516 O.2       17 UNK        -0.5000 
     99 N          -6.4088  -27.5593  -50.7415 N.am      18 UNK        -0.5000 
    100 CA        -7.6543  -26.8158  -50.8859 C.3       18 UNK         0.1400 
    101 CB        -8.2115  -27.0454  -52.3010 C.3       18 UNK        -0.1800 
    102 C         -7.3749  -25.3280  -50.6372 C.2       18 UNK         0.5000 
    103 O         -6.2199  -24.9071  -50.6858 O.2       18 UNK        -0.5000 
    104 N         -8.4357  -24.5525  -50.3836 N.am      19 UNK        -0.5000 
    105 CA        -8.3746  -23.1036  -50.1961 C.3       19 UNK         0.1400 
    106 CB        -9.6591  -22.6344  -49.4917 C.3       19 UNK        -0.1800 
    107 C         -8.1593  -22.3883  -51.5442 C.2       19 UNK         0.5000 
    108 O         -9.1275  -22.0884  -52.2454 O.2       19 UNK        -0.5000 
    109 N         -6.8899  -22.1523  -51.8903 N.am      20 UNK        -0.5000 
    110 CA        -6.4600  -21.4929  -53.1246 C.3       20 UNK         0.1400 
    111 CB        -5.0517  -21.9933  -53.4788 C.3       20 UNK        -0.1800 
    112 C         -6.4616  -19.9559  -53.0168 C.2       20 UNK         0.5000 
    113 O         -6.2764  -19.2831  -54.0324 O.2       20 UNK        -0.5000 
    114 N         -6.6209  -19.4258  -51.7926 N.am      21 UNK        -0.5000 
    115 CA        -6.6516  -17.9986  -51.4368 C.3       21 UNK         0.1400 
    116 CB        -7.9316  -17.3370  -51.9877 C.3       21 UNK        -0.1800 
    117 C         -5.3672  -17.2343  -51.8337 C.2       21 UNK         0.5000 
    118 O         -5.4209  -16.0372  -52.1197 O.2       21 UNK        -0.5000 
    119 N         -4.2376  -17.9555  -51.8541 N.am      22 UNK        -0.5000 
    120 CA        -2.9144  -17.5089  -52.3201 C.3       22 UNK         0.1400 
    121 C         -2.8161  -17.2747  -53.8613 C.2       22 UNK         0.5000 
    122 N         -3.7808  -17.7047  -54.6679 N.am      22 UNK        -0.7600 
    123 O         -1.8293  -16.7279  -54.3458 O.2       22 UNK        -0.5000 
    124 C124       -2.3258  -16.3361  -51.4694 C.3       23 UNK        -0.0398 
    125 S125       -0.9357  -16.8679  -50.4162 S.3       23 UNK        -0.2404 
    126 C126        0.4665  -16.5552  -51.5311 C.3       23 UNK        -0.0205 
    127 H127        5.4932  -13.3671  -41.9920 H         1 UNK         0.0600 
    128 H128        6.4238  -12.3042  -43.0526 H         1 UNK         0.0600 
    129 H129        6.5687  -14.0584  -43.2110 H         1 UNK         0.0600 
    130 H130        5.4638  -14.8249  -45.0159 H         1 UNK         0.3000 
    131 H131        2.7200  -14.3147  -45.4452 H         1 UNK         0.0600 
    132 H132        2.9652  -15.6647  -47.5078 H         1 UNK         0.0800 
    133 H133        3.6491  -16.4341  -46.1185 H         1 UNK         0.0800 
    134 H134        5.8407  -15.6222  -49.9801 H         1 UNK         0.0800 
    135 H135        4.5770  -14.5245  -49.4834 H         1 UNK         0.0800 
    136 H136        2.4915  -15.0519  -50.4759 H         1 UNK         0.1150 
    137 H137        1.3327  -19.0983  -51.2424 H         1 UNK         0.1150 
    138 H138        5.1101  -18.2638  -49.3853 H         1 UNK         0.1150 
    139 H139        4.1192  -20.6479  -51.0550 H         1 UNK         0.0800 
    140 H140        4.2430  -20.5145  -49.3170 H         1 UNK         0.0800 
    141 H141        0.9454  -19.8192  -48.5973 H         1 UNK         0.0800 
    142 H142        2.1790  -20.6654  -47.6997 H         1 UNK         0.0800 
    143 H143        0.7649  -22.7770  -47.8416 H         1 UNK         0.0600 
    144 H144        0.3465  -20.6026  -46.0809 H         1 UNK         0.3000 
    145 H145       -1.8727  -22.3738  -43.8414 H         1 UNK         0.0600 
    146 H146       -0.1085  -21.5306  -42.3180 H         1 UNK         0.0600 
    147 H147        0.5109  -22.8625  -43.2831 H         1 UNK         0.0600 
    148 H148        0.9588  -21.2087  -43.6819 H         1 UNK         0.0600 
    149 H149       -1.0302  -19.6762  -43.7798 H         1 UNK         0.3000 
    150 H150       -3.6652  -18.2594  -45.7464 H         1 UNK         0.0600 
    151 H151       -4.5668  -18.5097  -43.4470 H         1 UNK         0.0600 
    152 H152       -3.8615  -16.9153  -43.6632 H         1 UNK         0.0600 
    153 H153       -2.9901  -18.1528  -42.7583 H         1 UNK         0.0600 
    154 H154       -1.4432  -17.0668  -44.4386 H         1 UNK         0.3000 
    155 H155        0.8764  -17.2642  -47.1593 H         1 UNK         0.0600 
    156 H156       -0.7153  -14.9964  -45.8375 H         1 UNK         0.0600 
    157 H157       -0.6344  -15.3311  -47.5606 H         1 UNK         0.0600 
    158 H158        0.8042  -14.8145  -46.7070 H         1 UNK         0.0600 
    159 H159        0.9168  -16.2560  -44.4284 H         1 UNK         0.3000 
    160 H160        2.3335  -19.1966  -42.9810 H         1 UNK         0.0600 
    161 H161        3.7286  -16.5411  -43.6137 H         1 UNK         0.0600 
    162 H162        4.3121  -18.1234  -44.1205 H         1 UNK         0.0600 
    163 H163        4.2262  -17.7287  -42.4114 H         1 UNK         0.0600 
    164 H164        1.9630  -16.5782  -41.9358 H         1 UNK         0.3000 
    165 H165       -1.4780  -16.5707  -41.3858 H         1 UNK         0.0600 
    166 H166       -1.0621  -16.5018  -38.9503 H         1 UNK         0.0600 
    167 H167       -0.8960  -18.1500  -39.5304 H         1 UNK         0.0600 
    168 H168        0.5423  -17.2024  -39.1706 H         1 UNK         0.0600 
    169 H169        0.3179  -14.8826  -40.1564 H         1 UNK         0.3000 
    170 H170        0.1466  -12.5814  -41.2160 H         1 UNK         0.0600 
    171 H171        2.1554  -13.5161  -40.2051 H         1 UNK         0.0600 
    172 H172        2.8989  -13.8087  -41.7681 H         1 UNK         0.0600 
    173 H173        2.6801  -12.1590  -41.1847 H         1 UNK         0.0600 
    174 H174        1.8456  -12.2661  -43.5584 H         1 UNK         0.3000 
    175 H175        0.1535  -12.0747  -45.8654 H         1 UNK         0.0600 
    176 H176       -1.9411  -10.8064  -45.7307 H         1 UNK         0.0600 
    177 H177       -1.1263   -9.4322  -44.9989 H         1 UNK         0.0600 
    178 H178       -0.7720   -9.8896  -46.6649 H         1 UNK         0.0600 
    179 H179        2.0793  -11.0459  -45.9522 H         1 UNK         0.3000 
    180 H180        3.3124   -8.0896  -45.4239 H         1 UNK         0.0600 
    181 H181        4.1875   -9.8480  -43.0694 H         1 UNK         0.0600 
    182 H182        3.7165   -8.1562  -42.9912 H         1 UNK         0.0600 
    183 H183        5.1852   -8.6134  -43.8366 H         1 UNK         0.0600 
    184 H184        4.3563  -10.8738  -45.3540 H         1 UNK         0.3000 
    185 H185        4.3039  -11.2268  -48.8281 H         1 UNK         0.0600 
    186 H186        6.4233   -9.9070  -48.7421 H         1 UNK         0.0600 
    187 H187        6.8831  -10.7150  -47.2481 H         1 UNK         0.0600 
    188 H188        6.7540  -11.6319  -48.7500 H         1 UNK         0.0600 
    189 H189        5.5748  -12.7409  -46.7492 H         1 UNK         0.3000 
    190 H190       -1.6522  -20.1202  -47.9415 H         1 UNK         0.3000 
    191 H191       -2.9173  -20.7850  -50.3446 H         1 UNK         0.0600 
    192 H192       -3.2657  -18.6398  -49.1737 H         1 UNK         0.0600 
    193 H193       -4.8209  -19.4321  -49.3902 H         1 UNK         0.0600 
    194 H194       -4.0395  -19.4603  -47.8210 H         1 UNK         0.0600 
    195 H195       -3.3555  -22.2751  -47.1572 H         1 UNK         0.3000 
    196 H196       -5.6925  -23.8510  -48.0199 H         1 UNK         0.0600 
    197 H197       -5.5660  -24.7243  -45.6907 H         1 UNK         0.0600 
    198 H198       -5.5718  -22.9663  -45.7026 H         1 UNK         0.0600 
    199 H199       -4.0672  -23.8394  -45.4219 H         1 UNK         0.0600 
    200 H200       -2.1804  -24.2661  -47.6134 H         1 UNK         0.3000 
    201 H201       -2.1847  -27.1377  -47.8047 H         1 UNK         0.0600 
    202 H202       -0.3618  -25.8913  -46.6834 H         1 UNK         0.0600 
    203 H203        0.0664  -25.0985  -48.1993 H         1 UNK         0.0600 
    204 H204        0.2817  -26.8350  -48.0176 H         1 UNK         0.0600 
    205 H205       -1.9047  -24.5154  -50.1576 H         1 UNK         0.3000 
    206 H206       -0.8885  -25.7327  -52.4043 H         1 UNK         0.0600 
    207 H207       -1.2376  -23.3310  -52.2498 H         1 UNK         0.0600 
    208 H208       -2.1783  -23.9024  -53.6210 H         1 UNK         0.0600 
    209 H209       -2.9803  -23.5315  -52.0960 H         1 UNK         0.0600 
    210 H210       -1.4937  -27.7405  -52.9821 H         1 UNK         0.3000 
    211 H211       -2.5654  -29.4732  -53.8121 H         1 UNK         0.0600 
    212 H212       -4.7269  -27.5568  -54.8321 H         1 UNK         0.0600 
    213 H213       -4.3936  -29.1771  -55.4244 H         1 UNK         0.0600 
    214 H214       -3.2118  -27.9024  -55.6656 H         1 UNK         0.0600 
    215 H215       -3.1781  -28.4803  -51.0713 H         1 UNK         0.3000 
    216 H216       -4.3720  -28.8870  -49.2708 H         1 UNK         0.0600 
    217 H217       -5.3252  -31.1437  -48.9702 H         1 UNK         0.0600 
    218 H218       -3.8072  -31.2558  -49.8439 H         1 UNK         0.0600 
    219 H219       -5.3362  -31.4163  -50.7075 H         1 UNK         0.0600 
    220 H220       -5.5832  -27.0456  -51.0311 H         1 UNK         0.3000 
    221 H221       -8.3824  -27.1512  -50.1445 H         1 UNK         0.0600 
    222 H222       -7.5107  -26.7054  -53.0650 H         1 UNK         0.0600 
    223 H223       -8.4108  -28.1024  -52.4787 H         1 UNK         0.0600 
    224 H224       -9.1487  -26.5079  -52.4495 H         1 UNK         0.0600 
    225 H225       -9.3580  -24.9632  -50.3916 H         1 UNK         0.3000 
    226 H226       -7.5347  -22.8660  -49.5397 H         1 UNK         0.0600 
    227 H227       -9.7559  -23.0907  -48.5064 H         1 UNK         0.0600 
    228 H228       -9.6519  -21.5531  -49.3491 H         1 UNK         0.0600 
    229 H229      -10.5525  -22.8844  -50.0653 H         1 UNK         0.0600 
    230 H230       -6.1491  -22.4544  -51.2568 H         1 UNK         0.3000 
    231 H231       -7.1364  -21.7704  -53.9355 H         1 UNK         0.0600 
    232 H232       -5.0263  -23.0812  -53.5524 H         1 UNK         0.0600 
    233 H233       -4.3211  -21.6896  -52.7284 H         1 UNK         0.0600 
    234 H234       -4.7217  -21.5941  -54.4387 H         1 UNK         0.0600 
    235 H235       -6.7450  -20.0743  -51.0284 H         1 UNK         0.3000 
    236 H236       -6.7025  -17.9545  -50.3481 H         1 UNK         0.0600 
    237 H237       -8.0398  -16.3183  -51.6138 H         1 UNK         0.0600 
    238 H238       -7.9238  -17.2865  -53.0770 H         1 UNK         0.0600 
    239 H239       -8.8217  -17.8881  -51.6843 H         1 UNK         0.0600 
    240 H240       -4.3090  -18.9352  -51.6284 H         1 UNK         0.3000 
    241 H241       -2.2809  -18.3843  -52.1734 H         1 UNK         0.0600 
    242 H242       -4.6071  -18.1714  -54.3099 H         1 UNK         0.3800 
    243 H243       -3.6908  -17.5550  -55.6602 H         1 UNK         0.3800 
    244 H244       -2.0030  -15.4936  -52.0829 H         1 UNK         0.0800 
    245 H245       -3.0784  -15.9156  -50.8024 H         1 UNK         0.0800 
    246 H246        0.3026  -17.0735  -52.4771 H         1 UNK         0.0800 
    247 H247        0.5135  -15.4904  -51.7644 H         1 UNK         0.0800 
@<TRIPOS>BOND
     1    1    2 1    
     2    1  127 1    
     3    1  128 1    
     4    1  129 1    
     5    2    3 2    
     6    2    4 am   BACKBONE|DICT|INTERRES
     7    4    5 1    
     8    4  130 1    
     9    5    6 1    
    10    5   65 1    
    11    5  131 1    
    12    6    7 1    
    13    6  132 1    
    14    6  133 1    
    15    7    8 1    
    16    8    9 1    
    17    8  134 1    
    18    8  135 1    
    19    9   10 ar   
    20    9   14 ar   
    21   10   11 ar   
    22   10  136 1    
    23   11   12 ar   
    24   11  126 1    
    25   12   13 ar   
    26   12  137 1    
    27   13   14 ar   
    28   13   15 1    
    29   14  138 1    
    30   15   16 1    
    31   15  139 1    
    32   15  140 1    
    33   16   17 1    
    34   17   18 1    
    35   17  141 1    
    36   17  142 1    
    37   18   19 1    
    38   18   67 1    
    39   18  143 1    
    40   19   20 am   BACKBONE|DICT|INTERRES
    41   19  144 1    
    42   20   21 2    
    43   20   22 1    
    44   22   23 1    
    45   22   24 1    
    46   22  145 1    
    47   23  146 1    
    48   23  147 1    
    49   23  148 1    
    50   24   25 am   BACKBONE|DICT|INTERRES
    51   24  149 1    
    52   25   26 2    
    53   25   27 1    
    54   27   28 1    
    55   27   29 1    
    56   27  150 1    
    57   28  151 1    
    58   28  152 1    
    59   28  153 1    
    60   29   30 am   BACKBONE|DICT|INTERRES
    61   29  154 1    
    62   30   31 2    
    63   30   32 1    
    64   32   33 1    
    65   32   34 1    
    66   32  155 1    
    67   33  156 1    
    68   33  157 1    
    69   33  158 1    
    70   34   35 am   BACKBONE|DICT|INTERRES
    71   34  159 1    
    72   35   36 2    
    73   35   37 1    
    74   37   38 1    
    75   37   39 1    
    76   37  160 1    
    77   38  161 1    
    78   38  162 1    
    79   38  163 1    
    80   39   40 am   BACKBONE|DICT|INTERRES
    81   39  164 1    
    82   40   41 2    
    83   40   42 1    
    84   42   43 1    
    85   42   44 1    
    86   42  165 1    
    87   43  166 1    
    88   43  167 1    
    89   43  168 1    
    90   44   45 am   BACKBONE|DICT|INTERRES
    91   44  169 1    
    92   45   46 2    
    93   45   47 1    
    94   47   48 1    
    95   47   49 1    
    96   47  170 1    
    97   48  171 1    
    98   48  172 1    
    99   48  173 1    
   100   49   50 am   BACKBONE|DICT|INTERRES
   101   49  174 1    
   102   50   51 2    
   103   50   52 1    
   104   52   53 1    
   105   52   54 1    
   106   52  175 1    
   107   53  176 1    
   108   53  177 1    
   109   53  178 1    
   110   54   55 am   BACKBONE|DICT|INTERRES
   111   54  179 1    
   112   55   56 2    
   113   55   57 1    
   114   57   58 1    
   115   57   59 1    
   116   57  180 1    
   117   58  181 1    
   118   58  182 1    
   119   58  183 1    
   120   59   60 am   BACKBONE|DICT|INTERRES
   121   59  184 1    
   122   60   61 2    
   123   60   62 1    
   124   62   63 1    
   125   62   64 1    
   126   62  185 1    
   127   63  186 1    
   128   63  187 1    
   129   63  188 1    
   130   64   65 am   BACKBONE|DICT|INTERRES
   131   64  189 1    
   132   65   66 2    
   133   67   68 2    
   134   67   69 am   BACKBONE|DICT|INTERRES
   135   69   70 1    
   136   69  190 1    
   137   70   71 1    
   138   70   72 1    
   139   70  191 1    
   140   71  192 1    
   141   71  193 1    
   142   71  194 1    
   143   72   73 2    
   144   72   74 am   BACKBONE|DICT|INTERRES
   145   74   75 1    
   146   74  195 1    
   147   75   76 1    
   148   75   77 1    
   149   75  196 1    
   150   76  197 1    
   151   76  198 1    
   152   76  199 1    
   153   77   78 2    
   154   77   79 am   BACKBONE|DICT|INTERRES
   155   79   80 1    
   156   79  200 1    
   157   80   81 1    
   158   80   82 1    
   159   80  201 1    
   160   81  202 1    
   161   81  203 1    
   162   81  204 1    
   163   82   83 2    
   164   82   84 am   BACKBONE|DICT|INTERRES
   165   84   85 1    
   166   84  205 1    
   167   85   86 1    
   168   85   87 1    
   169   85  206 1    
   170   86  207 1    
   171   86  208 1    
   172   86  209 1    
   173   87   88 2    
   174   87   89 am   BACKBONE|DICT|INTERRES
   175   89   90 1    
   176   89  210 1    
   177   90   91 1    
   178   90   92 1    
   179   90  211 1    
   180   91  212 1    
   181   91  213 1    
   182   91  214 1    
   183   92   93 2    
   184   92   94 am   BACKBONE|DICT|INTERRES
   185   94   95 1    
   186   94  215 1    
   187   95   96 1    
   188   95   97 1    
   189   95  216 1    
   190   96  217 1    
   191   96  218 1    
   192   96  219 1    
   193   97   98 2    
   194   97   99 am   BACKBONE|DICT|INTERRES
   195   99  100 1    
   196   99  220 1    
   197  100  101 1    
   198  100  102 1    
   199  100  221 1    
   200  101  222 1    
   201  101  223 1    
   202  101  224 1    
   203  102  103 2    
   204  102  104 am   BACKBONE|DICT|INTERRES
   205  104  105 1    
   206  104  225 1    
   207  105  106 1    
   208  105  107 1    
   209  105  226 1    
   210  106  227 1    
   211  106  228 1    
   212  106  229 1    
   213  107  108 2    
   214  107  109 am   BACKBONE|DICT|INTERRES
   215  109  110 1    
   216  109  230 1    
   217  110  111 1    
   218  110  112 1    
   219  110  231 1    
   220  111  232 1    
   221  111  233 1    
   222  111  234 1    
   223  112  113 2    
   224  112  114 am   BACKBONE|DICT|INTERRES
   225  114  115 1    
   226  114  235 1    
   227  115  116 1    
   228  115  117 1    
   229  115  236 1    
   230  116  237 1    
   231  116  238 1    
   232  116  239 1    
   233  117  118 2    
   234  117  119 am   BACKBONE|DICT|INTERRES
   235  119  120 1    
   236  119  240 1    
   237  120  121 1    
   238  120  124 1    
   239  120  241 1    
   240  121  122 am   BACKBONE|DICT|INTERRES
   241  121  123 2    
   242  122  242 1    
   243  122  243 1    
   244  124  125 1    
   245  124  244 1    
   246  124  245 1    
   247  125  126 1    
   248  126  246 1    
   249  126  247 1    
@<TRIPOS>SUBSTRUCTURE
     1 UNK         1 GROUP             0       ****    0 ROOT    
