@<TRIPOS>MOLECULE
3R540
247   249    1
SMALL
USER_CHARGES


@<TRIPOS>ATOM
      1 CA         -1.7880  -15.8320  -47.5464 C.3       0 UNK        -0.1800 
      2 C          -0.9581  -14.5699  -47.7355 C.2       0 UNK         0.5000 
      3 O          -1.3233  -13.5174  -47.2134 O.2       0 UNK        -0.5000 
      4 N           0.1401  -14.6638  -48.4970 N.am      1 UNK        -0.5000 
      5 CA          0.9870  -13.5240  -48.8764 C.3       1 UNK         0.1400 
      6 C6          1.8938  -13.8428  -50.0912 C.3       23 UNK        -0.0398 
      7 S7          0.9851  -14.4773  -51.5436 S.3       23 UNK        -0.2404 
      8 C8          2.1892  -15.6515  -52.2456 C.3       23 UNK        -0.0205 
      9 C9          2.0525  -17.0465  -51.6508 C.ar      23 UNK        -0.0193 
     10 C10         1.2814  -18.0136  -52.3053 C.ar      23 UNK        -0.1150 
     11 C11         1.1797  -19.3144  -51.7951 C.ar      23 UNK        -0.0193 
     12 C12         1.8263  -19.6209  -50.5943 C.ar      23 UNK        -0.1150 
     13 C13         2.5876  -18.6621  -49.9213 C.ar      23 UNK        -0.0193 
     14 C14         2.7145  -17.3828  -50.4661 C.ar      23 UNK        -0.1150 
     15 C15         3.2723  -19.0137  -48.6070 C.3       23 UNK        -0.0205 
     16 S16         2.5783  -18.1221  -47.1719 S.3       23 UNK        -0.2404 
     17 C17         0.7791  -18.3591  -47.3591 C.3       23 UNK        -0.0398 
     18 CA          0.2963  -19.8191  -47.1912 C.3       11 UNK         0.1400 
     19 N           0.4651  -20.3356  -45.8311 N.am      11 UNK        -0.5000 
     20 C           0.2579  -21.6103  -45.4705 C.2       10 UNK         0.5000 
     21 O          -0.0521  -22.5015  -46.2616 O.2       10 UNK        -0.5000 
     22 CA          0.3594  -21.9362  -43.9691 C.3       10 UNK         0.1400 
     23 CB          1.8232  -22.0785  -43.5256 C.3       10 UNK        -0.1800 
     24 N          -0.3205  -20.9417  -43.1380 N.am      10 UNK        -0.5000 
     25 C          -1.6470  -20.7450  -43.1343 C.2       9 UNK         0.5000 
     26 O          -2.4386  -21.4142  -43.7992 O.2       9 UNK        -0.5000 
     27 CA         -2.1748  -19.5753  -42.2818 C.3       9 UNK         0.1400 
     28 CB         -2.2785  -19.9783  -40.8035 C.3       9 UNK        -0.1800 
     29 N          -1.3561  -18.3686  -42.4055 N.am      9 UNK        -0.5000 
     30 C          -1.1667  -17.6976  -43.5506 C.2       8 UNK         0.5000 
     31 O          -1.7071  -17.9949  -44.6127 O.2       8 UNK        -0.5000 
     32 CA         -0.1568  -16.5400  -43.5278 C.3       8 UNK         0.1400 
     33 CB         -0.8088  -15.2637  -42.9793 C.3       8 UNK        -0.1800 
     34 N           1.0445  -16.8605  -42.7584 N.am      8 UNK        -0.5000 
     35 C           1.8855  -17.8680  -43.0313 C.2       7 UNK         0.5000 
     36 O           1.7442  -18.6332  -43.9813 O.2       7 UNK        -0.5000 
     37 CA          3.0457  -18.0944  -42.0500 C.3       7 UNK         0.1400 
     38 CB          4.2027  -17.1232  -42.3197 C.3       7 UNK        -0.1800 
     39 N           2.6046  -17.9629  -40.6642 N.am      7 UNK        -0.5000 
     40 C           1.8293  -18.8562  -40.0350 C.2       6 UNK         0.5000 
     41 O           1.4515  -19.9138  -40.5408 O.2       6 UNK        -0.5000 
     42 CA          1.3726  -18.4800  -38.6138 C.3       6 UNK         0.1400 
     43 CB          2.4493  -18.8475  -37.5819 C.3       6 UNK        -0.1800 
     44 N           1.0437  -17.0578  -38.4883 N.am      6 UNK        -0.5000 
     45 C          -0.0029  -16.4746  -39.0885 C.2       5 UNK         0.5000 
     46 O          -0.8042  -17.0783  -39.8021 O.2       5 UNK        -0.5000 
     47 CA         -0.1624  -14.9562  -38.8849 C.3       5 UNK         0.1400 
     48 CB         -0.8869  -14.6638  -37.5623 C.3       5 UNK        -0.1800 
     49 N           1.0960  -14.2026  -38.9271 N.am      5 UNK        -0.5000 
     50 C           1.9262  -14.1601  -39.9772 C.2       4 UNK         0.5000 
     51 O           1.7949  -14.8573  -40.9828 O.2       4 UNK        -0.5000 
     52 CA          3.1206  -13.1983  -39.8911 C.3       4 UNK         0.1400 
     53 CB          4.4141  -13.9688  -39.5851 C.3       4 UNK        -0.1800 
     54 N           3.2782  -12.4692  -41.1505 N.am      4 UNK        -0.5000 
     55 C           2.5050  -11.4416  -41.5291 C.2       3 UNK         0.5000 
     56 O           1.6099  -10.9679  -40.8276 O.2       3 UNK        -0.5000 
     57 CA          2.7848  -10.8236  -42.9118 C.3       3 UNK         0.1400 
     58 CB          3.8468   -9.7186  -42.7983 C.3       3 UNK        -0.1800 
     59 N           3.2225  -11.8071  -43.9052 N.am      3 UNK        -0.5000 
     60 C           2.3924  -12.6025  -44.5922 C.2       2 UNK         0.5000 
     61 O           1.1696  -12.6131  -44.4395 O.2       2 UNK        -0.5000 
     62 CA          3.0531  -13.5536  -45.6093 C.3       2 UNK         0.1400 
     63 CB          3.4618  -14.8670  -44.9317 C.3       2 UNK        -0.1800 
     64 N           2.1868  -13.8623  -46.7480 N.am      2 UNK        -0.5000 
     65 C           1.8553  -12.9934  -47.7133 C.2       1 UNK         0.5000 
     66 O           2.2403  -11.8230  -47.7365 O.2       1 UNK        -0.5000 
     67 C          -1.1569  -19.9561  -47.6854 C.2       11 UNK         0.5000 
     68 O          -1.3578  -20.3655  -48.8256 O.2       11 UNK        -0.5000 
     69 N          -2.1405  -19.6456  -46.8294 N.am      12 UNK        -0.5000 
     70 CA         -3.5684  -19.7882  -47.1189 C.3       12 UNK         0.1400 
     71 CB         -4.3958  -19.1448  -45.9968 C.3       12 UNK        -0.1800 
     72 C          -3.9882  -21.2524  -47.3382 C.2       12 UNK         0.5000 
     73 O          -4.7474  -21.5309  -48.2668 O.2       12 UNK        -0.5000 
     74 N          -3.4570  -22.1664  -46.5132 N.am      13 UNK        -0.5000 
     75 CA         -3.6422  -23.6104  -46.6616 C.3       13 UNK         0.1400 
     76 CB         -3.0563  -24.3398  -45.4434 C.3       13 UNK        -0.1800 
     77 C          -3.0350  -24.1413  -47.9727 C.2       13 UNK         0.5000 
     78 O          -3.6984  -24.8937  -48.6872 O.2       13 UNK        -0.5000 
     79 N          -1.8102  -23.6969  -48.2906 N.am      14 UNK        -0.5000 
     80 CA         -1.1228  -23.9914  -49.5479 C.3       14 UNK         0.1400 
     81 CB          0.3159  -23.4570  -49.4935 C.3       14 UNK        -0.1800 
     82 C          -1.8686  -23.4353  -50.7735 C.2       14 UNK         0.5000 
     83 O          -2.0126  -24.1488  -51.7633 O.2       14 UNK        -0.5000 
     84 N          -2.3640  -22.1945  -50.6731 N.am      15 UNK        -0.5000 
     85 CA         -3.1573  -21.5137  -51.6952 C.3       15 UNK         0.1400 
     86 CB         -3.4435  -20.0697  -51.2516 C.3       15 UNK        -0.1800 
     87 C          -4.4650  -22.2432  -52.0288 C.2       15 UNK         0.5000 
     88 O          -4.7857  -22.3945  -53.2112 O.2       15 UNK        -0.5000 
     89 N          -5.1694  -22.6926  -50.9819 N.am      16 UNK        -0.5000 
     90 CA         -6.3940  -23.4813  -51.0742 C.3       16 UNK         0.1400 
     91 CB         -7.0353  -23.5983  -49.6836 C.3       16 UNK        -0.1800 
     92 C          -6.1540  -24.8706  -51.6877 C.2       16 UNK         0.5000 
     93 O          -6.9418  -25.3032  -52.5285 O.2       16 UNK        -0.5000 
     94 N          -5.0632  -25.5314  -51.2746 N.am      17 UNK        -0.5000 
     95 CA         -4.6410  -26.8341  -51.7903 C.3       17 UNK         0.1400 
     96 CB         -3.5233  -27.3990  -50.9006 C.3       17 UNK        -0.1800 
     97 C          -4.1898  -26.7792  -53.2617 C.2       17 UNK         0.5000 
     98 O          -4.4948  -27.6987  -54.0224 O.2       17 UNK        -0.5000 
     99 N          -3.4777  -25.7067  -53.6338 N.am      18 UNK        -0.5000 
    100 CA        -2.9674  -25.4651  -54.9821 C.3       18 UNK         0.1400 
    101 CB        -1.9895  -24.2812  -54.9553 C.3       18 UNK        -0.1800 
    102 C         -4.0770  -25.2247  -56.0194 C.2       18 UNK         0.5000 
    103 O         -3.9771  -25.7472  -57.1308 O.2       18 UNK        -0.5000 
    104 N         -5.1102  -24.4578  -55.6452 N.am      19 UNK        -0.5000 
    105 CA        -6.2567  -24.1628  -56.5042 C.3       19 UNK         0.1400 
    106 CB        -5.8636  -23.1961  -57.6421 C.3       19 UNK        -0.1800 
    107 C         -7.4288  -23.5951  -55.6961 C.2       19 UNK         0.5000 
    108 O         -8.5229  -24.1585  -55.7340 O.2       19 UNK        -0.5000 
    109 N         -7.1719  -22.4802  -55.0032 N.am      20 UNK        -0.5000 
    110 CA        -8.1254  -21.6660  -54.2465 C.3       20 UNK         0.1400 
    111 CB        -9.3240  -21.2151  -55.1097 C.3       20 UNK        -0.1800 
    112 C         -7.4080  -20.4243  -53.6970 C.2       20 UNK         0.5000 
    113 O         -7.6210  -20.0608  -52.5408 O.2       20 UNK        -0.5000 
    114 N         -6.5681  -19.8047  -54.5385 N.am      21 UNK        -0.5000 
    115 CA        -5.8453  -18.5650  -54.2508 C.3       21 UNK         0.1400 
    116 CB        -6.6395  -17.3718  -54.8154 C.3       21 UNK        -0.1800 
    117 C         -4.4000  -18.6310  -54.7819 C.2       21 UNK         0.5000 
    118 O         -3.8608  -17.6162  -55.2258 O.2       21 UNK        -0.5000 
    119 N         -3.7953  -19.8260  -54.7199 N.am      22 UNK        -0.5000 
    120 CA        -2.4478  -20.1370  -55.2257 C.3       22 UNK         0.1400 
    121 C         -2.3520  -20.1230  -56.7840 C.2       22 UNK         0.5000 
    122 N         -1.1528  -20.1545  -57.3485 N.am      22 UNK        -0.7600 
    123 O         -3.3558  -20.1321  -57.4937 O.2       22 UNK        -0.5000 
    124 C124       -1.3302  -19.3163  -54.5059 C.3       23 UNK        -0.0398 
    125 S125        0.2202  -20.2660  -54.3012 S.3       23 UNK        -0.2404 
    126 C126        0.3727  -20.4144  -52.4849 C.3       23 UNK        -0.0205 
    127 H127       -1.4934  -16.6225  -48.2360 H         1 UNK         0.0600 
    128 H128       -2.8424  -15.6172  -47.7199 H         1 UNK         0.0600 
    129 H129       -1.6830  -16.1994  -46.5271 H         1 UNK         0.0600 
    130 H130        0.3754  -15.5420  -48.9358 H         1 UNK         0.3000 
    131 H131        0.3232  -12.7080  -49.1710 H         1 UNK         0.0600 
    132 H132        2.4251  -12.9437  -50.4091 H         1 UNK         0.0800 
    133 H133        2.6651  -14.5559  -49.8036 H         1 UNK         0.0800 
    134 H134        3.2047  -15.2775  -52.1064 H         1 UNK         0.0800 
    135 H135        2.0358  -15.6969  -53.3249 H         1 UNK         0.0800 
    136 H136        0.7739  -17.7484  -53.2210 H         1 UNK         0.1150 
    137 H137        1.7379  -20.6158  -50.1824 H         1 UNK         0.1150 
    138 H138        3.3260  -16.6534  -49.9564 H         1 UNK         0.1150 
    139 H139        3.2175  -20.0864  -48.4164 H         1 UNK         0.0800 
    140 H140        4.3343  -18.7772  -48.6848 H         1 UNK         0.0800 
    141 H141        0.4960  -17.9673  -48.3371 H         1 UNK         0.0800 
    142 H142        0.2867  -17.7206  -46.6256 H         1 UNK         0.0800 
    143 H143        0.9008  -20.4512  -47.8425 H         1 UNK         0.0600 
    144 H144        0.7847  -19.6718  -45.1277 H         1 UNK         0.3000 
    145 H145       -0.1331  -22.8973  -43.8065 H         1 UNK         0.0600 
    146 H146        2.3850  -21.1559  -43.6679 H         1 UNK         0.0600 
    147 H147        1.8907  -22.3503  -42.4720 H         1 UNK         0.0600 
    148 H148        2.3273  -22.8588  -44.0969 H         1 UNK         0.0600 
    149 H149        0.2645  -20.3437  -42.5688 H         1 UNK         0.3000 
    150 H150       -3.1779  -19.3328  -42.6384 H         1 UNK         0.0600 
    151 H151       -2.8953  -20.8698  -40.6836 H         1 UNK         0.0600 
    152 H152       -2.7343  -19.1850  -40.2108 H         1 UNK         0.0600 
    153 H153       -1.2997  -20.1944  -40.3746 H         1 UNK         0.0600 
    154 H154       -0.9159  -18.0241  -41.5578 H         1 UNK         0.3000 
    155 H155        0.1559  -16.3453  -44.5552 H         1 UNK         0.0600 
    156 H156       -0.1030  -14.4340  -42.9648 H         1 UNK         0.0600 
    157 H157       -1.6533  -14.9615  -43.5998 H         1 UNK         0.0600 
    158 H158       -1.1791  -15.4038  -41.9643 H         1 UNK         0.0600 
    159 H159        1.2647  -16.2348  -41.9853 H         1 UNK         0.3000 
    160 H160        3.4170  -19.1106  -42.1997 H         1 UNK         0.0600 
    161 H161        4.5635  -17.2245  -43.3440 H         1 UNK         0.0600 
    162 H162        5.0455  -17.3192  -41.6569 H         1 UNK         0.0600 
    163 H163        3.8985  -16.0868  -42.1779 H         1 UNK         0.0600 
    164 H164        2.8200  -17.0945  -40.1978 H         1 UNK         0.3000 
    165 H165        0.4738  -19.0590  -38.3902 H         1 UNK         0.0600 
    166 H166        2.1035  -18.6555  -36.5661 H         1 UNK         0.0600 
    167 H167        2.7023  -19.9069  -37.6432 H         1 UNK         0.0600 
    168 H168        3.3684  -18.2809  -37.7370 H         1 UNK         0.0600 
    169 H169        1.6560  -16.4899  -37.9213 H         1 UNK         0.3000 
    170 H170       -0.7886  -14.5848  -39.6983 H         1 UNK         0.0600 
    171 H171       -1.8371  -15.1974  -37.5109 H         1 UNK         0.0600 
    172 H172       -0.2921  -14.9685  -36.7003 H         1 UNK         0.0600 
    173 H173       -1.1077  -13.6011  -37.4598 H         1 UNK         0.0600 
    174 H174        1.2865  -13.6096  -38.1322 H         1 UNK         0.3000 
    175 H175        2.9477  -12.4813  -39.0856 H         1 UNK         0.0600 
    176 H176        4.6546  -14.6869  -40.3691 H         1 UNK         0.0600 
    177 H177        5.2608  -13.2897  -39.4835 H         1 UNK         0.0600 
    178 H178        4.3279  -14.5215  -38.6487 H         1 UNK         0.0600 
    179 H179        3.9593  -12.8288  -41.8012 H         1 UNK         0.3000 
    180 H180        1.8585  -10.3607  -43.2596 H         1 UNK         0.0600 
    181 H181        4.8077  -10.1135  -42.4663 H         1 UNK         0.0600 
    182 H182        3.5407   -8.9552  -42.0816 H         1 UNK         0.0600 
    183 H183        4.0007   -9.2200  -43.7555 H         1 UNK         0.0600 
    184 H184        4.2147  -11.8534  -44.0877 H         1 UNK         0.3000 
    185 H185        3.9544  -13.0730  -45.9960 H         1 UNK         0.0600 
    186 H186        3.9603  -15.5388  -45.6308 H         1 UNK         0.0600 
    187 H187        4.1540  -14.6810  -44.1103 H         1 UNK         0.0600 
    188 H188        2.5960  -15.3878  -44.5257 H         1 UNK         0.0600 
    189 H189        1.8012  -14.7934  -46.7870 H         1 UNK         0.3000 
    190 H190       -1.9030  -19.2491  -45.9222 H         1 UNK         0.3000 
    191 H191       -3.7745  -19.2419  -48.0411 H         1 UNK         0.0600 
    192 H192       -4.1988  -19.6127  -45.0320 H         1 UNK         0.0600 
    193 H193       -5.4641  -19.2369  -46.1962 H         1 UNK         0.0600 
    194 H194       -4.1730  -18.0816  -45.9048 H         1 UNK         0.0600 
    195 H195       -2.8770  -21.8550  -45.7407 H         1 UNK         0.3000 
    196 H196       -4.7158  -23.8080  -46.6898 H         1 UNK         0.0600 
    197 H197       -1.9864  -24.1593  -45.3386 H         1 UNK         0.0600 
    198 H198       -3.2016  -25.4174  -45.5270 H         1 UNK         0.0600 
    199 H199       -3.5400  -24.0161  -44.5217 H         1 UNK         0.0600 
    200 H200       -1.3149  -23.1078  -47.6271 H         1 UNK         0.3000 
    201 H201       -1.0765  -25.0771  -49.6537 H         1 UNK         0.0600 
    202 H202        0.8743  -23.9129  -48.6758 H         1 UNK         0.0600 
    203 H203        0.3383  -22.3777  -49.3500 H         1 UNK         0.0600 
    204 H204        0.8509  -23.6775  -50.4180 H         1 UNK         0.0600 
    205 H205       -2.1400  -21.6483  -49.8434 H         1 UNK         0.3000 
    206 H206       -2.5627  -21.4897  -52.6078 H         1 UNK         0.0600 
    207 H207       -2.5262  -19.4964  -51.1235 H         1 UNK         0.0600 
    208 H208       -4.0535  -19.5429  -51.9813 H         1 UNK         0.0600 
    209 H209       -3.9854  -20.0400  -50.3080 H         1 UNK         0.0600 
    210 H210       -4.8435  -22.4703  -50.0459 H         1 UNK         0.3000 
    211 H211       -7.0878  -22.9449  -51.7210 H         1 UNK         0.0600 
    212 H212       -6.3715  -24.0925  -48.9734 H         1 UNK         0.0600 
    213 H213       -7.9608  -24.1736  -49.7264 H         1 UNK         0.0600 
    214 H214       -7.2807  -22.6153  -49.2811 H         1 UNK         0.0600 
    215 H215       -4.4889  -25.1240  -50.5431 H         1 UNK         0.3000 
    216 H216       -5.4954  -27.5115  -51.7306 H         1 UNK         0.0600 
    217 H217       -3.2021  -28.3804  -51.2515 H         1 UNK         0.0600 
    218 H218       -3.8610  -27.5158  -49.8707 H         1 UNK         0.0600 
    219 H219       -2.6477  -26.7492  -50.8930 H         1 UNK         0.0600 
    220 H220       -3.1972  -25.0375  -52.9211 H         1 UNK         0.3000 
    221 H221       -2.4130  -26.3526  -55.2940 H         1 UNK         0.0600 
    222 H222       -2.4553  -23.3975  -54.5219 H         1 UNK         0.0600 
    223 H223       -1.1054  -24.5150  -54.3622 H         1 UNK         0.0600 
    224 H224       -1.6492  -24.0215  -55.9587 H         1 UNK         0.0600 
    225 H225       -5.1372  -24.0933  -54.6998 H         1 UNK         0.3000 
    226 H226       -6.6007  -25.0985  -56.9507 H         1 UNK         0.0600 
    227 H227       -5.1679  -23.6602  -58.3407 H         1 UNK         0.0600 
    228 H228       -6.7383  -22.8933  -58.2193 H         1 UNK         0.0600 
    229 H229       -5.3920  -22.2902  -57.2595 H         1 UNK         0.0600 
    230 H230       -6.2099  -22.1763  -54.9316 H         1 UNK         0.3000 
    231 H231       -8.4964  -22.2545  -53.4064 H         1 UNK         0.0600 
    232 H232       -9.9419  -20.4927  -54.5744 H         1 UNK         0.0600 
    233 H233       -9.9751  -22.0494  -55.3681 H         1 UNK         0.0600 
    234 H234       -8.9985  -20.7434  -56.0375 H         1 UNK         0.0600 
    235 H235       -6.4744  -20.1547  -55.4820 H         1 UNK         0.3000 
    236 H236       -5.7625  -18.4280  -53.1712 H         1 UNK         0.0600 
    237 H237       -6.1579  -16.4247  -54.5692 H         1 UNK         0.0600 
    238 H238       -7.6469  -17.3374  -54.4005 H         1 UNK         0.0600 
    239 H239       -6.7259  -17.4270  -55.9011 H         1 UNK         0.0600 
    240 H240       -4.3181  -20.6117  -54.3556 H         1 UNK         0.3000 
    241 H241       -2.3135  -21.1841  -54.9622 H         1 UNK         0.0600 
    242 H242       -1.0805  -20.1635  -58.3540 H         1 UNK         0.3800 
    243 H243       -0.3151  -20.1765  -56.7855 H         1 UNK         0.3800 
    244 H244       -1.1166  -18.3910  -55.0437 H         1 UNK         0.0800 
    245 H245       -1.6689  -18.9994  -53.5193 H         1 UNK         0.0800 
    246 H246        0.8394  -21.3798  -52.2826 H         1 UNK         0.0800 
    247 H247       -0.6082  -20.4564  -52.0220 H         1 UNK         0.0800 
@<TRIPOS>BOND
     1    1    2 1    
     2    1  127 1    
     3    1  128 1    
     4    1  129 1    
     5    2    3 2    
     6    2    4 am   BACKBONE|DICT|INTERRES
     7    4    5 1    
     8    4  130 1    
     9    5    6 1    
    10    5   65 1    
    11    5  131 1    
    12    6    7 1    
    13    6  132 1    
    14    6  133 1    
    15    7    8 1    
    16    8    9 1    
    17    8  134 1    
    18    8  135 1    
    19    9   10 ar   
    20    9   14 ar   
    21   10   11 ar   
    22   10  136 1    
    23   11   12 ar   
    24   11  126 1    
    25   12   13 ar   
    26   12  137 1    
    27   13   14 ar   
    28   13   15 1    
    29   14  138 1    
    30   15   16 1    
    31   15  139 1    
    32   15  140 1    
    33   16   17 1    
    34   17   18 1    
    35   17  141 1    
    36   17  142 1    
    37   18   19 1    
    38   18   67 1    
    39   18  143 1    
    40   19   20 am   BACKBONE|DICT|INTERRES
    41   19  144 1    
    42   20   21 2    
    43   20   22 1    
    44   22   23 1    
    45   22   24 1    
    46   22  145 1    
    47   23  146 1    
    48   23  147 1    
    49   23  148 1    
    50   24   25 am   BACKBONE|DICT|INTERRES
    51   24  149 1    
    52   25   26 2    
    53   25   27 1    
    54   27   28 1    
    55   27   29 1    
    56   27  150 1    
    57   28  151 1    
    58   28  152 1    
    59   28  153 1    
    60   29   30 am   BACKBONE|DICT|INTERRES
    61   29  154 1    
    62   30   31 2    
    63   30   32 1    
    64   32   33 1    
    65   32   34 1    
    66   32  155 1    
    67   33  156 1    
    68   33  157 1    
    69   33  158 1    
    70   34   35 am   BACKBONE|DICT|INTERRES
    71   34  159 1    
    72   35   36 2    
    73   35   37 1    
    74   37   38 1    
    75   37   39 1    
    76   37  160 1    
    77   38  161 1    
    78   38  162 1    
    79   38  163 1    
    80   39   40 am   BACKBONE|DICT|INTERRES
    81   39  164 1    
    82   40   41 2    
    83   40   42 1    
    84   42   43 1    
    85   42   44 1    
    86   42  165 1    
    87   43  166 1    
    88   43  167 1    
    89   43  168 1    
    90   44   45 am   BACKBONE|DICT|INTERRES
    91   44  169 1    
    92   45   46 2    
    93   45   47 1    
    94   47   48 1    
    95   47   49 1    
    96   47  170 1    
    97   48  171 1    
    98   48  172 1    
    99   48  173 1    
   100   49   50 am   BACKBONE|DICT|INTERRES
   101   49  174 1    
   102   50   51 2    
   103   50   52 1    
   104   52   53 1    
   105   52   54 1    
   106   52  175 1    
   107   53  176 1    
   108   53  177 1    
   109   53  178 1    
   110   54   55 am   BACKBONE|DICT|INTERRES
   111   54  179 1    
   112   55   56 2    
   113   55   57 1    
   114   57   58 1    
   115   57   59 1    
   116   57  180 1    
   117   58  181 1    
   118   58  182 1    
   119   58  183 1    
   120   59   60 am   BACKBONE|DICT|INTERRES
   121   59  184 1    
   122   60   61 2    
   123   60   62 1    
   124   62   63 1    
   125   62   64 1    
   126   62  185 1    
   127   63  186 1    
   128   63  187 1    
   129   63  188 1    
   130   64   65 am   BACKBONE|DICT|INTERRES
   131   64  189 1    
   132   65   66 2    
   133   67   68 2    
   134   67   69 am   BACKBONE|DICT|INTERRES
   135   69   70 1    
   136   69  190 1    
   137   70   71 1    
   138   70   72 1    
   139   70  191 1    
   140   71  192 1    
   141   71  193 1    
   142   71  194 1    
   143   72   73 2    
   144   72   74 am   BACKBONE|DICT|INTERRES
   145   74   75 1    
   146   74  195 1    
   147   75   76 1    
   148   75   77 1    
   149   75  196 1    
   150   76  197 1    
   151   76  198 1    
   152   76  199 1    
   153   77   78 2    
   154   77   79 am   BACKBONE|DICT|INTERRES
   155   79   80 1    
   156   79  200 1    
   157   80   81 1    
   158   80   82 1    
   159   80  201 1    
   160   81  202 1    
   161   81  203 1    
   162   81  204 1    
   163   82   83 2    
   164   82   84 am   BACKBONE|DICT|INTERRES
   165   84   85 1    
   166   84  205 1    
   167   85   86 1    
   168   85   87 1    
   169   85  206 1    
   170   86  207 1    
   171   86  208 1    
   172   86  209 1    
   173   87   88 2    
   174   87   89 am   BACKBONE|DICT|INTERRES
   175   89   90 1    
   176   89  210 1    
   177   90   91 1    
   178   90   92 1    
   179   90  211 1    
   180   91  212 1    
   181   91  213 1    
   182   91  214 1    
   183   92   93 2    
   184   92   94 am   BACKBONE|DICT|INTERRES
   185   94   95 1    
   186   94  215 1    
   187   95   96 1    
   188   95   97 1    
   189   95  216 1    
   190   96  217 1    
   191   96  218 1    
   192   96  219 1    
   193   97   98 2    
   194   97   99 am   BACKBONE|DICT|INTERRES
   195   99  100 1    
   196   99  220 1    
   197  100  101 1    
   198  100  102 1    
   199  100  221 1    
   200  101  222 1    
   201  101  223 1    
   202  101  224 1    
   203  102  103 2    
   204  102  104 am   BACKBONE|DICT|INTERRES
   205  104  105 1    
   206  104  225 1    
   207  105  106 1    
   208  105  107 1    
   209  105  226 1    
   210  106  227 1    
   211  106  228 1    
   212  106  229 1    
   213  107  108 2    
   214  107  109 am   BACKBONE|DICT|INTERRES
   215  109  110 1    
   216  109  230 1    
   217  110  111 1    
   218  110  112 1    
   219  110  231 1    
   220  111  232 1    
   221  111  233 1    
   222  111  234 1    
   223  112  113 2    
   224  112  114 am   BACKBONE|DICT|INTERRES
   225  114  115 1    
   226  114  235 1    
   227  115  116 1    
   228  115  117 1    
   229  115  236 1    
   230  116  237 1    
   231  116  238 1    
   232  116  239 1    
   233  117  118 2    
   234  117  119 am   BACKBONE|DICT|INTERRES
   235  119  120 1    
   236  119  240 1    
   237  120  121 1    
   238  120  124 1    
   239  120  241 1    
   240  121  122 am   BACKBONE|DICT|INTERRES
   241  121  123 2    
   242  122  242 1    
   243  122  243 1    
   244  124  125 1    
   245  124  244 1    
   246  124  245 1    
   247  125  126 1    
   248  126  246 1    
   249  126  247 1    
@<TRIPOS>SUBSTRUCTURE
     1 UNK         1 GROUP             0       ****    0 ROOT    
