@<TRIPOS>MOLECULE
3R540
247   249    1
SMALL
USER_CHARGES


@<TRIPOS>ATOM
      1 CA         -8.0627  -11.8415  -45.5045 C.3       0 UNK        -0.1800 
      2 C          -6.8200  -12.6263  -45.8991 C.2       0 UNK         0.5000 
      3 O          -6.7201  -13.0884  -47.0364 O.2       0 UNK        -0.5000 
      4 N          -5.8673  -12.7732  -44.9708 N.am      1 UNK        -0.5000 
      5 CA         -4.6051  -13.5017  -45.1458 C.3       1 UNK         0.1400 
      6 C6         -4.0452  -14.0175  -43.7958 C.3       23 UNK        -0.0398 
      7 S7         -5.1658  -15.1675  -42.9236 S.3       23 UNK        -0.2404 
      8 C8         -5.1534  -16.6470  -43.9944 C.3       23 UNK        -0.0205 
      9 C9         -3.7505  -17.0868  -44.3921 C.ar      23 UNK        -0.0193 
     10 C10        -3.3348  -16.9974  -45.7242 C.ar      23 UNK        -0.1150 
     11 C11        -2.0297  -17.3390  -46.0873 C.ar      23 UNK        -0.0193 
     12 C12        -1.1374  -17.7732  -45.1013 C.ar      23 UNK        -0.1150 
     13 C13        -1.5352  -17.8537  -43.7613 C.ar      23 UNK        -0.0193 
     14 C14        -2.8510  -17.5310  -43.4196 C.ar      23 UNK        -0.1150 
     15 C15        -0.5290  -18.1695  -42.6594 C.3       23 UNK        -0.0205 
     16 S16         0.5497  -19.5848  -43.0308 S.3       23 UNK        -0.2404 
     17 C17        -0.5050  -20.9973  -42.5635 C.3       23 UNK        -0.0398 
     18 CA         -1.3596  -21.5726  -43.7228 C.3       11 UNK         0.1400 
     19 N          -0.6312  -21.6713  -44.9868 N.am      11 UNK        -0.5000 
     20 C          -1.1815  -21.9050  -46.1850 C.2       10 UNK         0.5000 
     21 O          -2.3902  -22.0364  -46.3794 O.2       10 UNK        -0.5000 
     22 CA         -0.2004  -22.0584  -47.3581 C.3       10 UNK         0.1400 
     23 CB          0.1547  -20.6829  -47.9341 C.3       10 UNK        -0.1800 
     24 N           1.0301  -22.7443  -46.9641 N.am      10 UNK        -0.5000 
     25 C           1.0927  -24.0300  -46.5863 C.2       9 UNK         0.5000 
     26 O           0.1222  -24.7837  -46.5773 O.2       9 UNK        -0.5000 
     27 CA          2.4528  -24.5507  -46.0863 C.3       9 UNK         0.1400 
     28 CB          3.2508  -25.1621  -47.2471 C.3       9 UNK        -0.1800 
     29 N           3.2599  -23.5159  -45.4403 N.am      9 UNK        -0.5000 
     30 C           2.9133  -22.8382  -44.3356 C.2       8 UNK         0.5000 
     31 O           1.8881  -23.0669  -43.6922 O.2       8 UNK        -0.5000 
     32 CA          3.8469  -21.6840  -43.9164 C.3       8 UNK         0.1400 
     33 CB          4.8197  -22.1495  -42.8234 C.3       8 UNK        -0.1800 
     34 N           4.6105  -21.1396  -45.0463 N.am      8 UNK        -0.5000 
     35 C           4.0719  -20.4313  -46.0481 C.2       7 UNK         0.5000 
     36 O           2.8887  -20.0912  -46.0900 O.2       7 UNK        -0.5000 
     37 CA          4.9806  -20.1439  -47.2475 C.3       7 UNK         0.1400 
     38 CB          4.7738  -21.2361  -48.3186 C.3       7 UNK        -0.1800 
     39 N           4.6712  -18.8228  -47.7873 N.am      7 UNK        -0.5000 
     40 C           5.3992  -18.1816  -48.7103 C.2       6 UNK         0.5000 
     41 O           6.4269  -18.6396  -49.2126 O.2       6 UNK        -0.5000 
     42 CA          4.9198  -16.7809  -49.1347 C.3       6 UNK         0.1400 
     43 CB          3.7478  -16.8828  -50.1200 C.3       6 UNK        -0.1800 
     44 N           4.5374  -15.9141  -48.0190 N.am      6 UNK        -0.5000 
     45 C           5.3518  -15.5203  -47.0275 C.2       5 UNK         0.5000 
     46 O           6.5275  -15.8746  -46.9314 O.2       5 UNK        -0.5000 
     47 CA          4.7824  -14.5432  -45.9761 C.3       5 UNK         0.1400 
     48 CB          5.4590  -13.1679  -46.0954 C.3       5 UNK        -0.1800 
     49 N           3.3331  -14.3526  -46.0560 N.am      5 UNK        -0.5000 
     50 C           2.4148  -15.2622  -45.7068 C.2       4 UNK         0.5000 
     51 O           2.6949  -16.3754  -45.2642 O.2       4 UNK        -0.5000 
     52 CA          0.9380  -14.8731  -45.9006 C.3       4 UNK         0.1400 
     53 CB          0.2893  -14.5115  -44.5570 C.3       4 UNK        -0.1800 
     54 N           0.7160  -13.7766  -46.8467 N.am      4 UNK        -0.5000 
     55 C           0.9142  -13.8348  -48.1716 C.2       3 UNK         0.5000 
     56 O           1.3240  -14.8394  -48.7609 O.2       3 UNK        -0.5000 
     57 CA          0.6000  -12.5342  -48.9456 C.3       3 UNK         0.1400 
     58 CB          0.6345  -12.7014  -50.4766 C.3       3 UNK        -0.1800 
     59 N          -0.6578  -11.9011  -48.5291 N.am      3 UNK        -0.5000 
     60 C          -1.8803  -12.4522  -48.5515 C.2       2 UNK         0.5000 
     61 O          -2.1218  -13.5993  -48.9336 O.2       2 UNK        -0.5000 
     62 CA         -3.0378  -11.5556  -48.0768 C.3       2 UNK         0.1400 
     63 CB         -3.8679  -11.0593  -49.2702 C.3       2 UNK        -0.1800 
     64 N          -3.9108  -12.2746  -47.1532 N.am      2 UNK        -0.5000 
     65 C          -3.5691  -12.6521  -45.9161 C.2       1 UNK         0.5000 
     66 O          -2.5025  -12.3347  -45.3858 O.2       1 UNK        -0.5000 
     67 C          -1.9231  -22.9500  -43.3280 C.2       11 UNK         0.5000 
     68 O          -3.1037  -23.0579  -42.9971 O.2       11 UNK        -0.5000 
     69 N          -1.0707  -23.9838  -43.4166 N.am      12 UNK        -0.5000 
     70 CA         -1.4085  -25.3843  -43.1461 C.3       12 UNK         0.1400 
     71 CB         -0.1293  -26.2326  -43.1970 C.3       12 UNK        -0.1800 
     72 C          -2.4742  -25.9458  -44.1074 C.2       12 UNK         0.5000 
     73 O          -3.3240  -26.7300  -43.6854 O.2       12 UNK        -0.5000 
     74 N          -2.4383  -25.4931  -45.3673 N.am      13 UNK        -0.5000 
     75 CA         -3.4250  -25.7830  -46.4087 C.3       13 UNK         0.1400 
     76 CB         -2.7588  -25.5921  -47.7799 C.3       13 UNK        -0.1800 
     77 C          -4.7216  -24.9485  -46.2902 C.2       13 UNK         0.5000 
     78 O          -5.5882  -25.0724  -47.1561 O.2       13 UNK        -0.5000 
     79 N          -4.8433  -24.1348  -45.2299 N.am      14 UNK        -0.5000 
     80 CA         -5.9924  -23.3048  -44.8625 C.3       14 UNK         0.1400 
     81 CB         -7.2383  -24.1711  -44.5774 C.3       14 UNK        -0.1800 
     82 C          -6.2504  -22.1637  -45.8645 C.2       14 UNK         0.5000 
     83 O          -7.3791  -21.9894  -46.3277 O.2       14 UNK        -0.5000 
     84 N          -5.1888  -21.3964  -46.1527 N.am      15 UNK        -0.5000 
     85 CA         -5.1527  -20.2123  -47.0157 C.3       15 UNK         0.1400 
     86 CB         -6.0916  -19.1087  -46.4867 C.3       15 UNK        -0.1800 
     87 C          -5.4173  -20.5753  -48.4868 C.2       15 UNK         0.5000 
     88 O          -6.3181  -20.0195  -49.1203 O.2       15 UNK        -0.5000 
     89 N          -4.6298  -21.5280  -49.0020 N.am      16 UNK        -0.5000 
     90 CA         -4.7443  -22.0923  -50.3485 C.3       16 UNK         0.1400 
     91 CB         -4.0511  -23.4622  -50.3750 C.3       16 UNK        -0.1800 
     92 C          -4.2537  -21.1424  -51.4640 C.2       16 UNK         0.5000 
     93 O          -3.3810  -21.4976  -52.2600 O.2       16 UNK        -0.5000 
     94 N          -4.8542  -19.9492  -51.5311 N.am      17 UNK        -0.5000 
     95 CA         -4.6498  -18.9507  -52.5815 C.3       17 UNK         0.1400 
     96 CB         -5.3687  -17.6523  -52.1880 C.3       17 UNK        -0.1800 
     97 C          -5.1204  -19.4373  -53.9650 C.2       17 UNK         0.5000 
     98 O          -4.5159  -19.0724  -54.9721 O.2       17 UNK        -0.5000 
     99 N          -6.1452  -20.3024  -53.9877 N.am      18 UNK        -0.5000 
    100 CA        -6.6573  -20.9714  -55.1876 C.3       18 UNK         0.1400 
    101 CB        -7.9710  -21.6868  -54.8381 C.3       18 UNK        -0.1800 
    102 C         -5.6528  -21.9628  -55.8112 C.2       18 UNK         0.5000 
    103 O         -5.6909  -22.1818  -57.0221 O.2       18 UNK        -0.5000 
    104 N         -4.7595  -22.5195  -54.9811 N.am      19 UNK        -0.5000 
    105 CA        -3.6444  -23.3748  -55.3945 C.3       19 UNK         0.1400 
    106 CB        -3.4143  -24.4386  -54.3085 C.3       19 UNK        -0.1800 
    107 C         -2.3516  -22.5680  -55.6365 C.2       19 UNK         0.5000 
    108 O         -1.3307  -23.1633  -55.9826 O.2       19 UNK        -0.5000 
    109 N         -2.4090  -21.2431  -55.4266 N.am      20 UNK        -0.5000 
    110 CA        -1.3099  -20.2763  -55.4781 C.3       20 UNK         0.1400 
    111 CB        -0.7443  -20.1564  -56.9091 C.3       20 UNK        -0.1800 
    112 C         -0.2234  -20.5317  -54.4121 C.2       20 UNK         0.5000 
    113 O          0.9464  -20.2228  -54.6476 O.2       20 UNK        -0.5000 
    114 N         -0.6205  -21.0838  -53.2541 N.am      21 UNK        -0.5000 
    115 CA         0.2647  -21.2763  -52.1048 C.3       21 UNK         0.1400 
    116 CB        -0.3417  -22.3092  -51.1431 C.3       21 UNK        -0.1800 
    117 C          0.5294  -19.9402  -51.3902 C.2       21 UNK         0.5000 
    118 O          1.6785  -19.6394  -51.0674 O.2       21 UNK        -0.5000 
    119 N         -0.5396  -19.1579  -51.1855 N.am      22 UNK        -0.5000 
    120 CA        -0.4670  -17.7596  -50.7410 C.3       22 UNK         0.1400 
    121 C          0.1025  -16.8407  -51.8556 C.2       22 UNK         0.5000 
    122 N          0.8634  -15.8193  -51.4942 N.am      22 UNK        -0.7600 
    123 O         -0.1780  -17.0183  -53.0395 O.2       22 UNK        -0.5000 
    124 C124       -1.8421  -17.2252  -50.2654 C.3       23 UNK        -0.0398 
    125 S125       -2.4743  -18.0559  -48.7681 S.3       23 UNK        -0.2404 
    126 C126       -1.5486  -17.1157  -47.5151 C.3       23 UNK        -0.0205 
    127 H127       -8.0136  -11.4967  -44.4714 H         1 UNK         0.0600 
    128 H128       -8.9499  -12.4653  -45.6129 H         1 UNK         0.0600 
    129 H129       -8.1762  -10.9700  -46.1493 H         1 UNK         0.0600 
    130 H130       -6.0021  -12.3579  -44.0600 H         1 UNK         0.3000 
    131 H131       -4.7992  -14.3741  -45.7718 H         1 UNK         0.0600 
    132 H132       -3.0849  -14.5148  -43.9370 H         1 UNK         0.0800 
    133 H133       -3.8445  -13.1788  -43.1271 H         1 UNK         0.0800 
    134 H134       -5.6467  -17.4636  -43.4658 H         1 UNK         0.0800 
    135 H135       -5.7610  -16.4454  -44.8778 H         1 UNK         0.0800 
    136 H136       -4.0148  -16.6315  -46.4802 H         1 UNK         0.1150 
    137 H137       -0.1130  -17.9971  -45.3652 H         1 UNK         0.1150 
    138 H138       -3.1649  -17.5681  -42.3859 H         1 UNK         0.1150 
    139 H139       -1.0293  -18.3345  -41.7041 H         1 UNK         0.0800 
    140 H140        0.1030  -17.2925  -42.5194 H         1 UNK         0.0800 
    141 H141       -1.1491  -20.7108  -41.7308 H         1 UNK         0.0800 
    142 H142        0.1688  -21.7561  -42.1621 H         1 UNK         0.0800 
    143 H143       -2.2023  -20.8968  -43.8853 H         1 UNK         0.0600 
    144 H144        0.3729  -21.5816  -44.9217 H         1 UNK         0.3000 
    145 H145       -0.6856  -22.6518  -48.1353 H         1 UNK         0.0600 
    146 H146       -0.6949  -20.2688  -48.4733 H         1 UNK         0.0600 
    147 H147        0.9894  -20.7457  -48.6307 H         1 UNK         0.0600 
    148 H148        0.4291  -19.9695  -47.1560 H         1 UNK         0.0600 
    149 H149        1.8621  -22.1749  -46.9017 H         1 UNK         0.3000 
    150 H150        2.2606  -25.3331  -45.3500 H         1 UNK         0.0600 
    151 H151        3.4863  -24.4195  -48.0106 H         1 UNK         0.0600 
    152 H152        2.6858  -25.9606  -47.7300 H         1 UNK         0.0600 
    153 H153        4.1882  -25.5952  -46.8977 H         1 UNK         0.0600 
    154 H154        4.1289  -23.2746  -45.8914 H         1 UNK         0.3000 
    155 H155        3.2253  -20.8870  -43.5046 H         1 UNK         0.0600 
    156 H156        5.4789  -22.9420  -43.1799 H         1 UNK         0.0600 
    157 H157        4.2779  -22.5367  -41.9593 H         1 UNK         0.0600 
    158 H158        5.4418  -21.3260  -42.4726 H         1 UNK         0.0600 
    159 H159        5.5911  -21.3799  -45.0829 H         1 UNK         0.3000 
    160 H160        6.0203  -20.1496  -46.9138 H         1 UNK         0.0600 
    161 H161        3.7576  -21.2194  -48.7157 H         1 UNK         0.0600 
    162 H162        4.9504  -22.2302  -47.9069 H         1 UNK         0.0600 
    163 H163        5.4591  -21.1166  -49.1572 H         1 UNK         0.0600 
    164 H164        3.8463  -18.3841  -47.3970 H         1 UNK         0.3000 
    165 H165        5.7502  -16.2962  -49.6522 H         1 UNK         0.0600 
    166 H166        3.4991  -15.9043  -50.5300 H         1 UNK         0.0600 
    167 H167        3.9928  -17.5337  -50.9604 H         1 UNK         0.0600 
    168 H168        2.8537  -17.2875  -49.6440 H         1 UNK         0.0600 
    169 H169        3.5873  -15.5693  -48.0236 H         1 UNK         0.3000 
    170 H170        5.0184  -14.9553  -44.9928 H         1 UNK         0.0600 
    171 H171        5.1164  -12.4896  -45.3136 H         1 UNK         0.0600 
    172 H172        5.2541  -12.7016  -47.0599 H         1 UNK         0.0600 
    173 H173        6.5420  -13.2526  -45.9957 H         1 UNK         0.0600 
    174 H174        3.0124  -13.4635  -46.4093 H         1 UNK         0.3000 
    175 H175        0.4406  -15.7554  -46.2928 H         1 UNK         0.0600 
    176 H176        0.4493  -15.2973  -43.8187 H         1 UNK         0.0600 
    177 H177        0.6968  -13.5869  -44.1470 H         1 UNK         0.0600 
    178 H178       -0.7875  -14.3880  -44.6656 H         1 UNK         0.0600 
    179 H179        0.3456  -12.9212  -46.4574 H         1 UNK         0.3000 
    180 H180        1.3961  -11.8366  -48.6818 H         1 UNK         0.0600 
    181 H181       -0.1515  -13.3698  -50.8278 H         1 UNK         0.0600 
    182 H182        1.5923  -13.1045  -50.8071 H         1 UNK         0.0600 
    183 H183        0.5003  -11.7427  -50.9774 H         1 UNK         0.0600 
    184 H184       -0.5705  -10.9533  -48.1891 H         1 UNK         0.3000 
    185 H185       -2.6306  -10.6865  -47.5556 H         1 UNK         0.0600 
    186 H186       -3.2473  -10.5008  -49.9721 H         1 UNK         0.0600 
    187 H187       -4.3198  -11.8876  -49.8179 H         1 UNK         0.0600 
    188 H188       -4.6694  -10.3957  -48.9448 H         1 UNK         0.0600 
    189 H189       -4.8144  -12.5715  -47.5062 H         1 UNK         0.3000 
    190 H190       -0.1107  -23.7912  -43.6813 H         1 UNK         0.3000 
    191 H191       -1.8141  -25.4367  -42.1337 H         1 UNK         0.0600 
    192 H192        0.6223  -25.8586  -42.5013 H         1 UNK         0.0600 
    193 H193       -0.3382  -27.2682  -42.9260 H         1 UNK         0.0600 
    194 H194        0.3097  -26.2381  -44.1946 H         1 UNK         0.0600 
    195 H195       -1.6535  -24.9148  -45.6493 H         1 UNK         0.3000 
    196 H196       -3.7153  -26.8320  -46.3234 H         1 UNK         0.0600 
    197 H197       -3.4240  -25.9013  -48.5861 H         1 UNK         0.0600 
    198 H198       -1.8551  -26.1953  -47.8667 H         1 UNK         0.0600 
    199 H199       -2.4840  -24.5506  -47.9490 H         1 UNK         0.0600 
    200 H200       -4.0608  -24.0761  -44.5892 H         1 UNK         0.3000 
    201 H201       -5.7221  -22.8200  -43.9234 H         1 UNK         0.0600 
    202 H202       -8.0493  -23.5637  -44.1740 H         1 UNK         0.0600 
    203 H203       -7.0189  -24.9468  -43.8437 H         1 UNK         0.0600 
    204 H204       -7.6143  -24.6572  -45.4779 H         1 UNK         0.0600 
    205 H205       -4.2792  -21.6931  -45.8128 H         1 UNK         0.3000 
    206 H206       -4.1330  -19.8288  -46.9616 H         1 UNK         0.0600 
    207 H207       -5.9214  -18.9308  -45.4267 H         1 UNK         0.0600 
    208 H208       -5.9213  -18.1699  -47.0143 H         1 UNK         0.0600 
    209 H209       -7.1434  -19.3658  -46.6139 H         1 UNK         0.0600 
    210 H210       -3.9120  -21.9188  -48.4071 H         1 UNK         0.3000 
    211 H211       -5.8032  -22.2713  -50.5460 H         1 UNK         0.0600 
    212 H212       -2.9897  -23.3897  -50.1407 H         1 UNK         0.0600 
    213 H213       -4.1472  -23.9343  -51.3521 H         1 UNK         0.0600 
    214 H214       -4.5129  -24.1352  -49.6539 H         1 UNK         0.0600 
    215 H215       -5.5379  -19.7323  -50.8096 H         1 UNK         0.3000 
    216 H216       -3.5795  -18.7500  -52.6535 H         1 UNK         0.0600 
    217 H217       -6.4477  -17.7960  -52.1181 H         1 UNK         0.0600 
    218 H218       -5.1874  -16.8673  -52.9232 H         1 UNK         0.0600 
    219 H219       -5.0204  -17.2825  -51.2234 H         1 UNK         0.0600 
    220 H220       -6.5892  -20.5393  -53.1127 H         1 UNK         0.3000 
    221 H221       -6.8718  -20.2054  -55.9358 H         1 UNK         0.0600 
    222 H222       -7.8222  -22.4533  -54.0765 H         1 UNK         0.0600 
    223 H223       -8.7169  -20.9836  -54.4669 H         1 UNK         0.0600 
    224 H224       -8.3956  -22.1748  -55.7164 H         1 UNK         0.0600 
    225 H225       -4.7782  -22.2632  -54.0039 H         1 UNK         0.3000 
    226 H226       -3.8957  -23.8869  -56.3255 H         1 UNK         0.0600 
    227 H227       -4.3349  -24.9710  -54.0691 H         1 UNK         0.0600 
    228 H228       -2.6870  -25.1810  -54.6391 H         1 UNK         0.0600 
    229 H229       -3.0288  -23.9954  -53.3903 H         1 UNK         0.0600 
    230 H230       -3.3044  -20.8476  -55.1707 H         1 UNK         0.3000 
    231 H231       -1.7484  -19.3107  -55.2224 H         1 UNK         0.0600 
    232 H232       -0.2147  -21.0591  -57.2142 H         1 UNK         0.0600 
    233 H233       -0.0415  -19.3258  -56.9827 H         1 UNK         0.0600 
    234 H234       -1.5387  -19.9716  -57.6322 H         1 UNK         0.0600 
    235 H235       -1.6003  -21.3145  -53.1197 H         1 UNK         0.3000 
    236 H236        1.2185  -21.6706  -52.4622 H         1 UNK         0.0600 
    237 H237       -1.2231  -21.9183  -50.6354 H         1 UNK         0.0600 
    238 H238       -0.6310  -23.2203  -51.6673 H         1 UNK         0.0600 
    239 H239        0.3813  -22.5903  -50.3770 H         1 UNK         0.0600 
    240 H240       -1.4405  -19.4835  -51.4988 H         1 UNK         0.3000 
    241 H241        0.2246  -17.7181  -49.8972 H         1 UNK         0.0600 
    242 H242        1.2270  -15.2142  -52.2119 H         1 UNK         0.3800 
    243 H243        1.0641  -15.6143  -50.5194 H         1 UNK         0.3800 
    244 H244       -2.5828  -17.3324  -51.0564 H         1 UNK         0.0800 
    245 H245       -1.7887  -16.1536  -50.0623 H         1 UNK         0.0800 
    246 H246       -0.4949  -17.3806  -47.6097 H         1 UNK         0.0800 
    247 H247       -1.6222  -16.0488  -47.7309 H         1 UNK         0.0800 
@<TRIPOS>BOND
     1    1    2 1    
     2    1  127 1    
     3    1  128 1    
     4    1  129 1    
     5    2    3 2    
     6    2    4 am   BACKBONE|DICT|INTERRES
     7    4    5 1    
     8    4  130 1    
     9    5    6 1    
    10    5   65 1    
    11    5  131 1    
    12    6    7 1    
    13    6  132 1    
    14    6  133 1    
    15    7    8 1    
    16    8    9 1    
    17    8  134 1    
    18    8  135 1    
    19    9   10 ar   
    20    9   14 ar   
    21   10   11 ar   
    22   10  136 1    
    23   11   12 ar   
    24   11  126 1    
    25   12   13 ar   
    26   12  137 1    
    27   13   14 ar   
    28   13   15 1    
    29   14  138 1    
    30   15   16 1    
    31   15  139 1    
    32   15  140 1    
    33   16   17 1    
    34   17   18 1    
    35   17  141 1    
    36   17  142 1    
    37   18   19 1    
    38   18   67 1    
    39   18  143 1    
    40   19   20 am   BACKBONE|DICT|INTERRES
    41   19  144 1    
    42   20   21 2    
    43   20   22 1    
    44   22   23 1    
    45   22   24 1    
    46   22  145 1    
    47   23  146 1    
    48   23  147 1    
    49   23  148 1    
    50   24   25 am   BACKBONE|DICT|INTERRES
    51   24  149 1    
    52   25   26 2    
    53   25   27 1    
    54   27   28 1    
    55   27   29 1    
    56   27  150 1    
    57   28  151 1    
    58   28  152 1    
    59   28  153 1    
    60   29   30 am   BACKBONE|DICT|INTERRES
    61   29  154 1    
    62   30   31 2    
    63   30   32 1    
    64   32   33 1    
    65   32   34 1    
    66   32  155 1    
    67   33  156 1    
    68   33  157 1    
    69   33  158 1    
    70   34   35 am   BACKBONE|DICT|INTERRES
    71   34  159 1    
    72   35   36 2    
    73   35   37 1    
    74   37   38 1    
    75   37   39 1    
    76   37  160 1    
    77   38  161 1    
    78   38  162 1    
    79   38  163 1    
    80   39   40 am   BACKBONE|DICT|INTERRES
    81   39  164 1    
    82   40   41 2    
    83   40   42 1    
    84   42   43 1    
    85   42   44 1    
    86   42  165 1    
    87   43  166 1    
    88   43  167 1    
    89   43  168 1    
    90   44   45 am   BACKBONE|DICT|INTERRES
    91   44  169 1    
    92   45   46 2    
    93   45   47 1    
    94   47   48 1    
    95   47   49 1    
    96   47  170 1    
    97   48  171 1    
    98   48  172 1    
    99   48  173 1    
   100   49   50 am   BACKBONE|DICT|INTERRES
   101   49  174 1    
   102   50   51 2    
   103   50   52 1    
   104   52   53 1    
   105   52   54 1    
   106   52  175 1    
   107   53  176 1    
   108   53  177 1    
   109   53  178 1    
   110   54   55 am   BACKBONE|DICT|INTERRES
   111   54  179 1    
   112   55   56 2    
   113   55   57 1    
   114   57   58 1    
   115   57   59 1    
   116   57  180 1    
   117   58  181 1    
   118   58  182 1    
   119   58  183 1    
   120   59   60 am   BACKBONE|DICT|INTERRES
   121   59  184 1    
   122   60   61 2    
   123   60   62 1    
   124   62   63 1    
   125   62   64 1    
   126   62  185 1    
   127   63  186 1    
   128   63  187 1    
   129   63  188 1    
   130   64   65 am   BACKBONE|DICT|INTERRES
   131   64  189 1    
   132   65   66 2    
   133   67   68 2    
   134   67   69 am   BACKBONE|DICT|INTERRES
   135   69   70 1    
   136   69  190 1    
   137   70   71 1    
   138   70   72 1    
   139   70  191 1    
   140   71  192 1    
   141   71  193 1    
   142   71  194 1    
   143   72   73 2    
   144   72   74 am   BACKBONE|DICT|INTERRES
   145   74   75 1    
   146   74  195 1    
   147   75   76 1    
   148   75   77 1    
   149   75  196 1    
   150   76  197 1    
   151   76  198 1    
   152   76  199 1    
   153   77   78 2    
   154   77   79 am   BACKBONE|DICT|INTERRES
   155   79   80 1    
   156   79  200 1    
   157   80   81 1    
   158   80   82 1    
   159   80  201 1    
   160   81  202 1    
   161   81  203 1    
   162   81  204 1    
   163   82   83 2    
   164   82   84 am   BACKBONE|DICT|INTERRES
   165   84   85 1    
   166   84  205 1    
   167   85   86 1    
   168   85   87 1    
   169   85  206 1    
   170   86  207 1    
   171   86  208 1    
   172   86  209 1    
   173   87   88 2    
   174   87   89 am   BACKBONE|DICT|INTERRES
   175   89   90 1    
   176   89  210 1    
   177   90   91 1    
   178   90   92 1    
   179   90  211 1    
   180   91  212 1    
   181   91  213 1    
   182   91  214 1    
   183   92   93 2    
   184   92   94 am   BACKBONE|DICT|INTERRES
   185   94   95 1    
   186   94  215 1    
   187   95   96 1    
   188   95   97 1    
   189   95  216 1    
   190   96  217 1    
   191   96  218 1    
   192   96  219 1    
   193   97   98 2    
   194   97   99 am   BACKBONE|DICT|INTERRES
   195   99  100 1    
   196   99  220 1    
   197  100  101 1    
   198  100  102 1    
   199  100  221 1    
   200  101  222 1    
   201  101  223 1    
   202  101  224 1    
   203  102  103 2    
   204  102  104 am   BACKBONE|DICT|INTERRES
   205  104  105 1    
   206  104  225 1    
   207  105  106 1    
   208  105  107 1    
   209  105  226 1    
   210  106  227 1    
   211  106  228 1    
   212  106  229 1    
   213  107  108 2    
   214  107  109 am   BACKBONE|DICT|INTERRES
   215  109  110 1    
   216  109  230 1    
   217  110  111 1    
   218  110  112 1    
   219  110  231 1    
   220  111  232 1    
   221  111  233 1    
   222  111  234 1    
   223  112  113 2    
   224  112  114 am   BACKBONE|DICT|INTERRES
   225  114  115 1    
   226  114  235 1    
   227  115  116 1    
   228  115  117 1    
   229  115  236 1    
   230  116  237 1    
   231  116  238 1    
   232  116  239 1    
   233  117  118 2    
   234  117  119 am   BACKBONE|DICT|INTERRES
   235  119  120 1    
   236  119  240 1    
   237  120  121 1    
   238  120  124 1    
   239  120  241 1    
   240  121  122 am   BACKBONE|DICT|INTERRES
   241  121  123 2    
   242  122  242 1    
   243  122  243 1    
   244  124  125 1    
   245  124  244 1    
   246  124  245 1    
   247  125  126 1    
   248  126  246 1    
   249  126  247 1    
@<TRIPOS>SUBSTRUCTURE
     1 UNK         1 GROUP             0       ****    0 ROOT    
