@<TRIPOS>MOLECULE
3R540
247   249    1
SMALL
USER_CHARGES


@<TRIPOS>ATOM
      1 CA         -4.3313  -14.6767  -48.3706 C.3       0 UNK        -0.1800 
      2 C          -3.1621  -13.7435  -48.6524 C.2       0 UNK         0.5000 
      3 O          -3.3620  -12.6581  -49.1979 O.2       0 UNK        -0.5000 
      4 N          -1.9442  -14.1731  -48.3009 N.am      1 UNK        -0.5000 
      5 CA         -0.6858  -13.4433  -48.4973 C.3       1 UNK         0.1400 
      6 C6          0.5625  -14.3280  -48.2294 C.3       23 UNK        -0.0398 
      7 S7          0.4338  -16.0025  -48.9534 S.3       23 UNK        -0.2404 
      8 C8          1.8205  -16.0737  -50.1255 C.3       23 UNK        -0.0205 
      9 C9          2.0318  -17.5101  -50.5813 C.ar      23 UNK        -0.0193 
     10 C10         1.4848  -17.9709  -51.7838 C.ar      23 UNK        -0.1150 
     11 C11         1.6173  -19.3159  -52.1637 C.ar      23 UNK        -0.0193 
     12 C12         2.3276  -20.1835  -51.3284 C.ar      23 UNK        -0.1150 
     13 C13         2.8947  -19.7329  -50.1335 C.ar      23 UNK        -0.0193 
     14 C14         2.7485  -18.3925  -49.7700 C.ar      23 UNK        -0.1150 
     15 C15         3.6489  -20.7018  -49.2309 C.3       23 UNK        -0.0205 
     16 S16         2.9240  -20.8153  -47.5619 S.3       23 UNK        -0.2404 
     17 C17         1.1990  -21.2902  -47.9240 C.3       23 UNK        -0.0398 
     18 CA          0.7499  -22.5413  -47.1359 C.3       11 UNK         0.1400 
     19 N           0.6502  -22.3009  -45.6944 N.am      11 UNK        -0.5000 
     20 C           0.4042  -23.2423  -44.7730 C.2       10 UNK         0.5000 
     21 O           0.2772  -24.4393  -45.0346 O.2       10 UNK        -0.5000 
     22 CA          0.2194  -22.7597  -43.3225 C.3       10 UNK         0.1400 
     23 CB          1.5725  -22.4607  -42.6597 C.3       10 UNK        -0.1800 
     24 N          -0.6480  -21.5841  -43.2291 N.am      10 UNK        -0.5000 
     25 C          -1.9516  -21.5814  -43.5434 C.2       9 UNK         0.5000 
     26 O          -2.5674  -22.5802  -43.9172 O.2       9 UNK        -0.5000 
     27 CA         -2.6833  -20.2282  -43.4654 C.3       9 UNK         0.1400 
     28 CB         -3.0481  -19.8854  -42.0133 C.3       9 UNK        -0.1800 
     29 N          -1.9141  -19.1286  -44.0476 N.am      9 UNK        -0.5000 
     30 C          -1.5338  -19.0641  -45.3314 C.2       8 UNK         0.5000 
     31 O          -1.8180  -19.9120  -46.1737 O.2       8 UNK        -0.5000 
     32 CA         -0.6362  -17.8814  -45.7302 C.3       8 UNK         0.1400 
     33 CB         -1.4772  -16.6058  -45.8848 C.3       8 UNK        -0.1800 
     34 N           0.4518  -17.6529  -44.7778 N.am      8 UNK        -0.5000 
     35 C           1.3654  -18.5703  -44.4248 C.2       7 UNK         0.5000 
     36 O           1.4028  -19.7114  -44.8766 O.2       7 UNK        -0.5000 
     37 CA          2.3640  -18.1716  -43.3293 C.3       7 UNK         0.1400 
     38 CB          3.5010  -17.3176  -43.9082 C.3       7 UNK        -0.1800 
     39 N           1.6947  -17.4616  -42.2408 N.am      7 UNK        -0.5000 
     40 C           0.8431  -18.0419  -41.3818 C.2       6 UNK         0.5000 
     41 O           0.5912  -19.2478  -41.3754 O.2       6 UNK        -0.5000 
     42 CA          0.1203  -17.1072  -40.3944 C.3       6 UNK         0.1400 
     43 CB          0.9992  -16.8289  -39.1660 C.3       6 UNK        -0.1800 
     44 N          -0.2693  -15.8379  -41.0122 N.am      6 UNK        -0.5000 
     45 C          -1.1981  -15.7203  -41.9719 C.2       5 UNK         0.5000 
     46 O          -1.8587  -16.6676  -42.3980 O.2       5 UNK        -0.5000 
     47 CA         -1.3924  -14.3194  -42.5849 C.3       5 UNK         0.1400 
     48 CB         -2.4474  -13.5269  -41.7998 C.3       5 UNK        -0.1800 
     49 N          -0.1570  -13.5347  -42.6592 N.am      5 UNK        -0.5000 
     50 C           0.9228  -13.8624  -43.3796 C.2       4 UNK         0.5000 
     51 O           0.9983  -14.8951  -44.0474 O.2       4 UNK        -0.5000 
     52 CA          2.1086  -12.8763  -43.3286 C.3       4 UNK         0.1400 
     53 CB          3.3124  -13.3483  -44.1622 C.3       4 UNK        -0.1800 
     54 N           1.7336  -11.5390  -43.7821 N.am      4 UNK        -0.5000 
     55 C           1.0757  -10.6126  -43.0788 C.2       3 UNK         0.5000 
     56 O           0.6571  -10.8042  -41.9360 O.2       3 UNK        -0.5000 
     57 CA          0.8316   -9.2502  -43.7602 C.3       3 UNK         0.1400 
     58 CB          2.0963   -8.3717  -43.7107 C.3       3 UNK        -0.1800 
     59 N           0.2870   -9.3289  -45.1240 N.am      3 UNK        -0.5000 
     60 C           0.8489   -9.8241  -46.2357 C.2       2 UNK         0.5000 
     61 O           1.9814  -10.3101  -46.2898 O.2       2 UNK        -0.5000 
     62 CA         -0.0136   -9.7746  -47.5100 C.3       2 UNK         0.1400 
     63 CB          0.5456   -8.7452  -48.5042 C.3       2 UNK        -0.1800 
     64 N          -0.1045  -11.0792  -48.1677 N.am      2 UNK        -0.5000 
     65 C          -0.6519  -12.1731  -47.6210 C.2       1 UNK         0.5000 
     66 O          -1.1192  -12.2086  -46.4792 O.2       1 UNK        -0.5000 
     67 C          -0.5691  -23.0862  -47.7119 C.2       11 UNK         0.5000 
     68 O          -0.5327  -24.0514  -48.4728 O.2       11 UNK        -0.5000 
     69 N          -1.7051  -22.4911  -47.3217 N.am      12 UNK        -0.5000 
     70 CA         -3.0387  -22.9129  -47.7458 C.3       12 UNK         0.1400 
     71 CB         -4.0897  -21.8992  -47.2684 C.3       12 UNK        -0.1800 
     72 C          -3.3951  -24.3322  -47.2735 C.2       12 UNK         0.5000 
     73 O          -3.9304  -25.1173  -48.0569 O.2       12 UNK        -0.5000 
     74 N          -3.0510  -24.6517  -46.0177 N.am      13 UNK        -0.5000 
     75 CA         -3.2124  -25.9818  -45.4303 C.3       13 UNK         0.1400 
     76 CB         -2.8960  -25.9231  -43.9284 C.3       13 UNK        -0.1800 
     77 C          -2.3537  -27.0522  -46.1301 C.2       13 UNK         0.5000 
     78 O          -2.8316  -28.1679  -46.3380 O.2       13 UNK        -0.5000 
     79 N          -1.1173  -26.6896  -46.4993 N.am      14 UNK        -0.5000 
     80 CA         -0.1940  -27.5449  -47.2444 C.3       14 UNK         0.1400 
     81 CB          1.2210  -26.9491  -47.1794 C.3       14 UNK        -0.1800 
     82 C          -0.6321  -27.7624  -48.7053 C.2       14 UNK         0.5000 
     83 O          -0.5761  -28.8920  -49.1932 O.2       14 UNK        -0.5000 
     84 N          -1.0568  -26.6826  -49.3754 N.am      15 UNK        -0.5000 
     85 CA         -1.4937  -26.6868  -50.7725 C.3       15 UNK         0.1400 
     86 CB         -1.5236  -25.2409  -51.2957 C.3       15 UNK        -0.1800 
     87 C          -2.8669  -27.3468  -50.9886 C.2       15 UNK         0.5000 
     88 O          -3.1084  -27.8801  -52.0722 O.2       15 UNK        -0.5000 
     89 N          -3.7419  -27.2665  -49.9743 N.am      16 UNK        -0.5000 
     90 CA         -5.1655  -27.6229  -50.0024 C.3       16 UNK         0.1400 
     91 CB         -5.3645  -29.1370  -50.2231 C.3       16 UNK        -0.1800 
     92 C          -5.9527  -26.7427  -50.9990 C.2       16 UNK         0.5000 
     93 O          -6.8286  -27.2299  -51.7164 O.2       16 UNK        -0.5000 
     94 N          -5.6023  -25.4534  -51.0264 N.am      17 UNK        -0.5000 
     95 CA         -6.1305  -24.4107  -51.8980 C.3       17 UNK         0.1400 
     96 CB         -5.4746  -24.5121  -53.2878 C.3       17 UNK        -0.1800 
     97 C          -5.8260  -23.0569  -51.2412 C.2       17 UNK         0.5000 
     98 O          -5.0205  -23.0036  -50.3111 O.2       17 UNK        -0.5000 
     99 N          -6.4628  -21.9832  -51.7207 N.am      18 UNK        -0.5000 
    100 CA        -6.2466  -20.6240  -51.2226 C.3       18 UNK         0.1400 
    101 CB        -7.3166  -19.6929  -51.8133 C.3       18 UNK        -0.1800 
    102 C         -4.8331  -20.1090  -51.5546 C.2       18 UNK         0.5000 
    103 O         -4.4395  -20.1229  -52.7232 O.2       18 UNK        -0.5000 
    104 N         -4.1077  -19.6376  -50.5331 N.am      19 UNK        -0.5000 
    105 CA        -2.8158  -18.9672  -50.6857 C.3       19 UNK         0.1400 
    106 CB        -2.1273  -18.8781  -49.3173 C.3       19 UNK        -0.1800 
    107 C         -2.9852  -17.5742  -51.3228 C.2       19 UNK         0.5000 
    108 O         -4.0729  -16.9961  -51.2640 O.2       19 UNK        -0.5000 
    109 N         -1.9184  -17.0894  -51.9680 N.am      20 UNK        -0.5000 
    110 CA        -1.8241  -15.8879  -52.8134 C.3       20 UNK         0.1400 
    111 CB        -2.2264  -14.6081  -52.0624 C.3       20 UNK        -0.1800 
    112 C         -2.5554  -16.0134  -54.1657 C.2       20 UNK         0.5000 
    113 O         -2.0429  -15.5145  -55.1683 O.2       20 UNK        -0.5000 
    114 N         -3.6970  -16.7144  -54.1942 N.am      21 UNK        -0.5000 
    115 CA        -4.3241  -17.2221  -55.4147 C.3       21 UNK         0.1400 
    116 CB        -5.7666  -17.6572  -55.1145 C.3       21 UNK        -0.1800 
    117 C         -3.4948  -18.3817  -55.9990 C.2       21 UNK         0.5000 
    118 O         -3.1649  -18.3594  -57.1852 O.2       21 UNK        -0.5000 
    119 N         -3.1301  -19.3356  -55.1298 N.am      22 UNK        -0.5000 
    120 CA        -2.1783  -20.4347  -55.3687 C.3       22 UNK         0.1400 
    121 C         -2.6673  -21.5192  -56.3767 C.2       22 UNK         0.5000 
    122 N         -3.9591  -21.6130  -56.6675 N.am      22 UNK        -0.7600 
    123 O         -1.8744  -22.3092  -56.8821 O.2       22 UNK        -0.5000 
    124 C124       -0.7343  -19.9340  -55.6677 C.3       23 UNK        -0.0398 
    125 S125       -0.0936  -18.7993  -54.3845 S.3       23 UNK        -0.2404 
    126 C126        1.0232  -19.8978  -53.4505 C.3       23 UNK        -0.0205 
    127 H127       -4.8649  -14.8957  -49.2959 H         1 UNK         0.0600 
    128 H128       -5.0276  -14.2084  -47.6750 H         1 UNK         0.0600 
    129 H129       -4.0034  -15.6233  -47.9412 H         1 UNK         0.0600 
    130 H130       -1.8445  -15.0739  -47.8594 H         1 UNK         0.3000 
    131 H131       -0.6557  -13.1323  -49.5432 H         1 UNK         0.0600 
    132 H132        1.4575  -13.8344  -48.6112 H         1 UNK         0.0800 
    133 H133        0.7291  -14.4515  -47.1575 H         1 UNK         0.0800 
    134 H134        2.7286  -15.7018  -49.6486 H         1 UNK         0.0800 
    135 H135        1.6171  -15.4204  -50.9752 H         1 UNK         0.0800 
    136 H136        0.9544  -17.2718  -52.4103 H         1 UNK         0.1150 
    137 H137        2.4354  -21.2217  -51.6106 H         1 UNK         0.1150 
    138 H138        3.1674  -18.0428  -48.8367 H         1 UNK         0.1150 
    139 H139        3.6795  -21.7005  -49.6692 H         1 UNK         0.0800 
    140 H140        4.6848  -20.3717  -49.1444 H         1 UNK         0.0800 
    141 H141        1.1025  -21.4701  -48.9959 H         1 UNK         0.0800 
    142 H142        0.5532  -20.4390  -47.7013 H         1 UNK         0.0800 
    143 H143        1.5025  -23.3193  -47.2814 H         1 UNK         0.0600 
    144 H144        0.7927  -21.3391  -45.3888 H         1 UNK         0.3000 
    145 H145       -0.2566  -23.5684  -42.7640 H         1 UNK         0.0600 
    146 H146        1.4448  -22.1757  -41.6152 H         1 UNK         0.0600 
    147 H147        2.2191  -23.3387  -42.6819 H         1 UNK         0.0600 
    148 H148        2.1016  -21.6516  -43.1631 H         1 UNK         0.0600 
    149 H149       -0.2142  -20.7183  -42.9331 H         1 UNK         0.3000 
    150 H150       -3.6098  -20.3207  -44.0356 H         1 UNK         0.0600 
    151 H151       -3.6370  -20.6832  -41.5592 H         1 UNK         0.0600 
    152 H152       -3.6416  -18.9724  -41.9621 H         1 UNK         0.0600 
    153 H153       -2.1597  -19.7400  -41.3980 H         1 UNK         0.0600 
    154 H154       -1.6733  -18.3603  -43.4286 H         1 UNK         0.3000 
    155 H155       -0.1780  -18.1122  -46.6940 H         1 UNK         0.0600 
    156 H156       -2.0889  -16.4101  -45.0052 H         1 UNK         0.0600 
    157 H157       -0.8507  -15.7314  -46.0490 H         1 UNK         0.0600 
    158 H158       -2.1542  -16.6985  -46.7331 H         1 UNK         0.0600 
    159 H159        0.5281  -16.7184  -44.3859 H         1 UNK         0.3000 
    160 H160        2.8028  -19.0844  -42.9203 H         1 UNK         0.0600 
    161 H161        3.1221  -16.4418  -44.4336 H         1 UNK         0.0600 
    162 H162        4.0855  -17.8941  -44.6262 H         1 UNK         0.0600 
    163 H163        4.1835  -16.9792  -43.1285 H         1 UNK         0.0600 
    164 H164        1.8032  -16.4589  -42.2173 H         1 UNK         0.3000 
    165 H165       -0.7861  -17.6154  -40.0582 H         1 UNK         0.0600 
    166 H166        0.4667  -16.2281  -38.4285 H         1 UNK         0.0600 
    167 H167        1.2905  -17.7593  -38.6767 H         1 UNK         0.0600 
    168 H168        1.9138  -16.2988  -39.4345 H         1 UNK         0.0600 
    169 H169        0.2231  -15.0091  -40.7133 H         1 UNK         0.3000 
    170 H170       -1.7580  -14.4529  -43.6047 H         1 UNK         0.0600 
    171 H171       -3.3888  -14.0756  -41.7469 H         1 UNK         0.0600 
    172 H172       -2.1237  -13.3285  -40.7773 H         1 UNK         0.0600 
    173 H173       -2.6565  -12.5696  -42.2776 H         1 UNK         0.0600 
    174 H174       -0.1369  -12.6521  -42.1589 H         1 UNK         0.3000 
    175 H175        2.4319  -12.8125  -42.2876 H         1 UNK         0.0600 
    176 H176        3.0454  -13.4973  -45.2095 H         1 UNK         0.0600 
    177 H177        4.1264  -12.6241  -44.1250 H         1 UNK         0.0600 
    178 H178        3.7058  -14.2894  -43.7795 H         1 UNK         0.0600 
    179 H179        1.9947  -11.2903  -44.7334 H         1 UNK         0.3000 
    180 H180        0.0655   -8.7446  -43.1701 H         1 UNK         0.0600 
    181 H181        2.9232   -8.8108  -44.2693 H         1 UNK         0.0600 
    182 H182        2.4351   -8.2371  -42.6827 H         1 UNK         0.0600 
    183 H183        1.9036   -7.3806  -44.1212 H         1 UNK         0.0600 
    184 H184       -0.6628   -8.9927  -45.2043 H         1 UNK         0.3000 
    185 H185       -1.0273   -9.4702  -47.2407 H         1 UNK         0.0600 
    186 H186        0.6081   -7.7564  -48.0480 H         1 UNK         0.0600 
    187 H187        1.5474   -9.0143  -48.8419 H         1 UNK         0.0600 
    188 H188       -0.0932   -8.6565  -49.3832 H         1 UNK         0.0600 
    189 H189        0.2801  -11.1331  -49.0995 H         1 UNK         0.3000 
    190 H190       -1.6603  -21.6668  -46.7261 H         1 UNK         0.3000 
    191 H191       -3.0299  -22.9172  -48.8355 H         1 UNK         0.0600 
    192 H192       -4.0970  -21.8082  -46.1819 H         1 UNK         0.0600 
    193 H193       -5.0904  -22.1987  -47.5821 H         1 UNK         0.0600 
    194 H194       -3.9026  -20.9107  -47.6859 H         1 UNK         0.0600 
    195 H195       -2.6502  -23.9348  -45.4207 H         1 UNK         0.3000 
    196 H196       -4.2591  -26.2707  -45.5452 H         1 UNK         0.0600 
    197 H197       -3.0223  -26.9015  -43.4633 H         1 UNK         0.0600 
    198 H198       -3.5609  -25.2296  -43.4132 H         1 UNK         0.0600 
    199 H199       -1.8708  -25.6007  -43.7445 H         1 UNK         0.0600 
    200 H200       -0.7825  -25.7660  -46.2462 H         1 UNK         0.3000 
    201 H201       -0.1687  -28.5214  -46.7562 H         1 UNK         0.0600 
    202 H202        1.5641  -26.8625  -46.1482 H         1 UNK         0.0600 
    203 H203        1.2632  -25.9564  -47.6282 H         1 UNK         0.0600 
    204 H204        1.9355  -27.5803  -47.7089 H         1 UNK         0.0600 
    205 H205       -1.0128  -25.7733  -48.9195 H         1 UNK         0.3000 
    206 H206       -0.7609  -27.2456  -51.3582 H         1 UNK         0.0600 
    207 H207       -0.5405  -24.7752  -51.2256 H         1 UNK         0.0600 
    208 H208       -1.8251  -25.2083  -52.3435 H         1 UNK         0.0600 
    209 H209       -2.2269  -24.6249  -50.7329 H         1 UNK         0.0600 
    210 H210       -3.4565  -26.7420  -49.1534 H         1 UNK         0.3000 
    211 H211       -5.5552  -27.3829  -49.0121 H         1 UNK         0.0600 
    212 H212       -5.0684  -29.4470  -51.2254 H         1 UNK         0.0600 
    213 H213       -6.4114  -29.4135  -50.0939 H         1 UNK         0.0600 
    214 H214       -4.7844  -29.7181  -49.5062 H         1 UNK         0.0600 
    215 H215       -4.9267  -25.1106  -50.3509 H         1 UNK         0.3000 
    216 H216       -7.2132  -24.5218  -51.9838 H         1 UNK         0.0600 
    217 H217       -5.8448  -23.7351  -53.9576 H         1 UNK         0.0600 
    218 H218       -5.6875  -25.4722  -53.7580 H         1 UNK         0.0600 
    219 H219       -4.3908  -24.4041  -53.2265 H         1 UNK         0.0600 
    220 H220       -7.0861  -22.0843  -52.5080 H         1 UNK         0.3000 
    221 H221       -6.3714  -20.6359  -50.1375 H         1 UNK         0.0600 
    222 H222       -7.2966  -19.6963  -52.9035 H         1 UNK         0.0600 
    223 H223       -8.3162  -19.9902  -51.4960 H         1 UNK         0.0600 
    224 H224       -7.1636  -18.6637  -51.4852 H         1 UNK         0.0600 
    225 H225       -4.5096  -19.6302  -49.6082 H         1 UNK         0.3000 
    226 H226       -2.1911  -19.5742  -51.3453 H         1 UNK         0.0600 
    227 H227       -1.1369  -18.4322  -49.4058 H         1 UNK         0.0600 
    228 H228       -2.7018  -18.2776  -48.6115 H         1 UNK         0.0600 
    229 H229       -1.9893  -19.8689  -48.8850 H         1 UNK         0.0600 
    230 H230       -1.0861  -17.6621  -51.9735 H         1 UNK         0.3000 
    231 H231       -0.7648  -15.7902  -53.0540 H         1 UNK         0.0600 
    232 H232       -2.0244  -13.7232  -52.6666 H         1 UNK         0.0600 
    233 H233       -1.6535  -14.5114  -51.1430 H         1 UNK         0.0600 
    234 H234       -3.2858  -14.5903  -51.8070 H         1 UNK         0.0600 
    235 H235       -4.0667  -17.0424  -53.3095 H         1 UNK         0.3000 
    236 H236       -4.3572  -16.4187  -56.1536 H         1 UNK         0.0600 
    237 H237       -6.3614  -16.8201  -54.7489 H         1 UNK         0.0600 
    238 H238       -6.2544  -18.0356  -56.0135 H         1 UNK         0.0600 
    239 H239       -5.8044  -18.4455  -54.3634 H         1 UNK         0.0600 
    240 H240       -3.5362  -19.3307  -54.1986 H         1 UNK         0.3000 
    241 H241       -2.1303  -20.9673  -54.4183 H         1 UNK         0.0600 
    242 H242       -4.6212  -20.9791  -56.2497 H         1 UNK         0.3800 
    243 H243       -4.2747  -22.3199  -57.3126 H         1 UNK         0.3800 
    244 H244       -0.0467  -20.7757  -55.7642 H         1 UNK         0.0800 
    245 H245       -0.7049  -19.4152  -56.6266 H         1 UNK         0.0800 
    246 H246        1.8418  -20.1987  -54.1058 H         1 UNK         0.0800 
    247 H247        0.4732  -20.8061  -53.1989 H         1 UNK         0.0800 
@<TRIPOS>BOND
     1    1    2 1    
     2    1  127 1    
     3    1  128 1    
     4    1  129 1    
     5    2    3 2    
     6    2    4 am   BACKBONE|DICT|INTERRES
     7    4    5 1    
     8    4  130 1    
     9    5    6 1    
    10    5   65 1    
    11    5  131 1    
    12    6    7 1    
    13    6  132 1    
    14    6  133 1    
    15    7    8 1    
    16    8    9 1    
    17    8  134 1    
    18    8  135 1    
    19    9   10 ar   
    20    9   14 ar   
    21   10   11 ar   
    22   10  136 1    
    23   11   12 ar   
    24   11  126 1    
    25   12   13 ar   
    26   12  137 1    
    27   13   14 ar   
    28   13   15 1    
    29   14  138 1    
    30   15   16 1    
    31   15  139 1    
    32   15  140 1    
    33   16   17 1    
    34   17   18 1    
    35   17  141 1    
    36   17  142 1    
    37   18   19 1    
    38   18   67 1    
    39   18  143 1    
    40   19   20 am   BACKBONE|DICT|INTERRES
    41   19  144 1    
    42   20   21 2    
    43   20   22 1    
    44   22   23 1    
    45   22   24 1    
    46   22  145 1    
    47   23  146 1    
    48   23  147 1    
    49   23  148 1    
    50   24   25 am   BACKBONE|DICT|INTERRES
    51   24  149 1    
    52   25   26 2    
    53   25   27 1    
    54   27   28 1    
    55   27   29 1    
    56   27  150 1    
    57   28  151 1    
    58   28  152 1    
    59   28  153 1    
    60   29   30 am   BACKBONE|DICT|INTERRES
    61   29  154 1    
    62   30   31 2    
    63   30   32 1    
    64   32   33 1    
    65   32   34 1    
    66   32  155 1    
    67   33  156 1    
    68   33  157 1    
    69   33  158 1    
    70   34   35 am   BACKBONE|DICT|INTERRES
    71   34  159 1    
    72   35   36 2    
    73   35   37 1    
    74   37   38 1    
    75   37   39 1    
    76   37  160 1    
    77   38  161 1    
    78   38  162 1    
    79   38  163 1    
    80   39   40 am   BACKBONE|DICT|INTERRES
    81   39  164 1    
    82   40   41 2    
    83   40   42 1    
    84   42   43 1    
    85   42   44 1    
    86   42  165 1    
    87   43  166 1    
    88   43  167 1    
    89   43  168 1    
    90   44   45 am   BACKBONE|DICT|INTERRES
    91   44  169 1    
    92   45   46 2    
    93   45   47 1    
    94   47   48 1    
    95   47   49 1    
    96   47  170 1    
    97   48  171 1    
    98   48  172 1    
    99   48  173 1    
   100   49   50 am   BACKBONE|DICT|INTERRES
   101   49  174 1    
   102   50   51 2    
   103   50   52 1    
   104   52   53 1    
   105   52   54 1    
   106   52  175 1    
   107   53  176 1    
   108   53  177 1    
   109   53  178 1    
   110   54   55 am   BACKBONE|DICT|INTERRES
   111   54  179 1    
   112   55   56 2    
   113   55   57 1    
   114   57   58 1    
   115   57   59 1    
   116   57  180 1    
   117   58  181 1    
   118   58  182 1    
   119   58  183 1    
   120   59   60 am   BACKBONE|DICT|INTERRES
   121   59  184 1    
   122   60   61 2    
   123   60   62 1    
   124   62   63 1    
   125   62   64 1    
   126   62  185 1    
   127   63  186 1    
   128   63  187 1    
   129   63  188 1    
   130   64   65 am   BACKBONE|DICT|INTERRES
   131   64  189 1    
   132   65   66 2    
   133   67   68 2    
   134   67   69 am   BACKBONE|DICT|INTERRES
   135   69   70 1    
   136   69  190 1    
   137   70   71 1    
   138   70   72 1    
   139   70  191 1    
   140   71  192 1    
   141   71  193 1    
   142   71  194 1    
   143   72   73 2    
   144   72   74 am   BACKBONE|DICT|INTERRES
   145   74   75 1    
   146   74  195 1    
   147   75   76 1    
   148   75   77 1    
   149   75  196 1    
   150   76  197 1    
   151   76  198 1    
   152   76  199 1    
   153   77   78 2    
   154   77   79 am   BACKBONE|DICT|INTERRES
   155   79   80 1    
   156   79  200 1    
   157   80   81 1    
   158   80   82 1    
   159   80  201 1    
   160   81  202 1    
   161   81  203 1    
   162   81  204 1    
   163   82   83 2    
   164   82   84 am   BACKBONE|DICT|INTERRES
   165   84   85 1    
   166   84  205 1    
   167   85   86 1    
   168   85   87 1    
   169   85  206 1    
   170   86  207 1    
   171   86  208 1    
   172   86  209 1    
   173   87   88 2    
   174   87   89 am   BACKBONE|DICT|INTERRES
   175   89   90 1    
   176   89  210 1    
   177   90   91 1    
   178   90   92 1    
   179   90  211 1    
   180   91  212 1    
   181   91  213 1    
   182   91  214 1    
   183   92   93 2    
   184   92   94 am   BACKBONE|DICT|INTERRES
   185   94   95 1    
   186   94  215 1    
   187   95   96 1    
   188   95   97 1    
   189   95  216 1    
   190   96  217 1    
   191   96  218 1    
   192   96  219 1    
   193   97   98 2    
   194   97   99 am   BACKBONE|DICT|INTERRES
   195   99  100 1    
   196   99  220 1    
   197  100  101 1    
   198  100  102 1    
   199  100  221 1    
   200  101  222 1    
   201  101  223 1    
   202  101  224 1    
   203  102  103 2    
   204  102  104 am   BACKBONE|DICT|INTERRES
   205  104  105 1    
   206  104  225 1    
   207  105  106 1    
   208  105  107 1    
   209  105  226 1    
   210  106  227 1    
   211  106  228 1    
   212  106  229 1    
   213  107  108 2    
   214  107  109 am   BACKBONE|DICT|INTERRES
   215  109  110 1    
   216  109  230 1    
   217  110  111 1    
   218  110  112 1    
   219  110  231 1    
   220  111  232 1    
   221  111  233 1    
   222  111  234 1    
   223  112  113 2    
   224  112  114 am   BACKBONE|DICT|INTERRES
   225  114  115 1    
   226  114  235 1    
   227  115  116 1    
   228  115  117 1    
   229  115  236 1    
   230  116  237 1    
   231  116  238 1    
   232  116  239 1    
   233  117  118 2    
   234  117  119 am   BACKBONE|DICT|INTERRES
   235  119  120 1    
   236  119  240 1    
   237  120  121 1    
   238  120  124 1    
   239  120  241 1    
   240  121  122 am   BACKBONE|DICT|INTERRES
   241  121  123 2    
   242  122  242 1    
   243  122  243 1    
   244  124  125 1    
   245  124  244 1    
   246  124  245 1    
   247  125  126 1    
   248  126  246 1    
   249  126  247 1    
@<TRIPOS>SUBSTRUCTURE
     1 UNK         1 GROUP             0       ****    0 ROOT    
