@<TRIPOS>MOLECULE
3R540
247   249    1
SMALL
USER_CHARGES


@<TRIPOS>ATOM
      1 CA         -1.9869  -11.6041  -46.2717 C.3       0 UNK        -0.1800 
      2 C          -0.6270  -11.5548  -46.9548 C.2       0 UNK         0.5000 
      3 O          -0.2660  -10.5268  -47.5284 O.2       0 UNK        -0.5000 
      4 N           0.1185  -12.6648  -46.9023 N.am      1 UNK        -0.5000 
      5 CA          1.4765  -12.7937  -47.4403 C.3       1 UNK         0.1400 
      6 C6          1.8081  -14.2713  -47.7977 C.3       23 UNK        -0.0398 
      7 S7          2.7019  -14.4004  -49.3825 S.3       23 UNK        -0.2404 
      8 C8          2.9062  -16.2088  -49.5434 C.3       23 UNK        -0.0205 
      9 C9          1.6793  -17.0095  -49.9943 C.ar      23 UNK        -0.0193 
     10 C10         0.4011  -16.4520  -50.1552 C.ar      23 UNK        -0.1150 
     11 C11        -0.6841  -17.2479  -50.5353 C.ar      23 UNK        -0.0193 
     12 C12        -0.4837  -18.6077  -50.7794 C.ar      23 UNK        -0.1150 
     13 C13         0.7776  -19.1820  -50.6267 C.ar      23 UNK        -0.0193 
     14 C14         1.8534  -18.3752  -50.2442 C.ar      23 UNK        -0.1150 
     15 C15         0.9492  -20.6823  -50.8337 C.3       23 UNK        -0.0205 
     16 S16         1.6900  -21.5250  -49.3990 S.3       23 UNK        -0.2404 
     17 C17         0.6907  -20.8872  -48.0104 C.3       23 UNK        -0.0398 
     18 CA         -0.0788  -21.9890  -47.2552 C.3       11 UNK         0.1400 
     19 N          -0.2696  -21.6342  -45.8461 N.am      11 UNK        -0.5000 
     20 C          -0.6875  -22.4839  -44.8996 C.2       10 UNK         0.5000 
     21 O          -0.9846  -23.6562  -45.1285 O.2       10 UNK        -0.5000 
     22 CA         -0.8314  -21.9243  -43.4742 C.3       10 UNK         0.1400 
     23 CB          0.5442  -21.7525  -42.8131 C.3       10 UNK        -0.1800 
     24 N          -1.5524  -20.6524  -43.4513 N.am      10 UNK        -0.5000 
     25 C          -2.8523  -20.5165  -43.7506 C.2       9 UNK         0.5000 
     26 O          -3.5973  -21.4620  -44.0095 O.2       9 UNK        -0.5000 
     27 CA         -3.4075  -19.0800  -43.8055 C.3       9 UNK         0.1400 
     28 CB         -3.7553  -18.5748  -42.3977 C.3       9 UNK        -0.1800 
     29 N          -2.4991  -18.1322  -44.4540 N.am      9 UNK        -0.5000 
     30 C          -2.0707  -18.2321  -45.7208 C.2       8 UNK         0.5000 
     31 O          -2.3902  -19.1397  -46.4836 O.2       8 UNK        -0.5000 
     32 CA         -1.0683  -17.1703  -46.1972 C.3       8 UNK         0.1400 
     33 CB         -1.7923  -15.8533  -46.5214 C.3       8 UNK        -0.1800 
     34 N          -0.0043  -16.9481  -45.2147 N.am      8 UNK        -0.5000 
     35 C           0.8849  -17.8843  -44.8468 C.2       7 UNK         0.5000 
     36 O           0.9326  -19.0133  -45.3320 O.2       7 UNK        -0.5000 
     37 CA          1.8411  -17.5204  -43.7000 C.3       7 UNK         0.1400 
     38 CB          3.0047  -16.6593  -44.2138 C.3       7 UNK        -0.1800 
     39 N           1.1468  -16.8297  -42.6135 N.am      7 UNK        -0.5000 
     40 C           0.2390  -17.4111  -41.8123 C.2       6 UNK         0.5000 
     41 O          -0.0657  -18.6015  -41.8819 O.2       6 UNK        -0.5000 
     42 CA         -0.4871  -16.5089  -40.7929 C.3       6 UNK         0.1400 
     43 CB          0.2796  -16.4771  -39.4628 C.3       6 UNK        -0.1800 
     44 N          -0.6779  -15.1385  -41.2683 N.am      6 UNK        -0.5000 
     45 C          -1.3517  -14.7950  -42.3744 C.2       5 UNK         0.5000 
     46 O          -1.9913  -15.5974  -43.0546 O.2       5 UNK        -0.5000 
     47 CA         -1.2442  -13.3283  -42.8393 C.3       5 UNK         0.1400 
     48 CB         -2.5292  -12.5609  -42.4967 C.3       5 UNK        -0.1800 
     49 N          -0.0879  -12.5906  -42.3129 N.am      5 UNK        -0.5000 
     50 C           1.1992  -12.9251  -42.4830 C.2       4 UNK         0.5000 
     51 O           1.5703  -13.9550  -43.0533 O.2       4 UNK        -0.5000 
     52 CA          2.2358  -11.9788  -41.8626 C.3       4 UNK         0.1400 
     53 CB          2.2633  -12.1233  -40.3294 C.3       4 UNK        -0.1800 
     54 N           3.5518  -12.2890  -42.4096 N.am      4 UNK        -0.5000 
     55 C           4.5899  -11.4480  -42.4731 C.2       3 UNK         0.5000 
     56 O           4.5573  -10.2922  -42.0495 O.2       3 UNK        -0.5000 
     57 CA          5.8900  -11.9741  -43.1163 C.3       3 UNK         0.1400 
     58 CB          6.9266  -12.2876  -42.0261 C.3       3 UNK        -0.1800 
     59 N           5.6876  -13.1821  -43.9225 N.am      3 UNK        -0.5000 
     60 C           5.2249  -13.2650  -45.1777 C.2       2 UNK         0.5000 
     61 O           5.0615  -14.3589  -45.7189 O.2       2 UNK        -0.5000 
     62 CA          4.9287  -11.9840  -45.9929 C.3       2 UNK         0.1400 
     63 CB          6.1480  -11.5923  -46.8414 C.3       2 UNK        -0.1800 
     64 N           3.7917  -12.2204  -46.8796 N.am      2 UNK        -0.5000 
     65 C           2.5191  -12.1969  -46.4690 C.2       1 UNK         0.5000 
     66 O           2.1744  -11.7613  -45.3681 O.2       1 UNK        -0.5000 
     67 C          -1.4026  -22.3720  -47.9541 C.2       11 UNK         0.5000 
     68 O          -1.4196  -23.3034  -48.7584 O.2       11 UNK        -0.5000 
     69 N          -2.5093  -21.7209  -47.5727 N.am      12 UNK        -0.5000 
     70 CA         -3.8710  -22.0493  -47.9985 C.3       12 UNK         0.1400 
     71 CB         -4.8219  -20.9149  -47.5877 C.3       12 UNK        -0.1800 
     72 C          -4.3886  -23.4112  -47.4857 C.2       12 UNK         0.5000 
     73 O          -5.4158  -23.8738  -47.9814 O.2       12 UNK        -0.5000 
     74 N          -3.6821  -24.0381  -46.5358 N.am      13 UNK        -0.5000 
     75 CA         -3.9153  -25.4142  -46.1034 C.3       13 UNK         0.1400 
     76 CB         -3.8942  -25.4794  -44.5678 C.3       13 UNK        -0.1800 
     77 C          -2.8658  -26.3644  -46.7083 C.2       13 UNK         0.5000 
     78 O          -3.2299  -27.4459  -47.1700 O.2       13 UNK        -0.5000 
     79 N          -1.5875  -25.9584  -46.6856 N.am      14 UNK        -0.5000 
     80 CA         -0.4489  -26.7677  -47.1235 C.3       14 UNK         0.1400 
     81 CB          0.8527  -26.1513  -46.5869 C.3       14 UNK        -0.1800 
     82 C          -0.3777  -26.9589  -48.6498 C.2       14 UNK         0.5000 
     83 O          -0.2670  -28.0952  -49.1122 O.2       14 UNK        -0.5000 
     84 N          -0.4344  -25.8518  -49.4005 N.am      15 UNK        -0.5000 
     85 CA         -0.4500  -25.8410  -50.8644 C.3       15 UNK         0.1400 
     86 CB          0.2878  -24.5937  -51.3793 C.3       15 UNK        -0.1800 
     87 C          -1.8944  -25.8691  -51.3851 C.2       15 UNK         0.5000 
     88 O          -2.1765  -26.5681  -52.3598 O.2       15 UNK        -0.5000 
     89 N          -2.7795  -25.1250  -50.7037 N.am      16 UNK        -0.5000 
     90 CA         -4.2236  -25.0422  -50.9260 C.3       16 UNK         0.1400 
     91 CB         -4.9155  -26.3195  -50.4031 C.3       16 UNK        -0.1800 
     92 C          -4.5724  -24.6839  -52.3808 C.2       16 UNK         0.5000 
     93 O          -4.2537  -23.5745  -52.8122 O.2       16 UNK        -0.5000 
     94 N          -5.1946  -25.6176  -53.1131 N.am      17 UNK        -0.5000 
     95 CA         -5.6368  -25.4757  -54.5022 C.3       17 UNK         0.1400 
     96 CB         -6.3253  -26.7754  -54.9432 C.3       17 UNK        -0.1800 
     97 C          -4.5223  -25.0934  -55.4952 C.2       17 UNK         0.5000 
     98 O          -4.8135  -24.4270  -56.4885 O.2       17 UNK        -0.5000 
     99 N          -3.2665  -25.4535  -55.1885 N.am      18 UNK        -0.5000 
    100 CA        -2.0797  -25.0622  -55.9563 C.3       18 UNK         0.1400 
    101 CB        -0.8650  -25.8507  -55.4451 C.3       18 UNK        -0.1800 
    102 C         -1.7941  -23.5448  -55.9247 C.2       18 UNK         0.5000 
    103 O         -1.1285  -23.0397  -56.8292 O.2       18 UNK        -0.5000 
    104 N         -2.3165  -22.8489  -54.9064 N.am      19 UNK        -0.5000 
    105 CA        -2.2657  -21.3960  -54.7447 C.3       19 UNK         0.1400 
    106 CB        -1.4854  -21.0809  -53.4588 C.3       19 UNK        -0.1800 
    107 C         -3.6849  -20.7912  -54.7078 C.2       19 UNK         0.5000 
    108 O         -3.8564  -19.6731  -54.2179 O.2       19 UNK        -0.5000 
    109 N         -4.6863  -21.5541  -55.1805 N.am      20 UNK        -0.5000 
    110 CA        -6.1230  -21.2434  -55.2014 C.3       20 UNK         0.1400 
    111 CB        -6.4095  -20.1484  -56.2489 C.3       20 UNK        -0.1800 
    112 C         -6.7133  -20.8964  -53.8143 C.2       20 UNK         0.5000 
    113 O         -7.6810  -20.1377  -53.7320 O.2       20 UNK        -0.5000 
    114 N         -6.0868  -21.4139  -52.7453 N.am      21 UNK        -0.5000 
    115 CA        -6.3342  -21.1191  -51.3285 C.3       21 UNK         0.1400 
    116 CB        -7.6411  -21.7914  -50.8648 C.3       21 UNK        -0.1800 
    117 C         -6.2744  -19.6102  -50.9896 C.2       21 UNK         0.5000 
    118 O         -6.9789  -19.1548  -50.0876 O.2       21 UNK        -0.5000 
    119 N         -5.4532  -18.8647  -51.7436 N.am      22 UNK        -0.5000 
    120 CA        -5.3419  -17.3957  -51.7354 C.3       22 UNK         0.1400 
    121 C         -6.5891  -16.6474  -52.3022 C.2       22 UNK         0.5000 
    122 N         -7.5246  -17.3081  -52.9752 N.am      22 UNK        -0.7600 
    123 O         -6.7009  -15.4325  -52.1608 O.2       22 UNK        -0.5000 
    124 C124       -4.8616  -16.7986  -50.3791 C.3       23 UNK        -0.0398 
    125 S125       -3.3296  -17.5584  -49.7467 S.3       23 UNK        -0.2404 
    126 C126       -2.0722  -16.6446  -50.6994 C.3       23 UNK        -0.0205 
    127 H127       -2.7569  -11.2161  -46.9385 H         1 UNK         0.0600 
    128 H128       -1.9751  -10.9914  -45.3704 H         1 UNK         0.0600 
    129 H129       -2.2659  -12.6205  -45.9937 H         1 UNK         0.0600 
    130 H130       -0.2144  -13.4519  -46.3689 H         1 UNK         0.3000 
    131 H131        1.5183  -12.1927  -48.3516 H         1 UNK         0.0600 
    132 H132        2.3822  -14.7701  -47.0136 H         1 UNK         0.0800 
    133 H133        0.8977  -14.8577  -47.8962 H         1 UNK         0.0800 
    134 H134        3.2600  -16.6090  -48.5919 H         1 UNK         0.0800 
    135 H135        3.7078  -16.3822  -50.2628 H         1 UNK         0.0800 
    136 H136        0.2342  -15.3991  -49.9887 H         1 UNK         0.1150 
    137 H137       -1.3241  -19.2236  -51.0664 H         1 UNK         0.1150 
    138 H138        2.8298  -18.8218  -50.1173 H         1 UNK         0.1150 
    139 H139       -0.0130  -21.1548  -51.0318 H         1 UNK         0.0800 
    140 H140        1.5701  -20.8561  -51.7133 H         1 UNK         0.0800 
    141 H141        0.0178  -20.0831  -48.3095 H         1 UNK         0.0800 
    142 H142        1.4186  -20.4225  -47.3468 H         1 UNK         0.0800 
    143 H143        0.5450  -22.8841  -47.2535 H         1 UNK         0.0600 
    144 H144       -0.0287  -20.6819  -45.5843 H         1 UNK         0.3000 
    145 H145       -1.4007  -22.6490  -42.8883 H         1 UNK         0.0600 
    146 H146        1.1497  -21.0050  -43.3269 H         1 UNK         0.0600 
    147 H147        0.4435  -21.4409  -41.7733 H         1 UNK         0.0600 
    148 H148        1.1014  -22.6901  -42.8196 H         1 UNK         0.0600 
    149 H149       -1.0179  -19.8295  -43.1924 H         1 UNK         0.3000 
    150 H150       -4.3267  -19.1041  -44.3945 H         1 UNK         0.0600 
    151 H151       -4.4852  -19.2285  -41.9187 H         1 UNK         0.0600 
    152 H152       -4.1858  -17.5737  -42.4314 H         1 UNK         0.0600 
    153 H153       -2.8758  -18.5401  -41.7553 H         1 UNK         0.0600 
    154 H154       -2.2075  -17.3285  -43.9049 H         1 UNK         0.3000 
    155 H155       -0.6083  -17.5381  -47.1177 H         1 UNK         0.0600 
    156 H156       -2.2088  -15.3813  -45.6325 H         1 UNK         0.0600 
    157 H157       -1.1289  -15.1412  -47.0027 H         1 UNK         0.0600 
    158 H158       -2.6197  -16.0264  -47.2104 H         1 UNK         0.0600 
    159 H159       -0.0148  -16.0739  -44.7118 H         1 UNK         0.3000 
    160 H160        2.2569  -18.4481  -43.3009 H         1 UNK         0.0600 
    161 H161        3.5788  -17.1930  -44.9722 H         1 UNK         0.0600 
    162 H162        2.6560  -15.7311  -44.6669 H         1 UNK         0.0600 
    163 H163        3.6919  -16.3997  -43.4086 H         1 UNK         0.0600 
    164 H164        1.3133  -15.8309  -42.5364 H         1 UNK         0.3000 
    165 H165       -1.4736  -16.9387  -40.6106 H         1 UNK         0.0600 
    166 H166       -0.2632  -15.9084  -38.7076 H         1 UNK         0.0600 
    167 H167        0.4211  -17.4848  -39.0698 H         1 UNK         0.0600 
    168 H168        1.2668  -16.0275  -39.5779 H         1 UNK         0.0600 
    169 H169       -0.1810  -14.4139  -40.7728 H         1 UNK         0.3000 
    170 H170       -1.1404  -13.3524  -43.9250 H         1 UNK         0.0600 
    171 H171       -3.4058  -13.0602  -42.9119 H         1 UNK         0.0600 
    172 H172       -2.6749  -12.4834  -41.4185 H         1 UNK         0.0600 
    173 H173       -2.5092  -11.5512  -42.9068 H         1 UNK         0.0600 
    174 H174       -0.3009  -11.7400  -41.8118 H         1 UNK         0.3000 
    175 H175        1.9639  -10.9569  -42.1350 H         1 UNK         0.0600 
    176 H176        2.5290  -13.1373  -40.0278 H         1 UNK         0.0600 
    177 H177        2.9863  -11.4422  -39.8802 H         1 UNK         0.0600 
    178 H178        1.2917  -11.8928  -39.8913 H         1 UNK         0.0600 
    179 H179        3.6155  -13.2026  -42.8408 H         1 UNK         0.3000 
    180 H180        6.3042  -11.1812  -43.7410 H         1 UNK         0.0600 
    181 H181        6.5804  -13.0742  -41.3544 H         1 UNK         0.0600 
    182 H182        7.1350  -11.4060  -41.4183 H         1 UNK         0.0600 
    183 H183        7.8726  -12.6099  -42.4618 H         1 UNK         0.0600 
    184 H184        5.8949  -14.0478  -43.4474 H         1 UNK         0.3000 
    185 H185        4.6819  -11.1493  -45.3368 H         1 UNK         0.0600 
    186 H186        5.9492  -10.6943  -47.4266 H         1 UNK         0.0600 
    187 H187        7.0128  -11.3840  -46.2104 H         1 UNK         0.0600 
    188 H188        6.4307  -12.3874  -47.5327 H         1 UNK         0.0600 
    189 H189        4.0050  -12.6386  -47.7745 H         1 UNK         0.3000 
    190 H190       -2.4174  -20.9137  -46.9583 H         1 UNK         0.3000 
    191 H191       -3.8652  -22.1032  -49.0884 H         1 UNK         0.0600 
    192 H192       -4.8351  -20.7763  -46.5062 H         1 UNK         0.0600 
    193 H193       -5.8445  -21.1199  -47.9068 H         1 UNK         0.0600 
    194 H194       -4.5272  -19.9695  -48.0436 H         1 UNK         0.0600 
    195 H195       -2.8610  -23.5820  -46.1587 H         1 UNK         0.3000 
    196 H196       -4.8985  -25.7565  -46.4330 H         1 UNK         0.0600 
    197 H197       -4.0932  -26.4933  -44.2188 H         1 UNK         0.0600 
    198 H198       -4.6578  -24.8309  -44.1381 H         1 UNK         0.0600 
    199 H199       -2.9314  -25.1751  -44.1574 H         1 UNK         0.0600 
    200 H200       -1.3638  -25.0785  -46.2280 H         1 UNK         0.3000 
    201 H201       -0.5534  -27.7574  -46.6735 H         1 UNK         0.0600 
    202 H202        0.8352  -26.0785  -45.4993 H         1 UNK         0.0600 
    203 H203        1.0221  -25.1515  -46.9852 H         1 UNK         0.0600 
    204 H204        1.7144  -26.7623  -46.8585 H         1 UNK         0.0600 
    205 H205       -0.5949  -24.9554  -48.9499 H         1 UNK         0.3000 
    206 H206        0.0691  -26.7217  -51.2485 H         1 UNK         0.0600 
    207 H207        1.3064  -24.5507  -50.9937 H         1 UNK         0.0600 
    208 H208        0.3524  -24.5983  -52.4673 H         1 UNK         0.0600 
    209 H209       -0.2166  -23.6720  -51.0895 H         1 UNK         0.0600 
    210 H210       -2.4129  -24.5395  -49.9603 H         1 UNK         0.3000 
    211 H211       -4.5811  -24.1995  -50.3393 H         1 UNK         0.0600 
    212 H212       -4.5653  -27.2182  -50.9119 H         1 UNK         0.0600 
    213 H213       -5.9981  -26.2613  -50.5228 H         1 UNK         0.0600 
    214 H214       -4.7234  -26.4511  -49.3385 H         1 UNK         0.0600 
    215 H215       -5.3800  -26.5095  -52.6778 H         1 UNK         0.3000 
    216 H216       -6.3766  -24.6730  -54.5242 H         1 UNK         0.0600 
    217 H217       -6.6927  -26.6961  -55.9673 H         1 UNK         0.0600 
    218 H218       -7.1826  -27.0035  -54.3095 H         1 UNK         0.0600 
    219 H219       -5.6420  -27.6248  -54.9041 H         1 UNK         0.0600 
    220 H220       -3.1026  -25.9719  -54.3330 H         1 UNK         0.3000 
    221 H221       -2.2503  -25.3397  -56.9986 H         1 UNK         0.0600 
    222 H222       -0.6357  -25.6060  -54.4086 H         1 UNK         0.0600 
    223 H223       -1.0365  -26.9256  -55.5060 H         1 UNK         0.0600 
    224 H224        0.0230  -25.6287  -56.0382 H         1 UNK         0.0600 
    225 H225       -2.8665  -23.3398  -54.2077 H         1 UNK         0.3000 
    226 H226       -1.7478  -20.9312  -55.5855 H         1 UNK         0.0600 
    227 H227       -0.4934  -21.5321  -53.4828 H         1 UNK         0.0600 
    228 H228       -1.3482  -20.0059  -53.3387 H         1 UNK         0.0600 
    229 H229       -2.0038  -21.4534  -52.5741 H         1 UNK         0.0600 
    230 H230       -4.4399  -22.4555  -55.5699 H         1 UNK         0.3000 
    231 H231       -6.6281  -22.1542  -55.5253 H         1 UNK         0.0600 
    232 H232       -7.4818  -20.0009  -56.3819 H         1 UNK         0.0600 
    233 H233       -5.9987  -20.4172  -57.2221 H         1 UNK         0.0600 
    234 H234       -5.9804  -19.1893  -55.9567 H         1 UNK         0.0600 
    235 H235       -5.3100  -22.0473  -52.9198 H         1 UNK         0.3000 
    236 H236       -5.5144  -21.5815  -50.7785 H         1 UNK         0.0600 
    237 H237       -7.7716  -21.6939  -49.7864 H         1 UNK         0.0600 
    238 H238       -7.6372  -22.8572  -51.0932 H         1 UNK         0.0600 
    239 H239       -8.5140  -21.3473  -51.3441 H         1 UNK         0.0600 
    240 H240       -4.9305  -19.3217  -52.4834 H         1 UNK         0.3000 
    241 H241       -4.5619  -17.1831  -52.4664 H         1 UNK         0.0600 
    242 H242       -8.3144  -16.8010  -53.3410 H         1 UNK         0.3800 
    243 H243       -7.4666  -18.3111  -53.1247 H         1 UNK         0.3800 
    244 H244       -4.6931  -15.7243  -50.4690 H         1 UNK         0.0800 
    245 H245       -5.6345  -16.9150  -49.6185 H         1 UNK         0.0800 
    246 H246       -2.3298  -16.6601  -51.7587 H         1 UNK         0.0800 
    247 H247       -2.0822  -15.5995  -50.3865 H         1 UNK         0.0800 
@<TRIPOS>BOND
     1    1    2 1    
     2    1  127 1    
     3    1  128 1    
     4    1  129 1    
     5    2    3 2    
     6    2    4 am   BACKBONE|DICT|INTERRES
     7    4    5 1    
     8    4  130 1    
     9    5    6 1    
    10    5   65 1    
    11    5  131 1    
    12    6    7 1    
    13    6  132 1    
    14    6  133 1    
    15    7    8 1    
    16    8    9 1    
    17    8  134 1    
    18    8  135 1    
    19    9   10 ar   
    20    9   14 ar   
    21   10   11 ar   
    22   10  136 1    
    23   11   12 ar   
    24   11  126 1    
    25   12   13 ar   
    26   12  137 1    
    27   13   14 ar   
    28   13   15 1    
    29   14  138 1    
    30   15   16 1    
    31   15  139 1    
    32   15  140 1    
    33   16   17 1    
    34   17   18 1    
    35   17  141 1    
    36   17  142 1    
    37   18   19 1    
    38   18   67 1    
    39   18  143 1    
    40   19   20 am   BACKBONE|DICT|INTERRES
    41   19  144 1    
    42   20   21 2    
    43   20   22 1    
    44   22   23 1    
    45   22   24 1    
    46   22  145 1    
    47   23  146 1    
    48   23  147 1    
    49   23  148 1    
    50   24   25 am   BACKBONE|DICT|INTERRES
    51   24  149 1    
    52   25   26 2    
    53   25   27 1    
    54   27   28 1    
    55   27   29 1    
    56   27  150 1    
    57   28  151 1    
    58   28  152 1    
    59   28  153 1    
    60   29   30 am   BACKBONE|DICT|INTERRES
    61   29  154 1    
    62   30   31 2    
    63   30   32 1    
    64   32   33 1    
    65   32   34 1    
    66   32  155 1    
    67   33  156 1    
    68   33  157 1    
    69   33  158 1    
    70   34   35 am   BACKBONE|DICT|INTERRES
    71   34  159 1    
    72   35   36 2    
    73   35   37 1    
    74   37   38 1    
    75   37   39 1    
    76   37  160 1    
    77   38  161 1    
    78   38  162 1    
    79   38  163 1    
    80   39   40 am   BACKBONE|DICT|INTERRES
    81   39  164 1    
    82   40   41 2    
    83   40   42 1    
    84   42   43 1    
    85   42   44 1    
    86   42  165 1    
    87   43  166 1    
    88   43  167 1    
    89   43  168 1    
    90   44   45 am   BACKBONE|DICT|INTERRES
    91   44  169 1    
    92   45   46 2    
    93   45   47 1    
    94   47   48 1    
    95   47   49 1    
    96   47  170 1    
    97   48  171 1    
    98   48  172 1    
    99   48  173 1    
   100   49   50 am   BACKBONE|DICT|INTERRES
   101   49  174 1    
   102   50   51 2    
   103   50   52 1    
   104   52   53 1    
   105   52   54 1    
   106   52  175 1    
   107   53  176 1    
   108   53  177 1    
   109   53  178 1    
   110   54   55 am   BACKBONE|DICT|INTERRES
   111   54  179 1    
   112   55   56 2    
   113   55   57 1    
   114   57   58 1    
   115   57   59 1    
   116   57  180 1    
   117   58  181 1    
   118   58  182 1    
   119   58  183 1    
   120   59   60 am   BACKBONE|DICT|INTERRES
   121   59  184 1    
   122   60   61 2    
   123   60   62 1    
   124   62   63 1    
   125   62   64 1    
   126   62  185 1    
   127   63  186 1    
   128   63  187 1    
   129   63  188 1    
   130   64   65 am   BACKBONE|DICT|INTERRES
   131   64  189 1    
   132   65   66 2    
   133   67   68 2    
   134   67   69 am   BACKBONE|DICT|INTERRES
   135   69   70 1    
   136   69  190 1    
   137   70   71 1    
   138   70   72 1    
   139   70  191 1    
   140   71  192 1    
   141   71  193 1    
   142   71  194 1    
   143   72   73 2    
   144   72   74 am   BACKBONE|DICT|INTERRES
   145   74   75 1    
   146   74  195 1    
   147   75   76 1    
   148   75   77 1    
   149   75  196 1    
   150   76  197 1    
   151   76  198 1    
   152   76  199 1    
   153   77   78 2    
   154   77   79 am   BACKBONE|DICT|INTERRES
   155   79   80 1    
   156   79  200 1    
   157   80   81 1    
   158   80   82 1    
   159   80  201 1    
   160   81  202 1    
   161   81  203 1    
   162   81  204 1    
   163   82   83 2    
   164   82   84 am   BACKBONE|DICT|INTERRES
   165   84   85 1    
   166   84  205 1    
   167   85   86 1    
   168   85   87 1    
   169   85  206 1    
   170   86  207 1    
   171   86  208 1    
   172   86  209 1    
   173   87   88 2    
   174   87   89 am   BACKBONE|DICT|INTERRES
   175   89   90 1    
   176   89  210 1    
   177   90   91 1    
   178   90   92 1    
   179   90  211 1    
   180   91  212 1    
   181   91  213 1    
   182   91  214 1    
   183   92   93 2    
   184   92   94 am   BACKBONE|DICT|INTERRES
   185   94   95 1    
   186   94  215 1    
   187   95   96 1    
   188   95   97 1    
   189   95  216 1    
   190   96  217 1    
   191   96  218 1    
   192   96  219 1    
   193   97   98 2    
   194   97   99 am   BACKBONE|DICT|INTERRES
   195   99  100 1    
   196   99  220 1    
   197  100  101 1    
   198  100  102 1    
   199  100  221 1    
   200  101  222 1    
   201  101  223 1    
   202  101  224 1    
   203  102  103 2    
   204  102  104 am   BACKBONE|DICT|INTERRES
   205  104  105 1    
   206  104  225 1    
   207  105  106 1    
   208  105  107 1    
   209  105  226 1    
   210  106  227 1    
   211  106  228 1    
   212  106  229 1    
   213  107  108 2    
   214  107  109 am   BACKBONE|DICT|INTERRES
   215  109  110 1    
   216  109  230 1    
   217  110  111 1    
   218  110  112 1    
   219  110  231 1    
   220  111  232 1    
   221  111  233 1    
   222  111  234 1    
   223  112  113 2    
   224  112  114 am   BACKBONE|DICT|INTERRES
   225  114  115 1    
   226  114  235 1    
   227  115  116 1    
   228  115  117 1    
   229  115  236 1    
   230  116  237 1    
   231  116  238 1    
   232  116  239 1    
   233  117  118 2    
   234  117  119 am   BACKBONE|DICT|INTERRES
   235  119  120 1    
   236  119  240 1    
   237  120  121 1    
   238  120  124 1    
   239  120  241 1    
   240  121  122 am   BACKBONE|DICT|INTERRES
   241  121  123 2    
   242  122  242 1    
   243  122  243 1    
   244  124  125 1    
   245  124  244 1    
   246  124  245 1    
   247  125  126 1    
   248  126  246 1    
   249  126  247 1    
@<TRIPOS>SUBSTRUCTURE
     1 UNK         1 GROUP             0       ****    0 ROOT    
