@<TRIPOS>MOLECULE
3R540
247   249    1
SMALL
USER_CHARGES


@<TRIPOS>ATOM
      1 CA         -4.3237  -13.9489  -47.5681 C.3       0 UNK        -0.1800 
      2 C          -2.8477  -14.3170  -47.5658 C.2       0 UNK         0.5000 
      3 O          -2.3368  -14.7895  -46.5495 O.2       0 UNK        -0.5000 
      4 N          -2.1531  -14.0868  -48.6903 N.am      1 UNK        -0.5000 
      5 CA         -0.7312  -14.3772  -48.9458 C.3       1 UNK         0.1400 
      6 C6         -0.3711  -15.8632  -48.6866 C.3       23 UNK        -0.0398 
      7 S7          1.0683  -16.4552  -49.6364 S.3       23 UNK        -0.2404 
      8 C8          0.3397  -17.8802  -50.5058 C.3       23 UNK        -0.0205 
      9 C9          1.4027  -18.8534  -50.9852 C.ar      23 UNK        -0.0193 
     10 C10         1.6350  -19.0481  -52.3489 C.ar      23 UNK        -0.1150 
     11 C11         2.5940  -19.9717  -52.7841 C.ar      23 UNK        -0.0193 
     12 C12         3.3097  -20.7092  -51.8353 C.ar      23 UNK        -0.1150 
     13 C13         3.0861  -20.5227  -50.4674 C.ar      23 UNK        -0.0193 
     14 C14         2.1347  -19.5887  -50.0512 C.ar      23 UNK        -0.1150 
     15 C15         3.8792  -21.3244  -49.4460 C.3       23 UNK        -0.0205 
     16 S16         2.9037  -22.6968  -48.7515 S.3       23 UNK        -0.2404 
     17 C17         2.2166  -21.9199  -47.2506 C.3       23 UNK        -0.0398 
     18 CA          0.8604  -22.5109  -46.8039 C.3       11 UNK         0.1400 
     19 N           0.5728  -22.1677  -45.4101 N.am      11 UNK        -0.5000 
     20 C          -0.4072  -22.7092  -44.6755 C.2       10 UNK         0.5000 
     21 O          -1.1453  -23.6081  -45.0783 O.2       10 UNK        -0.5000 
     22 CA         -0.6255  -22.1150  -43.2724 C.3       10 UNK         0.1400 
     23 CB          0.3686  -22.7153  -42.2675 C.3       10 UNK        -0.1800 
     24 N          -0.5195  -20.6541  -43.2602 N.am      10 UNK        -0.5000 
     25 C          -1.3650  -19.8287  -43.8939 C.2       9 UNK         0.5000 
     26 O          -2.3584  -20.2177  -44.5069 O.2       9 UNK        -0.5000 
     27 CA         -1.0210  -18.3262  -43.8864 C.3       9 UNK         0.1400 
     28 CB         -1.4542  -17.6664  -42.5693 C.3       9 UNK        -0.1800 
     29 N           0.4011  -18.0702  -44.1168 N.am      9 UNK        -0.5000 
     30 C           1.0573  -18.3849  -45.2428 C.2       8 UNK         0.5000 
     31 O           0.5278  -18.8947  -46.2275 O.2       8 UNK        -0.5000 
     32 CA          2.5729  -18.1385  -45.2526 C.3       8 UNK         0.1400 
     33 CB          2.8790  -16.6668  -45.5585 C.3       8 UNK        -0.1800 
     34 N           3.1916  -18.5263  -43.9850 N.am      8 UNK        -0.5000 
     35 C           3.2969  -19.7931  -43.5581 C.2       7 UNK         0.5000 
     36 O           2.9112  -20.7666  -44.2049 O.2       7 UNK        -0.5000 
     37 CA          3.8891  -20.0008  -42.1529 C.3       7 UNK         0.1400 
     38 CB          5.4229  -19.9303  -42.1924 C.3       7 UNK        -0.1800 
     39 N           3.3803  -19.0303  -41.1826 N.am      7 UNK        -0.5000 
     40 C           2.1034  -18.9636  -40.7799 C.2       6 UNK         0.5000 
     41 O           1.2257  -19.7355  -41.1623 O.2       6 UNK        -0.5000 
     42 CA          1.7343  -17.8165  -39.8223 C.3       6 UNK         0.1400 
     43 CB          1.9564  -18.2401  -38.3630 C.3       6 UNK        -0.1800 
     44 N           2.4634  -16.5727  -40.0831 N.am      6 UNK        -0.5000 
     45 C           2.4060  -15.8778  -41.2261 C.2       5 UNK         0.5000 
     46 O           1.7670  -16.2351  -42.2189 O.2       5 UNK        -0.5000 
     47 CA          3.1798  -14.5519  -41.2588 C.3       5 UNK         0.1400 
     48 CB          4.0712  -14.4464  -42.5062 C.3       5 UNK        -0.1800 
     49 N           2.2235  -13.4516  -41.2515 N.am      5 UNK        -0.5000 
     50 C           1.6484  -12.9516  -40.1499 C.2       4 UNK         0.5000 
     51 O           1.9566  -13.2841  -39.0046 O.2       4 UNK        -0.5000 
     52 CA          0.5275  -11.9188  -40.3677 C.3       4 UNK         0.1400 
     53 CB          1.1062  -10.4972  -40.4294 C.3       4 UNK        -0.1800 
     54 N          -0.2429  -12.1747  -41.5854 N.am      4 UNK        -0.5000 
     55 C          -1.0959  -13.1904  -41.7621 C.2       3 UNK         0.5000 
     56 O          -1.3603  -14.0158  -40.8878 O.2       3 UNK        -0.5000 
     57 CA         -1.7601  -13.3197  -43.1472 C.3       3 UNK         0.1400 
     58 CB         -2.9599  -12.3638  -43.2855 C.3       3 UNK        -0.1800 
     59 N          -0.8426  -13.1947  -44.2886 N.am      3 UNK        -0.5000 
     60 C          -0.1496  -12.1257  -44.7161 C.2       2 UNK         0.5000 
     61 O          -0.1389  -11.0358  -44.1438 O.2       2 UNK        -0.5000 
     62 CA          0.6669  -12.3041  -46.0049 C.3       2 UNK         0.1400 
     63 CB          2.0900  -12.7904  -45.6804 C.3       2 UNK        -0.1800 
     64 N          -0.0116  -13.2335  -46.9046 N.am      2 UNK        -0.5000 
     65 C           0.2201  -13.4074  -48.2079 C.2       1 UNK         0.5000 
     66 O           1.1010  -12.8158  -48.8332 O.2       1 UNK        -0.5000 
     67 C          -0.3089  -22.1238  -47.7385 C.2       11 UNK         0.5000 
     68 O          -0.6903  -22.9258  -48.5894 O.2       11 UNK        -0.5000 
     69 N          -0.9082  -20.9431  -47.5198 N.am      12 UNK        -0.5000 
     70 CA         -2.1150  -20.4772  -48.2059 C.3       12 UNK         0.1400 
     71 CB         -2.4246  -19.0298  -47.7947 C.3       12 UNK        -0.1800 
     72 C          -3.3303  -21.3801  -47.9346 C.2       12 UNK         0.5000 
     73 O          -4.0429  -21.7313  -48.8739 O.2       12 UNK        -0.5000 
     74 N          -3.5258  -21.7686  -46.6658 N.am      13 UNK        -0.5000 
     75 CA         -4.5650  -22.7039  -46.2337 C.3       13 UNK         0.1400 
     76 CB         -4.5680  -22.8227  -44.7024 C.3       13 UNK        -0.1800 
     77 C          -4.4269  -24.0821  -46.9041 C.2       13 UNK         0.5000 
     78 O          -5.4127  -24.5959  -47.4365 O.2       13 UNK        -0.5000 
     79 N          -3.1958  -24.6156  -46.9183 N.am      14 UNK        -0.5000 
     80 CA         -2.8231  -25.8559  -47.6013 C.3       14 UNK         0.1400 
     81 CB         -1.3689  -26.2144  -47.2611 C.3       14 UNK        -0.1800 
     82 C          -3.0308  -25.7926  -49.1268 C.2       14 UNK         0.5000 
     83 O          -3.4761  -26.7770  -49.7176 O.2       14 UNK        -0.5000 
     84 N          -2.7769  -24.6240  -49.7314 N.am      15 UNK        -0.5000 
     85 CA         -3.0377  -24.2984  -51.1364 C.3       15 UNK         0.1400 
     86 CB         -2.1370  -23.1222  -51.5532 C.3       15 UNK        -0.1800 
     87 C          -4.5337  -24.0292  -51.4249 C.2       15 UNK         0.5000 
     88 O          -4.8676  -23.0665  -52.1205 O.2       15 UNK        -0.5000 
     89 N          -5.4046  -24.9026  -50.8994 N.am      16 UNK        -0.5000 
     90 CA         -6.8590  -24.9437  -51.0668 C.3       16 UNK         0.1400 
     91 CB         -7.2078  -25.3681  -52.5091 C.3       16 UNK        -0.1800 
     92 C          -7.5583  -23.6367  -50.6418 C.2       16 UNK         0.5000 
     93 O          -8.4063  -23.1309  -51.3766 O.2       16 UNK        -0.5000 
     94 N          -7.1682  -23.0914  -49.4790 N.am      17 UNK        -0.5000 
     95 CA         -7.6225  -21.8007  -48.9384 C.3       17 UNK         0.1400 
     96 CB         -9.0963  -21.8814  -48.4895 C.3       17 UNK        -0.1800 
     97 C          -7.3419  -20.6325  -49.9095 C.2       17 UNK         0.5000 
     98 O          -8.2211  -19.8163  -50.1897 O.2       17 UNK        -0.5000 
     99 N          -6.1083  -20.6220  -50.4277 N.am      18 UNK        -0.5000 
    100 CA        -5.5248  -19.7160  -51.4159 C.3       18 UNK         0.1400 
    101 CB        -5.5355  -18.2580  -50.9138 C.3       18 UNK        -0.1800 
    102 C         -6.0924  -19.8494  -52.8451 C.2       18 UNK         0.5000 
    103 O         -5.6880  -19.0764  -53.7141 O.2       18 UNK        -0.5000 
    104 N         -6.9755  -20.8257  -53.1031 N.am      19 UNK        -0.5000 
    105 CA        -7.5463  -21.0728  -54.4307 C.3       19 UNK         0.1400 
    106 CB        -8.8068  -21.9403  -54.3057 C.3       19 UNK        -0.1800 
    107 C         -6.5468  -21.7173  -55.4101 C.2       19 UNK         0.5000 
    108 O         -6.6927  -21.5330  -56.6191 O.2       19 UNK        -0.5000 
    109 N         -5.5552  -22.4478  -54.8824 N.am      20 UNK        -0.5000 
    110 CA        -4.4968  -23.1069  -55.6505 C.3       20 UNK         0.1400 
    111 CB        -4.4609  -24.5973  -55.2682 C.3       20 UNK        -0.1800 
    112 C         -3.1254  -22.4358  -55.4354 C.2       20 UNK         0.5000 
    113 O         -2.1109  -22.9895  -55.8627 O.2       20 UNK        -0.5000 
    114 N         -3.1003  -21.2707  -54.7718 N.am      21 UNK        -0.5000 
    115 CA        -1.8927  -20.4825  -54.5287 C.3       21 UNK         0.1400 
    116 CB        -2.1739  -19.4494  -53.4265 C.3       21 UNK        -0.1800 
    117 C         -1.3742  -19.7976  -55.8080 C.2       21 UNK         0.5000 
    118 O         -2.1374  -19.5589  -56.7469 O.2       21 UNK        -0.5000 
    119 N         -0.0765  -19.4802  -55.8002 N.am      22 UNK        -0.5000 
    120 CA         0.6639  -18.8378  -56.8985 C.3       22 UNK         0.1400 
    121 C          0.4037  -17.3112  -57.0802 C.2       22 UNK         0.5000 
    122 N         -0.3463  -16.6503  -56.2067 N.am      22 UNK        -0.7600 
    123 O          0.8804  -16.7174  -58.0438 O.2       22 UNK        -0.5000 
    124 C124        2.1791  -19.1722  -56.8169 C.3       23 UNK        -0.0398 
    125 S125        2.9604  -18.6748  -55.2389 S.3       23 UNK        -0.2404 
    126 C126        2.8325  -20.2179  -54.2706 C.3       23 UNK        -0.0205 
    127 H127       -4.6352  -13.5251  -48.5230 H         1 UNK         0.0600 
    128 H128       -4.5275  -13.2166  -46.7869 H         1 UNK         0.0600 
    129 H129       -4.9294  -14.8339  -47.3739 H         1 UNK         0.0600 
    130 H130       -2.6363  -13.6606  -49.4691 H         1 UNK         0.3000 
    131 H131       -0.6014  -14.1875  -50.0128 H         1 UNK         0.0600 
    132 H132       -0.1983  -16.0602  -47.6269 H         1 UNK         0.0800 
    133 H133       -1.2305  -16.4731  -48.9622 H         1 UNK         0.0800 
    134 H134       -0.3299  -18.4225  -49.8390 H         1 UNK         0.0800 
    135 H135       -0.2704  -17.5200  -51.3353 H         1 UNK         0.0800 
    136 H136        1.0694  -18.4776  -53.0708 H         1 UNK         0.1150 
    137 H137        4.0414  -21.4350  -52.1616 H         1 UNK         0.1150 
    138 H138        1.9530  -19.4245  -48.9999 H         1 UNK         0.1150 
    139 H139        4.7738  -21.7404  -49.9120 H         1 UNK         0.0800 
    140 H140        4.2355  -20.6693  -48.6495 H         1 UNK         0.0800 
    141 H141        2.1446  -20.8400  -47.3638 H         1 UNK         0.0800 
    142 H142        2.9584  -22.0824  -46.4680 H         1 UNK         0.0800 
    143 H143        0.9492  -23.5989  -46.8395 H         1 UNK         0.0600 
    144 H144        1.1687  -21.4650  -44.9850 H         1 UNK         0.3000 
    145 H145       -1.6346  -22.3813  -42.9518 H         1 UNK         0.0600 
    146 H146        0.1626  -22.3670  -41.2553 H         1 UNK         0.0600 
    147 H147        0.3044  -23.8041  -42.2564 H         1 UNK         0.0600 
    148 H148        1.3977  -22.4478  -42.5094 H         1 UNK         0.0600 
    149 H149        0.2417  -20.2578  -42.7155 H         1 UNK         0.3000 
    150 H150       -1.5757  -17.8538  -44.7001 H         1 UNK         0.0600 
    151 H151       -2.5293  -17.7693  -42.4177 H         1 UNK         0.0600 
    152 H152       -1.2236  -16.6010  -42.5653 H         1 UNK         0.0600 
    153 H153       -0.9575  -18.1172  -41.7105 H         1 UNK         0.0600 
    154 H154        0.9126  -17.6137  -43.3674 H         1 UNK         0.3000 
    155 H155        3.0093  -18.7482  -46.0467 H         1 UNK         0.0600 
    156 H156        2.4358  -16.0103  -44.8119 H         1 UNK         0.0600 
    157 H157        3.9524  -16.4787  -45.5815 H         1 UNK         0.0600 
    158 H158        2.4747  -16.3778  -46.5298 H         1 UNK         0.0600 
    159 H159        3.4750  -17.7792  -43.3690 H         1 UNK         0.3000 
    160 H160        3.6020  -20.9992  -41.8158 H         1 UNK         0.0600 
    161 H161        5.7755  -18.9435  -42.4948 H         1 UNK         0.0600 
    162 H162        5.8280  -20.6550  -42.9001 H         1 UNK         0.0600 
    163 H163        5.8528  -20.1561  -41.2164 H         1 UNK         0.0600 
    164 H164        4.0370  -18.3567  -40.8172 H         1 UNK         0.3000 
    165 H165        0.6713  -17.6071  -39.9563 H         1 UNK         0.0600 
    166 H166        1.6087  -17.4720  -37.6719 H         1 UNK         0.0600 
    167 H167        1.4064  -19.1540  -38.1338 H         1 UNK         0.0600 
    168 H168        3.0099  -18.4295  -38.1536 H         1 UNK         0.0600 
    169 H169        2.9896  -16.1919  -39.3095 H         1 UNK         0.3000 
    170 H170        3.8256  -14.4870  -40.3803 H         1 UNK         0.0600 
    171 H171        3.4866  -14.4391  -43.4246 H         1 UNK         0.0600 
    172 H172        4.6656  -13.5328  -42.4857 H         1 UNK         0.0600 
    173 H173        4.7657  -15.2853  -42.5639 H         1 UNK         0.0600 
    174 H174        1.8709  -13.1549  -42.1486 H         1 UNK         0.3000 
    175 H175       -0.1505  -11.9768  -39.5136 H         1 UNK         0.0600 
    176 H176        0.3140   -9.7530  -40.5128 H         1 UNK         0.0600 
    177 H177        1.7752  -10.3714  -41.2817 H         1 UNK         0.0600 
    178 H178        1.6747  -10.2669  -39.5273 H         1 UNK         0.0600 
    179 H179       -0.1006  -11.5447  -42.3715 H         1 UNK         0.3000 
    180 H180       -2.1539  -14.3357  -43.2065 H         1 UNK         0.0600 
    181 H181       -2.6590  -11.3174  -43.2300 H         1 UNK         0.0600 
    182 H182       -3.6865  -12.5355  -42.4905 H         1 UNK         0.0600 
    183 H183       -3.4745  -12.5156  -44.2345 H         1 UNK         0.0600 
    184 H184       -0.7337  -14.0538  -44.8086 H         1 UNK         0.3000 
    185 H185        0.7267  -11.3301  -46.4948 H         1 UNK         0.0600 
    186 H186        2.5859  -12.1158  -44.9813 H         1 UNK         0.0600 
    187 H187        2.0729  -13.7800  -45.2280 H         1 UNK         0.0600 
    188 H188        2.7106  -12.8421  -46.5747 H         1 UNK         0.0600 
    189 H189       -0.8261  -13.7136  -46.5296 H         1 UNK         0.3000 
    190 H190       -0.5001  -20.3047  -46.8409 H         1 UNK         0.3000 
    191 H191       -1.9085  -20.4929  -49.2777 H         1 UNK         0.0600 
    192 H192       -1.5341  -18.4078  -47.8374 H         1 UNK         0.0600 
    193 H193       -3.1698  -18.5884  -48.4564 H         1 UNK         0.0600 
    194 H194       -2.8127  -18.9655  -46.7785 H         1 UNK         0.0600 
    195 H195       -2.9275  -21.3833  -45.9402 H         1 UNK         0.3000 
    196 H196       -5.5260  -22.2848  -46.5296 H         1 UNK         0.0600 
    197 H197       -5.3711  -23.4790  -44.3653 H         1 UNK         0.0600 
    198 H198       -4.7230  -21.8512  -44.2326 H         1 UNK         0.0600 
    199 H199       -3.6323  -23.2307  -44.3227 H         1 UNK         0.0600 
    200 H200       -2.4516  -24.1301  -46.4245 H         1 UNK         0.3000 
    201 H201       -3.4667  -26.6486  -47.2147 H         1 UNK         0.0600 
    202 H202       -1.2318  -26.3270  -46.1855 H         1 UNK         0.0600 
    203 H203       -0.6734  -25.4501  -47.6078 H         1 UNK         0.0600 
    204 H204       -1.0797  -27.1571  -47.7272 H         1 UNK         0.0600 
    205 H205       -2.3732  -23.8772  -49.1750 H         1 UNK         0.3000 
    206 H206       -2.7519  -25.1591  -51.7439 H         1 UNK         0.0600 
    207 H207       -1.0877  -23.3331  -51.3465 H         1 UNK         0.0600 
    208 H208       -2.2203  -22.9279  -52.6213 H         1 UNK         0.0600 
    209 H209       -2.4039  -22.2049  -51.0288 H         1 UNK         0.0600 
    210 H210       -5.0074  -25.6557  -50.3478 H         1 UNK         0.3000 
    211 H211       -7.2265  -25.7191  -50.3935 H         1 UNK         0.0600 
    212 H212       -6.8871  -24.6234  -53.2378 H         1 UNK         0.0600 
    213 H213       -8.2831  -25.5034  -52.6302 H         1 UNK         0.0600 
    214 H214       -6.7316  -26.3137  -52.7678 H         1 UNK         0.0600 
    215 H215       -6.4566  -23.5749  -48.9402 H         1 UNK         0.3000 
    216 H216       -7.0229  -21.6023  -48.0517 H         1 UNK         0.0600 
    217 H217       -9.4016  -20.9620  -47.9887 H         1 UNK         0.0600 
    218 H218       -9.2488  -22.6998  -47.7860 H         1 UNK         0.0600 
    219 H219       -9.7716  -22.0331  -49.3321 H         1 UNK         0.0600 
    220 H220       -5.4621  -21.3310  -50.0882 H         1 UNK         0.3000 
    221 H221       -4.4829  -20.0261  -51.4862 H         1 UNK         0.0600 
    222 H222       -6.5439  -17.8441  -50.8938 H         1 UNK         0.0600 
    223 H223       -5.1214  -18.1823  -49.9088 H         1 UNK         0.0600 
    224 H224       -4.9342  -17.6178  -51.5603 H         1 UNK         0.0600 
    225 H225       -7.2599  -21.4486  -52.3567 H         1 UNK         0.3000 
    226 H226       -7.8477  -20.1116  -54.8526 H         1 UNK         0.0600 
    227 H227       -9.5110  -21.5184  -53.5883 H         1 UNK         0.0600 
    228 H228       -9.3224  -22.0149  -55.2638 H         1 UNK         0.0600 
    229 H229       -8.5679  -22.9550  -53.9879 H         1 UNK         0.0600 
    230 H230       -5.4909  -22.5446  -53.8711 H         1 UNK         0.3000 
    231 H231       -4.7065  -23.0453  -56.7199 H         1 UNK         0.0600 
    232 H232       -4.1605  -24.7425  -54.2315 H         1 UNK         0.0600 
    233 H233       -3.7539  -25.1452  -55.8921 H         1 UNK         0.0600 
    234 H234       -5.4373  -25.0628  -55.4031 H         1 UNK         0.0600 
    235 H235       -3.9799  -20.8510  -54.5082 H         1 UNK         0.3000 
    236 H236       -1.1132  -21.1576  -54.1682 H         1 UNK         0.0600 
    237 H237       -2.4108  -19.9411  -52.4839 H         1 UNK         0.0600 
    238 H238       -1.3054  -18.8174  -53.2444 H         1 UNK         0.0600 
    239 H239       -3.0030  -18.7924  -53.6899 H         1 UNK         0.0600 
    240 H240        0.4715  -19.6779  -54.9773 H         1 UNK         0.3000 
    241 H241        0.3003  -19.2883  -57.8241 H         1 UNK         0.0600 
    242 H242       -0.7580  -17.1247  -55.4209 H         1 UNK         0.3800 
    243 H243       -0.5108  -15.6650  -56.3415 H         1 UNK         0.3800 
    244 H244        2.3276  -20.2425  -56.9665 H         1 UNK         0.0800 
    245 H245        2.7219  -18.6940  -57.6341 H         1 UNK         0.0800 
    246 H246        2.0233  -20.8452  -54.6440 H         1 UNK         0.0800 
    247 H247        3.7503  -20.7880  -54.4233 H         1 UNK         0.0800 
@<TRIPOS>BOND
     1    1    2 1    
     2    1  127 1    
     3    1  128 1    
     4    1  129 1    
     5    2    3 2    
     6    2    4 am   BACKBONE|DICT|INTERRES
     7    4    5 1    
     8    4  130 1    
     9    5    6 1    
    10    5   65 1    
    11    5  131 1    
    12    6    7 1    
    13    6  132 1    
    14    6  133 1    
    15    7    8 1    
    16    8    9 1    
    17    8  134 1    
    18    8  135 1    
    19    9   10 ar   
    20    9   14 ar   
    21   10   11 ar   
    22   10  136 1    
    23   11   12 ar   
    24   11  126 1    
    25   12   13 ar   
    26   12  137 1    
    27   13   14 ar   
    28   13   15 1    
    29   14  138 1    
    30   15   16 1    
    31   15  139 1    
    32   15  140 1    
    33   16   17 1    
    34   17   18 1    
    35   17  141 1    
    36   17  142 1    
    37   18   19 1    
    38   18   67 1    
    39   18  143 1    
    40   19   20 am   BACKBONE|DICT|INTERRES
    41   19  144 1    
    42   20   21 2    
    43   20   22 1    
    44   22   23 1    
    45   22   24 1    
    46   22  145 1    
    47   23  146 1    
    48   23  147 1    
    49   23  148 1    
    50   24   25 am   BACKBONE|DICT|INTERRES
    51   24  149 1    
    52   25   26 2    
    53   25   27 1    
    54   27   28 1    
    55   27   29 1    
    56   27  150 1    
    57   28  151 1    
    58   28  152 1    
    59   28  153 1    
    60   29   30 am   BACKBONE|DICT|INTERRES
    61   29  154 1    
    62   30   31 2    
    63   30   32 1    
    64   32   33 1    
    65   32   34 1    
    66   32  155 1    
    67   33  156 1    
    68   33  157 1    
    69   33  158 1    
    70   34   35 am   BACKBONE|DICT|INTERRES
    71   34  159 1    
    72   35   36 2    
    73   35   37 1    
    74   37   38 1    
    75   37   39 1    
    76   37  160 1    
    77   38  161 1    
    78   38  162 1    
    79   38  163 1    
    80   39   40 am   BACKBONE|DICT|INTERRES
    81   39  164 1    
    82   40   41 2    
    83   40   42 1    
    84   42   43 1    
    85   42   44 1    
    86   42  165 1    
    87   43  166 1    
    88   43  167 1    
    89   43  168 1    
    90   44   45 am   BACKBONE|DICT|INTERRES
    91   44  169 1    
    92   45   46 2    
    93   45   47 1    
    94   47   48 1    
    95   47   49 1    
    96   47  170 1    
    97   48  171 1    
    98   48  172 1    
    99   48  173 1    
   100   49   50 am   BACKBONE|DICT|INTERRES
   101   49  174 1    
   102   50   51 2    
   103   50   52 1    
   104   52   53 1    
   105   52   54 1    
   106   52  175 1    
   107   53  176 1    
   108   53  177 1    
   109   53  178 1    
   110   54   55 am   BACKBONE|DICT|INTERRES
   111   54  179 1    
   112   55   56 2    
   113   55   57 1    
   114   57   58 1    
   115   57   59 1    
   116   57  180 1    
   117   58  181 1    
   118   58  182 1    
   119   58  183 1    
   120   59   60 am   BACKBONE|DICT|INTERRES
   121   59  184 1    
   122   60   61 2    
   123   60   62 1    
   124   62   63 1    
   125   62   64 1    
   126   62  185 1    
   127   63  186 1    
   128   63  187 1    
   129   63  188 1    
   130   64   65 am   BACKBONE|DICT|INTERRES
   131   64  189 1    
   132   65   66 2    
   133   67   68 2    
   134   67   69 am   BACKBONE|DICT|INTERRES
   135   69   70 1    
   136   69  190 1    
   137   70   71 1    
   138   70   72 1    
   139   70  191 1    
   140   71  192 1    
   141   71  193 1    
   142   71  194 1    
   143   72   73 2    
   144   72   74 am   BACKBONE|DICT|INTERRES
   145   74   75 1    
   146   74  195 1    
   147   75   76 1    
   148   75   77 1    
   149   75  196 1    
   150   76  197 1    
   151   76  198 1    
   152   76  199 1    
   153   77   78 2    
   154   77   79 am   BACKBONE|DICT|INTERRES
   155   79   80 1    
   156   79  200 1    
   157   80   81 1    
   158   80   82 1    
   159   80  201 1    
   160   81  202 1    
   161   81  203 1    
   162   81  204 1    
   163   82   83 2    
   164   82   84 am   BACKBONE|DICT|INTERRES
   165   84   85 1    
   166   84  205 1    
   167   85   86 1    
   168   85   87 1    
   169   85  206 1    
   170   86  207 1    
   171   86  208 1    
   172   86  209 1    
   173   87   88 2    
   174   87   89 am   BACKBONE|DICT|INTERRES
   175   89   90 1    
   176   89  210 1    
   177   90   91 1    
   178   90   92 1    
   179   90  211 1    
   180   91  212 1    
   181   91  213 1    
   182   91  214 1    
   183   92   93 2    
   184   92   94 am   BACKBONE|DICT|INTERRES
   185   94   95 1    
   186   94  215 1    
   187   95   96 1    
   188   95   97 1    
   189   95  216 1    
   190   96  217 1    
   191   96  218 1    
   192   96  219 1    
   193   97   98 2    
   194   97   99 am   BACKBONE|DICT|INTERRES
   195   99  100 1    
   196   99  220 1    
   197  100  101 1    
   198  100  102 1    
   199  100  221 1    
   200  101  222 1    
   201  101  223 1    
   202  101  224 1    
   203  102  103 2    
   204  102  104 am   BACKBONE|DICT|INTERRES
   205  104  105 1    
   206  104  225 1    
   207  105  106 1    
   208  105  107 1    
   209  105  226 1    
   210  106  227 1    
   211  106  228 1    
   212  106  229 1    
   213  107  108 2    
   214  107  109 am   BACKBONE|DICT|INTERRES
   215  109  110 1    
   216  109  230 1    
   217  110  111 1    
   218  110  112 1    
   219  110  231 1    
   220  111  232 1    
   221  111  233 1    
   222  111  234 1    
   223  112  113 2    
   224  112  114 am   BACKBONE|DICT|INTERRES
   225  114  115 1    
   226  114  235 1    
   227  115  116 1    
   228  115  117 1    
   229  115  236 1    
   230  116  237 1    
   231  116  238 1    
   232  116  239 1    
   233  117  118 2    
   234  117  119 am   BACKBONE|DICT|INTERRES
   235  119  120 1    
   236  119  240 1    
   237  120  121 1    
   238  120  124 1    
   239  120  241 1    
   240  121  122 am   BACKBONE|DICT|INTERRES
   241  121  123 2    
   242  122  242 1    
   243  122  243 1    
   244  124  125 1    
   245  124  244 1    
   246  124  245 1    
   247  125  126 1    
   248  126  246 1    
   249  126  247 1    
@<TRIPOS>SUBSTRUCTURE
     1 UNK         1 GROUP             0       ****    0 ROOT    
