@<TRIPOS>MOLECULE
3R540
247   249    1
SMALL
USER_CHARGES


@<TRIPOS>ATOM
      1 CA         -6.0612  -11.1330  -46.4449 C.3       0 UNK        -0.1800 
      2 C          -4.6036  -11.5271  -46.6319 C.2       0 UNK         0.5000 
      3 O          -3.7213  -10.9241  -46.0217 O.2       0 UNK        -0.5000 
      4 N          -4.3440  -12.5503  -47.4568 N.am      1 UNK        -0.5000 
      5 CA         -3.0055  -13.0666  -47.7827 C.3       1 UNK         0.1400 
      6 C6         -3.0542  -14.0734  -48.9573 C.3       23 UNK        -0.0398 
      7 S7         -4.0539  -15.5671  -48.6125 S.3       23 UNK        -0.2404 
      8 C8         -3.6149  -16.6194  -50.0370 C.3       23 UNK        -0.0205 
      9 C9         -2.2697  -17.3474  -49.9612 C.ar      23 UNK        -0.0193 
     10 C10        -1.9972  -18.3161  -50.9311 C.ar      23 UNK        -0.1150 
     11 C11        -0.7752  -18.9939  -50.9513 C.ar      23 UNK        -0.0193 
     12 C12         0.1831  -18.7083  -49.9761 C.ar      23 UNK        -0.1150 
     13 C13        -0.0723  -17.7499  -48.9923 C.ar      23 UNK        -0.0193 
     14 C14        -1.2978  -17.0779  -48.9877 C.ar      23 UNK        -0.1150 
     15 C15         0.9894  -17.4183  -47.9540 C.3       23 UNK        -0.0205 
     16 S16         0.9897  -18.6012  -46.5712 S.3       23 UNK        -0.2404 
     17 C17        -0.5677  -18.1808  -45.7150 C.3       23 UNK        -0.0398 
     18 CA         -1.5730  -19.3512  -45.7430 C.3       11 UNK         0.1400 
     19 N          -1.0076  -20.5406  -45.0976 N.am      11 UNK        -0.5000 
     20 C          -1.5798  -21.7422  -44.9552 C.2       10 UNK         0.5000 
     21 O          -2.6878  -22.0277  -45.4102 O.2       10 UNK        -0.5000 
     22 CA         -0.8017  -22.7761  -44.1183 C.3       10 UNK         0.1400 
     23 CB         -0.0601  -23.7620  -45.0326 C.3       10 UNK        -0.1800 
     24 N           0.1635  -22.1773  -43.1887 N.am      10 UNK        -0.5000 
     25 C          -0.1325  -21.3688  -42.1596 C.2       9 UNK         0.5000 
     26 O          -1.2775  -20.9834  -41.9178 O.2       9 UNK        -0.5000 
     27 CA          1.0390  -20.8568  -41.2921 C.3       9 UNK         0.1400 
     28 CB          0.7329  -20.9657  -39.7849 C.3       9 UNK        -0.1800 
     29 N           2.3498  -21.4419  -41.6113 N.am      9 UNK        -0.5000 
     30 C           2.7568  -22.7122  -41.4467 C.2       8 UNK         0.5000 
     31 O           2.0398  -23.6077  -41.0008 O.2       8 UNK        -0.5000 
     32 CA          4.1956  -23.0592  -41.8870 C.3       8 UNK         0.1400 
     33 CB          4.1723  -23.8033  -43.2320 C.3       8 UNK        -0.1800 
     34 N           5.0691  -21.8915  -42.0158 N.am      8 UNK        -0.5000 
     35 C           5.5424  -21.1666  -40.9928 C.2       7 UNK         0.5000 
     36 O           5.3676  -21.4622  -39.8102 O.2       7 UNK        -0.5000 
     37 CA          6.3223  -19.8814  -41.3456 C.3       7 UNK         0.1400 
     38 CB          7.8349  -20.1256  -41.2301 C.3       7 UNK        -0.1800 
     39 N           6.0324  -19.3212  -42.6733 N.am      7 UNK        -0.5000 
     40 C           4.8310  -18.9083  -43.0989 C.2       6 UNK         0.5000 
     41 O           3.7934  -19.0362  -42.4430 O.2       6 UNK        -0.5000 
     42 CA          4.7748  -18.3092  -44.5172 C.3       6 UNK         0.1400 
     43 CB          4.7566  -19.4306  -45.5683 C.3       6 UNK        -0.1800 
     44 N           3.5752  -17.4947  -44.6924 N.am      6 UNK        -0.5000 
     45 C           3.3777  -16.2911  -44.1433 C.2       5 UNK         0.5000 
     46 O           4.2490  -15.6429  -43.5578 O.2       5 UNK        -0.5000 
     47 CA          1.9318  -15.7686  -44.2064 C.3       5 UNK         0.1400 
     48 CB          1.1578  -16.2433  -42.9654 C.3       5 UNK        -0.1800 
     49 N           1.8347  -14.3147  -44.3166 N.am      5 UNK        -0.5000 
     50 C           2.2709  -13.5951  -45.3609 C.2       4 UNK         0.5000 
     51 O           2.8067  -14.0926  -46.3532 O.2       4 UNK        -0.5000 
     52 CA          2.0311  -12.0747  -45.2893 C.3       4 UNK         0.1400 
     53 CB          2.1741  -11.3807  -46.6562 C.3       4 UNK        -0.1800 
     54 N           0.6911  -11.8173  -44.7683 N.am      4 UNK        -0.5000 
     55 C           0.3917  -11.0747  -43.6943 C.2       3 UNK         0.5000 
     56 O           1.2293  -10.4570  -43.0360 O.2       3 UNK        -0.5000 
     57 CA         -1.0917  -11.0220  -43.2666 C.3       3 UNK         0.1400 
     58 CB         -1.7274   -9.6933  -43.7019 C.3       3 UNK        -0.1800 
     59 N          -1.8844  -12.1345  -43.7997 N.am      3 UNK        -0.5000 
     60 C          -1.7360  -13.4142  -43.4221 C.2       2 UNK         0.5000 
     61 O          -1.0064  -13.7561  -42.4922 O.2       2 UNK        -0.5000 
     62 CA         -2.4769  -14.5014  -44.2309 C.3       2 UNK         0.1400 
     63 CB         -3.6415  -15.0887  -43.4215 C.3       2 UNK        -0.1800 
     64 N          -2.9867  -14.0414  -45.5223 N.am      2 UNK        -0.5000 
     65 C          -2.2436  -13.6348  -46.5617 C.2       1 UNK         0.5000 
     66 O          -1.0121  -13.6460  -46.5597 O.2       1 UNK        -0.5000 
     67 C          -2.9229  -18.9056  -45.1374 C.2       11 UNK         0.5000 
     68 O          -3.7157  -18.2854  -45.8440 O.2       11 UNK        -0.5000 
     69 N          -3.1985  -19.2774  -43.8765 N.am      12 UNK        -0.5000 
     70 CA         -4.4986  -19.1078  -43.2184 C.3       12 UNK         0.1400 
     71 CB         -4.3668  -19.5127  -41.7432 C.3       12 UNK        -0.1800 
     72 C          -5.6428  -19.8948  -43.8960 C.2       12 UNK         0.5000 
     73 O          -6.8013  -19.4948  -43.7805 O.2       12 UNK        -0.5000 
     74 N          -5.2945  -20.9731  -44.6103 N.am      13 UNK        -0.5000 
     75 CA         -6.1816  -21.7746  -45.4525 C.3       13 UNK         0.1400 
     76 CB         -6.1214  -23.2354  -44.9706 C.3       13 UNK        -0.1800 
     77 C          -5.7829  -21.6460  -46.9385 C.2       13 UNK         0.5000 
     78 O          -6.0482  -22.5600  -47.7216 O.2       13 UNK        -0.5000 
     79 N          -5.1070  -20.5399  -47.2962 N.am      14 UNK        -0.5000 
     80 CA         -4.5696  -20.2016  -48.6224 C.3       14 UNK         0.1400 
     81 CB         -5.7210  -19.9118  -49.6068 C.3       14 UNK        -0.1800 
     82 C          -3.5646  -21.2350  -49.1796 C.2       14 UNK         0.5000 
     83 O          -3.3815  -21.3184  -50.3935 O.2       14 UNK        -0.5000 
     84 N          -2.9516  -22.0206  -48.2809 N.am      15 UNK        -0.5000 
     85 CA         -2.0846  -23.1680  -48.5514 C.3       15 UNK         0.1400 
     86 CB         -0.7335  -22.7051  -49.1269 C.3       15 UNK        -0.1800 
     87 C          -2.7795  -24.2880  -49.3598 C.2       15 UNK         0.5000 
     88 O          -2.1198  -25.0153  -50.1053 O.2       15 UNK        -0.5000 
     89 N          -4.1022  -24.4221  -49.1664 N.am      16 UNK        -0.5000 
     90 CA         -4.9929  -25.4242  -49.7533 C.3       16 UNK         0.1400 
     91 CB         -4.7223  -26.8097  -49.1245 C.3       16 UNK        -0.1800 
     92 C          -4.9463  -25.4064  -51.2952 C.2       16 UNK         0.5000 
     93 O          -5.3305  -24.4034  -51.8972 O.2       16 UNK        -0.5000 
     94 N          -4.4692  -26.4973  -51.9101 N.am      17 UNK        -0.5000 
     95 CA         -4.3600  -26.6782  -53.3600 C.3       17 UNK         0.1400 
     96 CB         -3.9084  -28.1178  -53.6487 C.3       17 UNK        -0.1800 
     97 C          -3.4253  -25.6710  -54.0593 C.2       17 UNK         0.5000 
     98 O          -3.6022  -25.4162  -55.2516 O.2       17 UNK        -0.5000 
     99 N          -2.4708  -25.0918  -53.3153 N.am      18 UNK        -0.5000 
    100 CA        -1.5502  -24.0678  -53.8122 C.3       18 UNK         0.1400 
    101 CB        -0.3948  -23.8876  -52.8205 C.3       18 UNK        -0.1800 
    102 C         -2.2281  -22.7169  -54.1107 C.2       18 UNK         0.5000 
    103 O         -1.6382  -21.9059  -54.8239 O.2       18 UNK        -0.5000 
    104 N         -3.4576  -22.4969  -53.6170 N.am      19 UNK        -0.5000 
    105 CA        -4.2665  -21.3020  -53.8810 C.3       19 UNK         0.1400 
    106 CB        -5.6070  -21.4170  -53.1420 C.3       19 UNK        -0.1800 
    107 C         -4.5148  -21.0495  -55.3813 C.2       19 UNK         0.5000 
    108 O         -4.5788  -19.8941  -55.8004 O.2       19 UNK        -0.5000 
    109 N         -4.5983  -22.1324  -56.1677 N.am      20 UNK        -0.5000 
    110 CA        -4.7240  -22.1013  -57.6248 C.3       20 UNK         0.1400 
    111 CB        -5.0676  -23.5133  -58.1228 C.3       20 UNK        -0.1800 
    112 C         -3.4653  -21.5684  -58.3397 C.2       20 UNK         0.5000 
    113 O         -3.5860  -21.0265  -59.4391 O.2       20 UNK        -0.5000 
    114 N         -2.2905  -21.7246  -57.7133 N.am      21 UNK        -0.5000 
    115 CA        -1.0192  -21.1914  -58.1989 C.3       21 UNK         0.1400 
    116 CB         0.1279  -22.1214  -57.7713 C.3       21 UNK        -0.1800 
    117 C         -0.7893  -19.7608  -57.6841 C.2       21 UNK         0.5000 
    118 O         -0.3487  -18.9063  -58.4544 O.2       21 UNK        -0.5000 
    119 N         -1.0934  -19.5251  -56.4004 N.am      22 UNK        -0.5000 
    120 CA        -0.9736  -18.2132  -55.7440 C.3       22 UNK         0.1400 
    121 C         -1.9848  -17.1497  -56.2588 C.2       22 UNK         0.5000 
    122 N         -3.2077  -17.5187  -56.6187 N.am      22 UNK        -0.7600 
    123 O         -1.6514  -15.9704  -56.3365 O.2       22 UNK        -0.5000 
    124 C124       -1.0531  -18.3233  -54.2023 C.3       23 UNK        -0.0398 
    125 S125        0.3068  -19.3103  -53.4906 S.3       23 UNK        -0.2404 
    126 C126       -0.4927  -20.0351  -52.0242 C.3       23 UNK        -0.0205 
    127 H127       -6.7296  -11.7601  -47.0354 H         1 UNK         0.0600 
    128 H128       -6.2104  -10.0967  -46.7475 H         1 UNK         0.0600 
    129 H129       -6.3431  -11.2273  -45.3963 H         1 UNK         0.0600 
    130 H130       -5.1106  -13.0236  -47.9145 H         1 UNK         0.3000 
    131 H131       -2.4208  -12.2095  -48.1235 H         1 UNK         0.0600 
    132 H132       -2.0429  -14.3602  -49.2481 H         1 UNK         0.0800 
    133 H133       -3.4766  -13.5832  -49.8355 H         1 UNK         0.0800 
    134 H134       -3.6377  -16.0141  -50.9443 H         1 UNK         0.0800 
    135 H135       -4.4064  -17.3597  -50.1489 H         1 UNK         0.0800 
    136 H136       -2.7428  -18.5429  -51.6796 H         1 UNK         0.1150 
    137 H137        1.1312  -19.2274  -49.9859 H         1 UNK         0.1150 
    138 H138       -1.4757  -16.3374  -48.2238 H         1 UNK         0.1150 
    139 H139        1.9733  -17.4327  -48.4253 H         1 UNK         0.0800 
    140 H140        0.8549  -16.4039  -47.5736 H         1 UNK         0.0800 
    141 H141       -0.9998  -17.2813  -46.1552 H         1 UNK         0.0800 
    142 H142       -0.3299  -17.9226  -44.6834 H         1 UNK         0.0800 
    143 H143       -1.7657  -19.6113  -46.7861 H         1 UNK         0.0600 
    144 H144       -0.0847  -20.4233  -44.7072 H         1 UNK         0.3000 
    145 H145       -1.5307  -23.3334  -43.5267 H         1 UNK         0.0600 
    146 H146        0.4979  -24.4967  -44.4517 H         1 UNK         0.0600 
    147 H147       -0.7603  -24.3159  -45.6578 H         1 UNK         0.0600 
    148 H148        0.6425  -23.2514  -45.6927 H         1 UNK         0.0600 
    149 H149        1.1295  -22.4409  -43.3104 H         1 UNK         0.3000 
    150 H150        1.1319  -19.7953  -41.5259 H         1 UNK         0.0600 
    151 H151       -0.1559  -20.3901  -39.5235 H         1 UNK         0.0600 
    152 H152        1.5569  -20.5764  -39.1869 H         1 UNK         0.0600 
    153 H153        0.5526  -21.9964  -39.4792 H         1 UNK         0.0600 
    154 H154        3.0214  -20.7716  -41.9756 H         1 UNK         0.3000 
    155 H155        4.6185  -23.7254  -41.1321 H         1 UNK         0.0600 
    156 H156        3.7730  -23.1786  -44.0321 H         1 UNK         0.0600 
    157 H157        3.5522  -24.6989  -43.1743 H         1 UNK         0.0600 
    158 H158        5.1732  -24.1227  -43.5230 H         1 UNK         0.0600 
    159 H159        5.2759  -21.5802  -42.9530 H         1 UNK         0.3000 
    160 H160        6.0420  -19.1274  -40.6072 H         1 UNK         0.0600 
    161 H161        8.1825  -20.8483  -41.9694 H         1 UNK         0.0600 
    162 H162        8.0954  -20.5135  -40.2443 H         1 UNK         0.0600 
    163 H163        8.3967  -19.2021  -41.3714 H         1 UNK         0.0600 
    164 H164        6.8280  -19.2041  -43.2845 H         1 UNK         0.3000 
    165 H165        5.6555  -17.6829  -44.6742 H         1 UNK         0.0600 
    166 H166        4.7115  -19.0225  -46.5784 H         1 UNK         0.0600 
    167 H167        5.6567  -20.0435  -45.5080 H         1 UNK         0.0600 
    168 H168        3.8987  -20.0921  -45.4380 H         1 UNK         0.0600 
    169 H169        2.7951  -17.9570  -45.1389 H         1 UNK         0.3000 
    170 H170        1.4548  -16.1821  -45.0939 H         1 UNK         0.0600 
    171 H171        1.5024  -15.7408  -42.0609 H         1 UNK         0.0600 
    172 H172        0.0902  -16.0591  -43.0668 H         1 UNK         0.0600 
    173 H173        1.2814  -17.3159  -42.8074 H         1 UNK         0.0600 
    174 H174        1.4061  -13.8312  -43.5403 H         1 UNK         0.3000 
    175 H175        2.7913  -11.6705  -44.6182 H         1 UNK         0.0600 
    176 H176        1.4636  -11.7783  -47.3823 H         1 UNK         0.0600 
    177 H177        2.0019  -10.3076  -46.5720 H         1 UNK         0.0600 
    178 H178        3.1764  -11.5168  -47.0640 H         1 UNK         0.0600 
    179 H179       -0.0535  -12.3211  -45.2389 H         1 UNK         0.3000 
    180 H180       -1.1228  -11.0733  -42.1763 H         1 UNK         0.0600 
    181 H181       -2.7703   -9.6321  -43.3902 H         1 UNK         0.0600 
    182 H182       -1.6925   -9.5677  -44.7847 H         1 UNK         0.0600 
    183 H183       -1.2043   -8.8459  -43.2570 H         1 UNK         0.0600 
    184 H184       -2.5111  -11.9126  -44.5656 H         1 UNK         0.3000 
    185 H185       -1.7620  -15.3019  -44.4290 H         1 UNK         0.0600 
    186 H186       -4.1451  -15.8782  -43.9791 H         1 UNK         0.0600 
    187 H187       -3.2884  -15.5246  -42.4860 H         1 UNK         0.0600 
    188 H188       -4.3824  -14.3278  -43.1732 H         1 UNK         0.0600 
    189 H189       -3.9905  -13.9910  -45.6180 H         1 UNK         0.3000 
    190 H190       -2.5023  -19.7981  -43.3553 H         1 UNK         0.3000 
    191 H191       -4.7623  -18.0500  -43.2598 H         1 UNK         0.0600 
    192 H192       -5.3060  -19.3609  -41.2097 H         1 UNK         0.0600 
    193 H193       -3.6056  -18.9186  -41.2371 H         1 UNK         0.0600 
    194 H194       -4.0949  -20.5639  -41.6387 H         1 UNK         0.0600 
    195 H195       -4.3127  -21.2275  -44.6644 H         1 UNK         0.3000 
    196 H196       -7.2127  -21.4265  -45.3690 H         1 UNK         0.0600 
    197 H197       -5.1221  -23.6559  -45.0915 H         1 UNK         0.0600 
    198 H198       -6.3922  -23.3133  -43.9176 H         1 UNK         0.0600 
    199 H199       -6.8149  -23.8650  -45.5293 H         1 UNK         0.0600 
    200 H200       -4.9241  -19.8460  -46.5802 H         1 UNK         0.3000 
    201 H201       -4.0040  -19.2785  -48.4920 H         1 UNK         0.0600 
    202 H202       -6.3161  -20.8035  -49.8054 H         1 UNK         0.0600 
    203 H203       -5.3413  -19.5546  -50.5645 H         1 UNK         0.0600 
    204 H204       -6.3873  -19.1424  -49.2170 H         1 UNK         0.0600 
    205 H205       -3.1601  -21.8770  -47.2979 H         1 UNK         0.3000 
    206 H206       -1.8786  -23.6175  -47.5811 H         1 UNK         0.0600 
    207 H207       -0.2267  -22.0314  -48.4354 H         1 UNK         0.0600 
    208 H208       -0.0649  -23.5471  -49.3085 H         1 UNK         0.0600 
    209 H209       -0.8641  -22.1724  -50.0657 H         1 UNK         0.0600 
    210 H210       -4.5690  -23.7301  -48.5893 H         1 UNK         0.3000 
    211 H211       -6.0068  -25.1299  -49.4784 H         1 UNK         0.0600 
    212 H212       -5.4183  -27.5587  -49.5045 H         1 UNK         0.0600 
    213 H213       -4.8535  -26.7745  -48.0429 H         1 UNK         0.0600 
    214 H214       -3.7090  -27.1628  -49.3190 H         1 UNK         0.0600 
    215 H215       -4.1481  -27.2638  -51.3368 H         1 UNK         0.3000 
    216 H216       -5.3565  -26.5408  -53.7848 H         1 UNK         0.0600 
    217 H217       -2.9263  -28.3240  -53.2212 H         1 UNK         0.0600 
    218 H218       -3.8438  -28.2998  -54.7224 H         1 UNK         0.0600 
    219 H219       -4.6127  -28.8428  -53.2403 H         1 UNK         0.0600 
    220 H220       -2.4074  -25.3216  -52.3302 H         1 UNK         0.3000 
    221 H221       -1.1272  -24.4254  -54.7533 H         1 UNK         0.0600 
    222 H222        0.1326  -24.8260  -52.6489 H         1 UNK         0.0600 
    223 H223       -0.7553  -23.5243  -51.8614 H         1 UNK         0.0600 
    224 H224        0.3333  -23.1652  -53.1924 H         1 UNK         0.0600 
    225 H225       -3.8823  -23.2013  -53.0247 H         1 UNK         0.3000 
    226 H226       -3.7255  -20.4441  -53.4787 H         1 UNK         0.0600 
    227 H227       -6.2075  -22.2428  -53.5253 H         1 UNK         0.0600 
    228 H228       -5.4580  -21.5852  -52.0762 H         1 UNK         0.0600 
    229 H229       -6.1932  -20.5036  -53.2493 H         1 UNK         0.0600 
    230 H230       -4.5112  -23.0447  -55.7405 H         1 UNK         0.3000 
    231 H231       -5.5527  -21.4370  -57.8785 H         1 UNK         0.0600 
    232 H232       -4.2820  -24.2285  -57.8752 H         1 UNK         0.0600 
    233 H233       -5.1951  -23.5262  -59.2060 H         1 UNK         0.0600 
    234 H234       -5.9981  -23.8718  -57.6823 H         1 UNK         0.0600 
    235 H235       -2.2811  -22.1212  -56.7819 H         1 UNK         0.3000 
    236 H236       -1.0294  -21.1599  -59.2906 H         1 UNK         0.0600 
    237 H237       -0.0221  -23.1318  -58.1517 H         1 UNK         0.0600 
    238 H238        1.0815  -21.7648  -58.1624 H         1 UNK         0.0600 
    239 H239        0.2236  -22.1827  -56.6870 H         1 UNK         0.0600 
    240 H240       -1.3886  -20.3010  -55.8148 H         1 UNK         0.3000 
    241 H241        0.0189  -17.8282  -55.9872 H         1 UNK         0.0600 
    242 H242       -3.8504  -16.8212  -56.9575 H         1 UNK         0.3800 
    243 H243       -3.5392  -18.4688  -56.4745 H         1 UNK         0.3800 
    244 H244       -2.0098  -18.7616  -53.9173 H         1 UNK         0.0800 
    245 H245       -1.0144  -17.3354  -53.7393 H         1 UNK         0.0800 
    246 H246       -1.4151  -20.5412  -52.3096 H         1 UNK         0.0800 
    247 H247        0.1663  -20.8066  -51.6255 H         1 UNK         0.0800 
@<TRIPOS>BOND
     1    1    2 1    
     2    1  127 1    
     3    1  128 1    
     4    1  129 1    
     5    2    3 2    
     6    2    4 am   BACKBONE|DICT|INTERRES
     7    4    5 1    
     8    4  130 1    
     9    5    6 1    
    10    5   65 1    
    11    5  131 1    
    12    6    7 1    
    13    6  132 1    
    14    6  133 1    
    15    7    8 1    
    16    8    9 1    
    17    8  134 1    
    18    8  135 1    
    19    9   10 ar   
    20    9   14 ar   
    21   10   11 ar   
    22   10  136 1    
    23   11   12 ar   
    24   11  126 1    
    25   12   13 ar   
    26   12  137 1    
    27   13   14 ar   
    28   13   15 1    
    29   14  138 1    
    30   15   16 1    
    31   15  139 1    
    32   15  140 1    
    33   16   17 1    
    34   17   18 1    
    35   17  141 1    
    36   17  142 1    
    37   18   19 1    
    38   18   67 1    
    39   18  143 1    
    40   19   20 am   BACKBONE|DICT|INTERRES
    41   19  144 1    
    42   20   21 2    
    43   20   22 1    
    44   22   23 1    
    45   22   24 1    
    46   22  145 1    
    47   23  146 1    
    48   23  147 1    
    49   23  148 1    
    50   24   25 am   BACKBONE|DICT|INTERRES
    51   24  149 1    
    52   25   26 2    
    53   25   27 1    
    54   27   28 1    
    55   27   29 1    
    56   27  150 1    
    57   28  151 1    
    58   28  152 1    
    59   28  153 1    
    60   29   30 am   BACKBONE|DICT|INTERRES
    61   29  154 1    
    62   30   31 2    
    63   30   32 1    
    64   32   33 1    
    65   32   34 1    
    66   32  155 1    
    67   33  156 1    
    68   33  157 1    
    69   33  158 1    
    70   34   35 am   BACKBONE|DICT|INTERRES
    71   34  159 1    
    72   35   36 2    
    73   35   37 1    
    74   37   38 1    
    75   37   39 1    
    76   37  160 1    
    77   38  161 1    
    78   38  162 1    
    79   38  163 1    
    80   39   40 am   BACKBONE|DICT|INTERRES
    81   39  164 1    
    82   40   41 2    
    83   40   42 1    
    84   42   43 1    
    85   42   44 1    
    86   42  165 1    
    87   43  166 1    
    88   43  167 1    
    89   43  168 1    
    90   44   45 am   BACKBONE|DICT|INTERRES
    91   44  169 1    
    92   45   46 2    
    93   45   47 1    
    94   47   48 1    
    95   47   49 1    
    96   47  170 1    
    97   48  171 1    
    98   48  172 1    
    99   48  173 1    
   100   49   50 am   BACKBONE|DICT|INTERRES
   101   49  174 1    
   102   50   51 2    
   103   50   52 1    
   104   52   53 1    
   105   52   54 1    
   106   52  175 1    
   107   53  176 1    
   108   53  177 1    
   109   53  178 1    
   110   54   55 am   BACKBONE|DICT|INTERRES
   111   54  179 1    
   112   55   56 2    
   113   55   57 1    
   114   57   58 1    
   115   57   59 1    
   116   57  180 1    
   117   58  181 1    
   118   58  182 1    
   119   58  183 1    
   120   59   60 am   BACKBONE|DICT|INTERRES
   121   59  184 1    
   122   60   61 2    
   123   60   62 1    
   124   62   63 1    
   125   62   64 1    
   126   62  185 1    
   127   63  186 1    
   128   63  187 1    
   129   63  188 1    
   130   64   65 am   BACKBONE|DICT|INTERRES
   131   64  189 1    
   132   65   66 2    
   133   67   68 2    
   134   67   69 am   BACKBONE|DICT|INTERRES
   135   69   70 1    
   136   69  190 1    
   137   70   71 1    
   138   70   72 1    
   139   70  191 1    
   140   71  192 1    
   141   71  193 1    
   142   71  194 1    
   143   72   73 2    
   144   72   74 am   BACKBONE|DICT|INTERRES
   145   74   75 1    
   146   74  195 1    
   147   75   76 1    
   148   75   77 1    
   149   75  196 1    
   150   76  197 1    
   151   76  198 1    
   152   76  199 1    
   153   77   78 2    
   154   77   79 am   BACKBONE|DICT|INTERRES
   155   79   80 1    
   156   79  200 1    
   157   80   81 1    
   158   80   82 1    
   159   80  201 1    
   160   81  202 1    
   161   81  203 1    
   162   81  204 1    
   163   82   83 2    
   164   82   84 am   BACKBONE|DICT|INTERRES
   165   84   85 1    
   166   84  205 1    
   167   85   86 1    
   168   85   87 1    
   169   85  206 1    
   170   86  207 1    
   171   86  208 1    
   172   86  209 1    
   173   87   88 2    
   174   87   89 am   BACKBONE|DICT|INTERRES
   175   89   90 1    
   176   89  210 1    
   177   90   91 1    
   178   90   92 1    
   179   90  211 1    
   180   91  212 1    
   181   91  213 1    
   182   91  214 1    
   183   92   93 2    
   184   92   94 am   BACKBONE|DICT|INTERRES
   185   94   95 1    
   186   94  215 1    
   187   95   96 1    
   188   95   97 1    
   189   95  216 1    
   190   96  217 1    
   191   96  218 1    
   192   96  219 1    
   193   97   98 2    
   194   97   99 am   BACKBONE|DICT|INTERRES
   195   99  100 1    
   196   99  220 1    
   197  100  101 1    
   198  100  102 1    
   199  100  221 1    
   200  101  222 1    
   201  101  223 1    
   202  101  224 1    
   203  102  103 2    
   204  102  104 am   BACKBONE|DICT|INTERRES
   205  104  105 1    
   206  104  225 1    
   207  105  106 1    
   208  105  107 1    
   209  105  226 1    
   210  106  227 1    
   211  106  228 1    
   212  106  229 1    
   213  107  108 2    
   214  107  109 am   BACKBONE|DICT|INTERRES
   215  109  110 1    
   216  109  230 1    
   217  110  111 1    
   218  110  112 1    
   219  110  231 1    
   220  111  232 1    
   221  111  233 1    
   222  111  234 1    
   223  112  113 2    
   224  112  114 am   BACKBONE|DICT|INTERRES
   225  114  115 1    
   226  114  235 1    
   227  115  116 1    
   228  115  117 1    
   229  115  236 1    
   230  116  237 1    
   231  116  238 1    
   232  116  239 1    
   233  117  118 2    
   234  117  119 am   BACKBONE|DICT|INTERRES
   235  119  120 1    
   236  119  240 1    
   237  120  121 1    
   238  120  124 1    
   239  120  241 1    
   240  121  122 am   BACKBONE|DICT|INTERRES
   241  121  123 2    
   242  122  242 1    
   243  122  243 1    
   244  124  125 1    
   245  124  244 1    
   246  124  245 1    
   247  125  126 1    
   248  126  246 1    
   249  126  247 1    
@<TRIPOS>SUBSTRUCTURE
     1 UNK         1 GROUP             0       ****    0 ROOT    
