@<TRIPOS>MOLECULE
3R540
247   249    1
SMALL
USER_CHARGES


@<TRIPOS>ATOM
      1 CA          1.9413  -15.7872  -51.5983 C.3       0 UNK        -0.1800 
      2 C           2.4688  -15.5142  -50.1965 C.2       0 UNK         0.5000 
      3 O           3.6815  -15.4889  -49.9881 O.2       0 UNK        -0.5000 
      4 N           1.5590  -15.3136  -49.2371 N.am      1 UNK        -0.5000 
      5 CA          1.8504  -15.0601  -47.8223 C.3       1 UNK         0.1400 
      6 C6          0.6052  -15.2651  -46.9168 C.3       23 UNK        -0.0398 
      7 S7         -0.9286  -14.4995  -47.5639 S.3       23 UNK        -0.2404 
      8 C8         -2.0143  -15.9404  -47.8346 C.3       23 UNK        -0.0205 
      9 C9         -1.6676  -16.7415  -49.0847 C.ar      23 UNK        -0.0193 
     10 C10        -2.4465  -16.6144  -50.2381 C.ar      23 UNK        -0.1150 
     11 C11        -2.1827  -17.4033  -51.3610 C.ar      23 UNK        -0.0193 
     12 C12        -1.1134  -18.3010  -51.3401 C.ar      23 UNK        -0.1150 
     13 C13        -0.3210  -18.4405  -50.1996 C.ar      23 UNK        -0.0193 
     14 C14        -0.6126  -17.6594  -49.0752 C.ar      23 UNK        -0.1150 
     15 C15         0.8312  -19.4461  -50.2185 C.3       23 UNK        -0.0205 
     16 S16         1.2639  -20.1596  -48.5939 S.3       23 UNK        -0.2404 
     17 C17        -0.3481  -20.8132  -48.0464 C.3       23 UNK        -0.0398 
     18 CA         -0.2235  -22.1858  -47.3556 C.3       11 UNK         0.1400 
     19 N           0.4866  -22.1179  -46.0759 N.am      11 UNK        -0.5000 
     20 C           0.8787  -23.1874  -45.3703 C.2       10 UNK         0.5000 
     21 O           0.7106  -24.3481  -45.7440 O.2       10 UNK        -0.5000 
     22 CA          1.5129  -22.9207  -43.9931 C.3       10 UNK         0.1400 
     23 CB          2.9784  -22.4820  -44.1308 C.3       10 UNK        -0.1800 
     24 N           0.7655  -21.9299  -43.2170 N.am      10 UNK        -0.5000 
     25 C          -0.4903  -22.1073  -42.7809 C.2       9 UNK         0.5000 
     26 O          -1.1328  -23.1439  -42.9522 O.2       9 UNK        -0.5000 
     27 CA         -1.1579  -20.9132  -42.0739 C.3       9 UNK         0.1400 
     28 CB         -0.7113  -20.8278  -40.6070 C.3       9 UNK        -0.1800 
     29 N          -0.8958  -19.6384  -42.7431 N.am      9 UNK        -0.5000 
     30 C          -1.2847  -19.3419  -43.9912 C.2       8 UNK         0.5000 
     31 O          -1.9495  -20.0962  -44.6992 O.2       8 UNK        -0.5000 
     32 CA         -0.7969  -18.0061  -44.5762 C.3       8 UNK         0.1400 
     33 CB         -1.6674  -16.8360  -44.0957 C.3       8 UNK        -0.1800 
     34 N           0.6088  -17.7344  -44.2792 N.am      8 UNK        -0.5000 
     35 C           1.6267  -18.5134  -44.6727 C.2       7 UNK         0.5000 
     36 O           1.4857  -19.5272  -45.3522 O.2       7 UNK        -0.5000 
     37 CA          3.0283  -18.1278  -44.1771 C.3       7 UNK         0.1400 
     38 CB          3.6246  -17.0009  -45.0312 C.3       7 UNK        -0.1800 
     39 N           3.0053  -17.7288  -42.7718 N.am      7 UNK        -0.5000 
     40 C           2.7899  -18.5766  -41.7560 C.2       6 UNK         0.5000 
     41 O           2.6356  -19.7905  -41.8962 O.2       6 UNK        -0.5000 
     42 CA          2.6871  -17.9500  -40.3540 C.3       6 UNK         0.1400 
     43 CB          4.0834  -17.7209  -39.7566 C.3       6 UNK        -0.1800 
     44 N           1.9456  -16.6869  -40.3588 N.am      6 UNK        -0.5000 
     45 C           0.6374  -16.5843  -40.6316 C.2       5 UNK         0.5000 
     46 O          -0.0832  -17.5470  -40.8926 O.2       5 UNK        -0.5000 
     47 CA          0.0406  -15.1658  -40.6510 C.3       5 UNK         0.1400 
     48 CB         -0.3767  -14.7378  -39.2363 C.3       5 UNK        -0.1800 
     49 N           0.9319  -14.1518  -41.2222 N.am      5 UNK        -0.5000 
     50 C           1.3779  -14.1506  -42.4849 C.2       4 UNK         0.5000 
     51 O           1.1663  -15.0623  -43.2879 O.2       4 UNK        -0.5000 
     52 CA          2.2010  -12.9283  -42.9256 C.3       4 UNK         0.1400 
     53 CB          3.6475  -13.3279  -43.2522 C.3       4 UNK        -0.1800 
     54 N           1.5809  -12.2972  -44.0918 N.am      4 UNK        -0.5000 
     55 C           0.4866  -11.5226  -44.0216 C.2       3 UNK         0.5000 
     56 O          -0.0395  -11.2118  -42.9512 O.2       3 UNK        -0.5000 
     57 CA         -0.1622  -11.0311  -45.3363 C.3       3 UNK         0.1400 
     58 CB         -0.6235   -9.5609  -45.2509 C.3       3 UNK        -0.1800 
     59 N           0.6300  -11.2682  -46.5472 N.am      3 UNK        -0.5000 
     60 C           1.7910  -10.7020  -46.9134 C.2       2 UNK         0.5000 
     61 O           2.3655   -9.8246  -46.2676 O.2       2 UNK        -0.5000 
     62 CA          2.4174  -11.2523  -48.2185 C.3       2 UNK         0.1400 
     63 CB          3.9291  -10.9641  -48.3301 C.3       2 UNK        -0.1800 
     64 N           2.1430  -12.6849  -48.4106 N.am      2 UNK        -0.5000 
     65 C           2.4592  -13.6713  -47.5561 C.2       1 UNK         0.5000 
     66 O           3.1332  -13.5046  -46.5404 O.2       1 UNK        -0.5000 
     67 C          -1.6122  -22.8359  -47.2151 C.2       11 UNK         0.5000 
     68 O          -1.9884  -23.6197  -48.0844 O.2       11 UNK        -0.5000 
     69 N          -2.3402  -22.5316  -46.1321 N.am      12 UNK        -0.5000 
     70 CA         -3.6329  -23.1399  -45.8150 C.3       12 UNK         0.1400 
     71 CB         -4.2813  -22.4096  -44.6302 C.3       12 UNK        -0.1800 
     72 C          -3.5217  -24.6503  -45.5420 C.2       12 UNK         0.5000 
     73 O          -4.3441  -25.4166  -46.0437 O.2       12 UNK        -0.5000 
     74 N          -2.4816  -25.0572  -44.7996 N.am      13 UNK        -0.5000 
     75 CA         -2.1513  -26.4593  -44.5326 C.3       13 UNK         0.1400 
     76 CB         -1.0507  -26.5319  -43.4635 C.3       13 UNK        -0.1800 
     77 C          -1.7363  -27.2294  -45.8022 C.2       13 UNK         0.5000 
     78 O          -2.1119  -28.3916  -45.9590 O.2       13 UNK        -0.5000 
     79 N          -0.9974  -26.5597  -46.6970 N.am      14 UNK        -0.5000 
     80 CA         -0.5776  -27.0804  -48.0007 C.3       14 UNK         0.1400 
     81 CB          0.6097  -26.2427  -48.5025 C.3       14 UNK        -0.1800 
     82 C          -1.7012  -27.0940  -49.0594 C.2       14 UNK         0.5000 
     83 O          -1.5194  -27.7058  -50.1125 O.2       14 UNK        -0.5000 
     84 N          -2.8160  -26.4014  -48.7803 N.am      15 UNK        -0.5000 
     85 CA         -3.9542  -26.1305  -49.6672 C.3       15 UNK         0.1400 
     86 CB         -4.6811  -27.4322  -50.0637 C.3       15 UNK        -0.1800 
     87 C          -3.5823  -25.2461  -50.8796 C.2       15 UNK         0.5000 
     88 O          -4.2187  -25.3324  -51.9308 O.2       15 UNK        -0.5000 
     89 N          -2.5675  -24.3916  -50.6990 N.am      16 UNK        -0.5000 
     90 CA         -2.1369  -23.3646  -51.6470 C.3       16 UNK         0.1400 
     91 CB         -0.6341  -23.1109  -51.4522 C.3       16 UNK        -0.1800 
     92 C          -2.9327  -22.0568  -51.4760 C.2       16 UNK         0.5000 
     93 O          -2.9423  -21.2376  -52.3935 O.2       16 UNK        -0.5000 
     94 N          -3.5926  -21.8987  -50.3232 N.am      17 UNK        -0.5000 
     95 CA         -4.5276  -20.8287  -49.9980 C.3       17 UNK         0.1400 
     96 CB         -3.8605  -19.8900  -48.9788 C.3       17 UNK        -0.1800 
     97 C          -5.7905  -21.4696  -49.3860 C.2       17 UNK         0.5000 
     98 O          -5.6925  -22.5743  -48.8478 O.2       17 UNK        -0.5000 
     99 N          -6.9584  -20.8115  -49.4009 N.am      18 UNK        -0.5000 
    100 CA        -7.2937  -19.5884  -50.1359 C.3       18 UNK         0.1400 
    101 CB        -8.5536  -18.9742  -49.5060 C.3       18 UNK        -0.1800 
    102 C         -7.5293  -19.8841  -51.6298 C.2       18 UNK         0.5000 
    103 O         -7.7705  -21.0379  -51.9925 O.2       18 UNK        -0.5000 
    104 N         -7.4524  -18.8339  -52.4613 N.am      19 UNK        -0.5000 
    105 CA        -7.4740  -18.8809  -53.9293 C.3       19 UNK         0.1400 
    106 CB        -8.8608  -19.3141  -54.4568 C.3       19 UNK        -0.1800 
    107 C         -6.2929  -19.7286  -54.4428 C.2       19 UNK         0.5000 
    108 O         -5.1552  -19.3640  -54.1500 O.2       19 UNK        -0.5000 
    109 N         -6.5733  -20.8377  -55.1437 N.am      20 UNK        -0.5000 
    110 CA        -5.6449  -21.9056  -55.5330 C.3       20 UNK         0.1400 
    111 CB        -5.3665  -22.8209  -54.3232 C.3       20 UNK        -0.1800 
    112 C         -4.3700  -21.3898  -56.2319 C.2       20 UNK         0.5000 
    113 O         -4.4322  -21.0766  -57.4222 O.2       20 UNK        -0.5000 
    114 N         -3.2539  -21.2734  -55.4952 N.am      21 UNK        -0.5000 
    115 CA        -1.9721  -20.7721  -56.0020 C.3       21 UNK         0.1400 
    116 CB        -0.8813  -20.9948  -54.9440 C.3       21 UNK        -0.1800 
    117 C         -2.0122  -19.2928  -56.4377 C.2       21 UNK         0.5000 
    118 O         -1.2115  -18.8944  -57.2848 O.2       21 UNK        -0.5000 
    119 N         -2.9530  -18.5202  -55.8813 N.am      22 UNK        -0.5000 
    120 CA        -3.2591  -17.1406  -56.2892 C.3       22 UNK         0.1400 
    121 C         -4.2621  -17.0535  -57.4794 C.2       22 UNK         0.5000 
    122 N         -4.7752  -18.1537  -58.0198 N.am      22 UNK        -0.7600 
    123 O         -4.5760  -15.9578  -57.9364 O.2       22 UNK        -0.5000 
    124 C124       -3.7361  -16.2795  -55.0908 C.3       23 UNK        -0.0398 
    125 S125       -2.4694  -16.1133  -53.7866 S.3       23 UNK        -0.2404 
    126 C126       -3.0783  -17.3280  -52.5823 C.3       23 UNK        -0.0205 
    127 H127        0.8509  -15.8019  -51.6255 H         1 UNK         0.0600 
    128 H128        2.3003  -16.7531  -51.9532 H         1 UNK         0.0600 
    129 H129        2.2887  -15.0180  -52.2878 H         1 UNK         0.0600 
    130 H130        0.5754  -15.3599  -49.4681 H         1 UNK         0.3000 
    131 H131        2.6045  -15.7865  -47.5160 H         1 UNK         0.0600 
    132 H132        0.4466  -16.3259  -46.7512 H         1 UNK         0.0800 
    133 H133        0.7783  -14.8716  -45.9134 H         1 UNK         0.0800 
    134 H134       -1.9989  -16.5899  -46.9622 H         1 UNK         0.0800 
    135 H135       -3.0406  -15.5771  -47.9056 H         1 UNK         0.0800 
    136 H136       -3.2776  -15.9235  -50.2540 H         1 UNK         0.1150 
    137 H137       -0.9133  -18.9087  -52.2109 H         1 UNK         0.1150 
    138 H138       -0.0200  -17.7834  -48.1850 H         1 UNK         0.1150 
    139 H139        0.5958  -20.2670  -50.8974 H         1 UNK         0.0800 
    140 H140        1.7140  -18.9522  -50.6252 H         1 UNK         0.0800 
    141 H141       -0.8148  -20.0874  -47.3785 H         1 UNK         0.0800 
    142 H142       -0.9978  -20.8887  -48.9200 H         1 UNK         0.0800 
    143 H143        0.3602  -22.8354  -48.0109 H         1 UNK         0.0600 
    144 H144        0.7140  -21.1877  -45.7305 H         1 UNK         0.3000 
    145 H145        1.4954  -23.8592  -43.4352 H         1 UNK         0.0600 
    146 H146        3.4427  -22.3481  -43.1536 H         1 UNK         0.0600 
    147 H147        3.5597  -23.2321  -44.6682 H         1 UNK         0.0600 
    148 H148        3.0727  -21.5431  -44.6759 H         1 UNK         0.0600 
    149 H149        1.2353  -21.0542  -43.0193 H         1 UNK         0.3000 
    150 H150       -2.2368  -21.0803  -42.0902 H         1 UNK         0.0600 
    151 H151       -0.9062  -21.7646  -40.0835 H         1 UNK         0.0600 
    152 H152       -1.2490  -20.0411  -40.0775 H         1 UNK         0.0600 
    153 H153        0.3553  -20.6181  -40.5217 H         1 UNK         0.0600 
    154 H154       -0.3949  -18.9363  -42.2057 H         1 UNK         0.3000 
    155 H155       -0.8879  -18.0828  -45.6602 H         1 UNK         0.0600 
    156 H156       -1.6305  -16.7258  -43.0125 H         1 UNK         0.0600 
    157 H157       -1.3451  -15.8931  -44.5378 H         1 UNK         0.0600 
    158 H158       -2.7109  -16.9875  -44.3740 H         1 UNK         0.0600 
    159 H159        0.8111  -16.8924  -43.7469 H         1 UNK         0.3000 
    160 H160        3.6738  -19.0035  -44.2736 H         1 UNK         0.0600 
    161 H161        2.9931  -16.1128  -45.0275 H         1 UNK         0.0600 
    162 H162        3.7362  -17.3229  -46.0670 H         1 UNK         0.0600 
    163 H163        4.6129  -16.7120  -44.6736 H         1 UNK         0.0600 
    164 H164        3.0677  -16.7409  -42.5762 H         1 UNK         0.3000 
    165 H165        2.1531  -18.6554  -39.7135 H         1 UNK         0.0600 
    166 H166        4.6598  -17.0011  -40.3391 H         1 UNK         0.0600 
    167 H167        4.0182  -17.3499  -38.7336 H         1 UNK         0.0600 
    168 H168        4.6524  -18.6512  -39.7281 H         1 UNK         0.0600 
    169 H169        2.4651  -15.8457  -40.1559 H         1 UNK         0.3000 
    170 H170       -0.8572  -15.1981  -41.2712 H         1 UNK         0.0600 
    171 H171       -1.0582  -15.4654  -38.7933 H         1 UNK         0.0600 
    172 H172        0.4834  -14.6465  -38.5719 H         1 UNK         0.0600 
    173 H173       -0.8939  -13.7782  -39.2508 H         1 UNK         0.0600 
    174 H174        1.1466  -13.3623  -40.6302 H         1 UNK         0.3000 
    175 H175        2.2348  -12.2023  -42.1104 H         1 UNK         0.0600 
    176 H176        4.2284  -12.4675  -43.5847 H         1 UNK         0.0600 
    177 H177        4.1458  -13.7385  -42.3734 H         1 UNK         0.0600 
    178 H178        3.6947  -14.0832  -44.0355 H         1 UNK         0.0600 
    179 H179        1.9683  -12.5409  -44.9951 H         1 UNK         0.3000 
    180 H180       -1.0587  -11.6409  -45.4578 H         1 UNK         0.0600 
    181 H181       -1.0911   -9.2387  -46.1813 H         1 UNK         0.0600 
    182 H182       -1.3599   -9.4268  -44.4578 H         1 UNK         0.0600 
    183 H183        0.2059   -8.8859  -45.0393 H         1 UNK         0.0600 
    184 H184        0.2615  -11.9858  -47.1560 H         1 UNK         0.3000 
    185 H185        1.9205  -10.7302  -49.0373 H         1 UNK         0.0600 
    186 H186        4.3396  -11.3683  -49.2554 H         1 UNK         0.0600 
    187 H187        4.1231   -9.8910  -48.3313 H         1 UNK         0.0600 
    188 H188        4.4878  -11.3954  -47.4990 H         1 UNK         0.0600 
    189 H189        1.5796  -12.9246  -49.2145 H         1 UNK         0.3000 
    190 H190       -2.0039  -21.8186  -45.4897 H         1 UNK         0.3000 
    191 H191       -4.2812  -23.0102  -46.6824 H         1 UNK         0.0600 
    192 H192       -5.2527  -22.8428  -44.3891 H         1 UNK         0.0600 
    193 H193       -4.4434  -21.3564  -44.8598 H         1 UNK         0.0600 
    194 H194       -3.6640  -22.4659  -43.7338 H         1 UNK         0.0600 
    195 H195       -1.8731  -24.3582  -44.3842 H         1 UNK         0.3000 
    196 H196       -3.0448  -26.9417  -44.1310 H         1 UNK         0.0600 
    197 H197       -0.8048  -27.5674  -43.2253 H         1 UNK         0.0600 
    198 H198       -1.3687  -26.0513  -42.5381 H         1 UNK         0.0600 
    199 H199       -0.1336  -26.0438  -43.7940 H         1 UNK         0.0600 
    200 H200       -0.6658  -25.6315  -46.4528 H         1 UNK         0.3000 
    201 H201       -0.2379  -28.1098  -47.8700 H         1 UNK         0.0600 
    202 H202        1.4331  -26.2563  -47.7882 H         1 UNK         0.0600 
    203 H203        0.3253  -25.2031  -48.6665 H         1 UNK         0.0600 
    204 H204        0.9931  -26.6302  -49.4472 H         1 UNK         0.0600 
    205 H205       -2.8431  -25.9165  -47.8928 H         1 UNK         0.3000 
    206 H206       -4.6519  -25.5370  -49.0741 H         1 UNK         0.0600 
    207 H207       -4.9247  -28.0303  -49.1856 H         1 UNK         0.0600 
    208 H208       -5.6184  -27.2141  -50.5766 H         1 UNK         0.0600 
    209 H209       -4.0798  -28.0468  -50.7339 H         1 UNK         0.0600 
    210 H210       -2.1565  -24.3420  -49.7696 H         1 UNK         0.3000 
    211 H211       -2.2963  -23.7199  -52.6672 H         1 UNK         0.0600 
    212 H212       -0.4104  -22.7645  -50.4436 H         1 UNK         0.0600 
    213 H213       -0.2711  -22.3537  -52.1480 H         1 UNK         0.0600 
    214 H214       -0.0567  -24.0185  -51.6286 H         1 UNK         0.0600 
    215 H215       -3.5760  -22.6561  -49.6517 H         1 UNK         0.3000 
    216 H216       -4.7820  -20.2759  -50.9032 H         1 UNK         0.0600 
    217 H217       -4.5064  -19.0493  -48.7263 H         1 UNK         0.0600 
    218 H218       -2.9372  -19.4771  -49.3788 H         1 UNK         0.0600 
    219 H219       -3.6184  -20.4079  -48.0498 H         1 UNK         0.0600 
    220 H220       -7.7509  -21.2796  -48.9885 H         1 UNK         0.3000 
    221 H221       -6.4800  -18.8678  -50.0429 H         1 UNK         0.0600 
    222 H222       -9.4106  -19.6450  -49.5825 H         1 UNK         0.0600 
    223 H223       -8.3972  -18.7496  -48.4507 H         1 UNK         0.0600 
    224 H224       -8.8251  -18.0392  -49.9977 H         1 UNK         0.0600 
    225 H225       -7.2463  -17.9265  -52.0682 H         1 UNK         0.3000 
    226 H226       -7.2922  -17.8632  -54.2780 H         1 UNK         0.0600 
    227 H227       -9.6405  -18.6505  -54.0828 H         1 UNK         0.0600 
    228 H228       -8.8978  -19.2667  -55.5459 H         1 UNK         0.0600 
    229 H229       -9.1250  -20.3289  -54.1585 H         1 UNK         0.0600 
    230 H230       -7.5454  -21.0219  -55.3455 H         1 UNK         0.3000 
    231 H231       -6.1643  -22.5100  -56.2782 H         1 UNK         0.0600 
    232 H232       -4.5869  -23.5530  -54.5377 H         1 UNK         0.0600 
    233 H233       -6.2619  -23.3781  -54.0477 H         1 UNK         0.0600 
    234 H234       -5.0657  -22.2523  -53.4458 H         1 UNK         0.0600 
    235 H235       -3.3085  -21.4353  -54.4950 H         1 UNK         0.3000 
    236 H236       -1.7134  -21.3634  -56.8827 H         1 UNK         0.0600 
    237 H237       -1.0621  -20.3964  -54.0516 H         1 UNK         0.0600 
    238 H238       -0.8273  -22.0414  -54.6443 H         1 UNK         0.0600 
    239 H239        0.0995  -20.7151  -55.3304 H         1 UNK         0.0600 
    240 H240       -3.5914  -18.9342  -55.2070 H         1 UNK         0.3000 
    241 H241       -2.3396  -16.6835  -56.6593 H         1 UNK         0.0600 
    242 H242       -4.5190  -19.0781  -57.6917 H         1 UNK         0.3800 
    243 H243       -5.4137  -18.0656  -58.7943 H         1 UNK         0.3800 
    244 H244       -3.9788  -15.2682  -55.4215 H         1 UNK         0.0800 
    245 H245       -4.6568  -16.6846  -54.6685 H         1 UNK         0.0800 
    246 H246       -4.0990  -17.0806  -52.2874 H         1 UNK         0.0800 
    247 H247       -3.1201  -18.3114  -53.0505 H         1 UNK         0.0800 
@<TRIPOS>BOND
     1    1    2 1    
     2    1  127 1    
     3    1  128 1    
     4    1  129 1    
     5    2    3 2    
     6    2    4 am   BACKBONE|DICT|INTERRES
     7    4    5 1    
     8    4  130 1    
     9    5    6 1    
    10    5   65 1    
    11    5  131 1    
    12    6    7 1    
    13    6  132 1    
    14    6  133 1    
    15    7    8 1    
    16    8    9 1    
    17    8  134 1    
    18    8  135 1    
    19    9   10 ar   
    20    9   14 ar   
    21   10   11 ar   
    22   10  136 1    
    23   11   12 ar   
    24   11  126 1    
    25   12   13 ar   
    26   12  137 1    
    27   13   14 ar   
    28   13   15 1    
    29   14  138 1    
    30   15   16 1    
    31   15  139 1    
    32   15  140 1    
    33   16   17 1    
    34   17   18 1    
    35   17  141 1    
    36   17  142 1    
    37   18   19 1    
    38   18   67 1    
    39   18  143 1    
    40   19   20 am   BACKBONE|DICT|INTERRES
    41   19  144 1    
    42   20   21 2    
    43   20   22 1    
    44   22   23 1    
    45   22   24 1    
    46   22  145 1    
    47   23  146 1    
    48   23  147 1    
    49   23  148 1    
    50   24   25 am   BACKBONE|DICT|INTERRES
    51   24  149 1    
    52   25   26 2    
    53   25   27 1    
    54   27   28 1    
    55   27   29 1    
    56   27  150 1    
    57   28  151 1    
    58   28  152 1    
    59   28  153 1    
    60   29   30 am   BACKBONE|DICT|INTERRES
    61   29  154 1    
    62   30   31 2    
    63   30   32 1    
    64   32   33 1    
    65   32   34 1    
    66   32  155 1    
    67   33  156 1    
    68   33  157 1    
    69   33  158 1    
    70   34   35 am   BACKBONE|DICT|INTERRES
    71   34  159 1    
    72   35   36 2    
    73   35   37 1    
    74   37   38 1    
    75   37   39 1    
    76   37  160 1    
    77   38  161 1    
    78   38  162 1    
    79   38  163 1    
    80   39   40 am   BACKBONE|DICT|INTERRES
    81   39  164 1    
    82   40   41 2    
    83   40   42 1    
    84   42   43 1    
    85   42   44 1    
    86   42  165 1    
    87   43  166 1    
    88   43  167 1    
    89   43  168 1    
    90   44   45 am   BACKBONE|DICT|INTERRES
    91   44  169 1    
    92   45   46 2    
    93   45   47 1    
    94   47   48 1    
    95   47   49 1    
    96   47  170 1    
    97   48  171 1    
    98   48  172 1    
    99   48  173 1    
   100   49   50 am   BACKBONE|DICT|INTERRES
   101   49  174 1    
   102   50   51 2    
   103   50   52 1    
   104   52   53 1    
   105   52   54 1    
   106   52  175 1    
   107   53  176 1    
   108   53  177 1    
   109   53  178 1    
   110   54   55 am   BACKBONE|DICT|INTERRES
   111   54  179 1    
   112   55   56 2    
   113   55   57 1    
   114   57   58 1    
   115   57   59 1    
   116   57  180 1    
   117   58  181 1    
   118   58  182 1    
   119   58  183 1    
   120   59   60 am   BACKBONE|DICT|INTERRES
   121   59  184 1    
   122   60   61 2    
   123   60   62 1    
   124   62   63 1    
   125   62   64 1    
   126   62  185 1    
   127   63  186 1    
   128   63  187 1    
   129   63  188 1    
   130   64   65 am   BACKBONE|DICT|INTERRES
   131   64  189 1    
   132   65   66 2    
   133   67   68 2    
   134   67   69 am   BACKBONE|DICT|INTERRES
   135   69   70 1    
   136   69  190 1    
   137   70   71 1    
   138   70   72 1    
   139   70  191 1    
   140   71  192 1    
   141   71  193 1    
   142   71  194 1    
   143   72   73 2    
   144   72   74 am   BACKBONE|DICT|INTERRES
   145   74   75 1    
   146   74  195 1    
   147   75   76 1    
   148   75   77 1    
   149   75  196 1    
   150   76  197 1    
   151   76  198 1    
   152   76  199 1    
   153   77   78 2    
   154   77   79 am   BACKBONE|DICT|INTERRES
   155   79   80 1    
   156   79  200 1    
   157   80   81 1    
   158   80   82 1    
   159   80  201 1    
   160   81  202 1    
   161   81  203 1    
   162   81  204 1    
   163   82   83 2    
   164   82   84 am   BACKBONE|DICT|INTERRES
   165   84   85 1    
   166   84  205 1    
   167   85   86 1    
   168   85   87 1    
   169   85  206 1    
   170   86  207 1    
   171   86  208 1    
   172   86  209 1    
   173   87   88 2    
   174   87   89 am   BACKBONE|DICT|INTERRES
   175   89   90 1    
   176   89  210 1    
   177   90   91 1    
   178   90   92 1    
   179   90  211 1    
   180   91  212 1    
   181   91  213 1    
   182   91  214 1    
   183   92   93 2    
   184   92   94 am   BACKBONE|DICT|INTERRES
   185   94   95 1    
   186   94  215 1    
   187   95   96 1    
   188   95   97 1    
   189   95  216 1    
   190   96  217 1    
   191   96  218 1    
   192   96  219 1    
   193   97   98 2    
   194   97   99 am   BACKBONE|DICT|INTERRES
   195   99  100 1    
   196   99  220 1    
   197  100  101 1    
   198  100  102 1    
   199  100  221 1    
   200  101  222 1    
   201  101  223 1    
   202  101  224 1    
   203  102  103 2    
   204  102  104 am   BACKBONE|DICT|INTERRES
   205  104  105 1    
   206  104  225 1    
   207  105  106 1    
   208  105  107 1    
   209  105  226 1    
   210  106  227 1    
   211  106  228 1    
   212  106  229 1    
   213  107  108 2    
   214  107  109 am   BACKBONE|DICT|INTERRES
   215  109  110 1    
   216  109  230 1    
   217  110  111 1    
   218  110  112 1    
   219  110  231 1    
   220  111  232 1    
   221  111  233 1    
   222  111  234 1    
   223  112  113 2    
   224  112  114 am   BACKBONE|DICT|INTERRES
   225  114  115 1    
   226  114  235 1    
   227  115  116 1    
   228  115  117 1    
   229  115  236 1    
   230  116  237 1    
   231  116  238 1    
   232  116  239 1    
   233  117  118 2    
   234  117  119 am   BACKBONE|DICT|INTERRES
   235  119  120 1    
   236  119  240 1    
   237  120  121 1    
   238  120  124 1    
   239  120  241 1    
   240  121  122 am   BACKBONE|DICT|INTERRES
   241  121  123 2    
   242  122  242 1    
   243  122  243 1    
   244  124  125 1    
   245  124  244 1    
   246  124  245 1    
   247  125  126 1    
   248  126  246 1    
   249  126  247 1    
@<TRIPOS>SUBSTRUCTURE
     1 UNK         1 GROUP             0       ****    0 ROOT    
