@<TRIPOS>MOLECULE
3R540
247   249    1
SMALL
USER_CHARGES


@<TRIPOS>ATOM
      1 CA          0.8535  -13.0182  -51.5168 C.3       0 UNK        -0.1800 
      2 C           1.1137  -12.7579  -50.0401 C.2       0 UNK         0.5000 
      3 O           0.7567  -11.6969  -49.5278 O.2       0 UNK        -0.5000 
      4 N           1.7186  -13.7301  -49.3483 N.am      1 UNK        -0.5000 
      5 CA          2.0852  -13.7019  -47.9246 C.3       1 UNK         0.1400 
      6 C6          3.2227  -14.7092  -47.6056 C.3       23 UNK        -0.0398 
      7 S7          4.6716  -14.5628  -48.7030 S.3       23 UNK        -0.2404 
      8 C8          5.2847  -16.2869  -48.7277 C.3       23 UNK        -0.0205 
      9 C9          4.3933  -17.3232  -49.4213 C.ar      23 UNK        -0.0193 
     10 C10         3.4035  -16.9761  -50.3503 C.ar      23 UNK        -0.1150 
     11 C11         2.6401  -17.9530  -50.9997 C.ar      23 UNK        -0.0193 
     12 C12         2.8970  -19.3035  -50.7241 C.ar      23 UNK        -0.1150 
     13 C13         3.8878  -19.6705  -49.8109 C.ar      23 UNK        -0.0193 
     14 C14         4.6201  -18.6770  -49.1561 C.ar      23 UNK        -0.1150 
     15 C15         4.2123  -21.1401  -49.5772 C.3       23 UNK        -0.0205 
     16 S16         3.3534  -21.8254  -48.1281 S.3       23 UNK        -0.2404 
     17 C17         1.6699  -22.0726  -48.7854 C.3       23 UNK        -0.0398 
     18 CA          0.8044  -22.9483  -47.8497 C.3       11 UNK         0.1400 
     19 N           0.5308  -22.3018  -46.5633 N.am      11 UNK        -0.5000 
     20 C          -0.0280  -22.9087  -45.5070 C.2       10 UNK         0.5000 
     21 O          -0.3288  -24.1031  -45.4863 O.2       10 UNK        -0.5000 
     22 CA         -0.3590  -22.0184  -44.2940 C.3       10 UNK         0.1400 
     23 CB          0.8969  -21.7169  -43.4625 C.3       10 UNK        -0.1800 
     24 N          -1.0048  -20.7659  -44.6927 N.am      10 UNK        -0.5000 
     25 C          -2.2250  -20.6933  -45.2441 C.2       9 UNK         0.5000 
     26 O          -2.9575  -21.6687  -45.4035 O.2       9 UNK        -0.5000 
     27 CA         -2.6860  -19.3134  -45.7473 C.3       9 UNK         0.1400 
     28 CB         -3.3609  -18.5077  -44.6277 C.3       9 UNK        -0.1800 
     29 N          -1.5796  -18.5457  -46.3155 N.am      9 UNK        -0.5000 
     30 C          -1.0036  -18.8229  -47.4941 C.2       8 UNK         0.5000 
     31 O          -1.3751  -19.7226  -48.2444 O.2       8 UNK        -0.5000 
     32 CA          0.2243  -17.9865  -47.8833 C.3       8 UNK         0.1400 
     33 CB         -0.2143  -16.7346  -48.6490 C.3       8 UNK        -0.1800 
     34 N           1.0543  -17.6261  -46.7297 N.am      8 UNK        -0.5000 
     35 C           1.7394  -18.5341  -46.0196 C.2       7 UNK         0.5000 
     36 O           1.7131  -19.7370  -46.2660 O.2       7 UNK        -0.5000 
     37 CA          2.5354  -18.0531  -44.7949 C.3       7 UNK         0.1400 
     38 CB          3.9677  -17.6657  -45.1868 C.3       7 UNK        -0.1800 
     39 N           1.9168  -16.9588  -44.0481 N.am      7 UNK        -0.5000 
     40 C           0.6973  -16.9739  -43.5005 C.2       6 UNK         0.5000 
     41 O          -0.1041  -17.8937  -43.6744 O.2       6 UNK        -0.5000 
     42 CA          0.2886  -15.7961  -42.5888 C.3       6 UNK         0.1400 
     43 CB          0.4879  -16.1783  -41.1113 C.3       6 UNK        -0.1800 
     44 N           0.8914  -14.4794  -42.8498 N.am      6 UNK        -0.5000 
     45 C           2.1763  -14.0906  -42.8328 C.2       5 UNK         0.5000 
     46 O           3.1307  -14.8583  -42.7120 O.2       5 UNK        -0.5000 
     47 CA          2.4474  -12.5763  -42.9410 C.3       5 UNK         0.1400 
     48 CB          2.8121  -12.1703  -44.3756 C.3       5 UNK        -0.1800 
     49 N           1.3205  -11.7651  -42.4731 N.am      5 UNK        -0.5000 
     50 C           1.0296  -11.5766  -41.1767 C.2       4 UNK         0.5000 
     51 O           1.7240  -12.0074  -40.2551 O.2       4 UNK        -0.5000 
     52 CA         -0.2504  -10.7862  -40.8392 C.3       4 UNK         0.1400 
     53 CB          0.0882   -9.3158  -40.5492 C.3       4 UNK        -0.1800 
     54 N          -1.2843  -10.8388  -41.8749 N.am      4 UNK        -0.5000 
     55 C          -1.9309  -11.9426  -42.2727 C.2       3 UNK         0.5000 
     56 O          -1.7015  -13.0669  -41.8253 O.2       3 UNK        -0.5000 
     57 CA         -3.0016  -11.7830  -43.3710 C.3       3 UNK         0.1400 
     58 CB         -3.3149  -10.3168  -43.7489 C.3       3 UNK        -0.1800 
     59 N          -2.6671  -12.5575  -44.5699 N.am      3 UNK        -0.5000 
     60 C          -1.5613  -12.4449  -45.3195 C.2       2 UNK         0.5000 
     61 O          -0.6313  -11.6751  -45.0616 O.2       2 UNK        -0.5000 
     62 CA         -1.5161  -13.3371  -46.5743 C.3       2 UNK         0.1400 
     63 CB         -2.6343  -12.9670  -47.5641 C.3       2 UNK        -0.1800 
     64 N          -0.2407  -13.2253  -47.2756 N.am      2 UNK        -0.5000 
     65 C           0.8568  -13.9374  -47.0100 C.2       1 UNK         0.5000 
     66 O           0.9010  -14.7944  -46.1256 O.2       1 UNK        -0.5000 
     67 C          -0.4963  -23.4019  -48.5440 C.2       11 UNK         0.5000 
     68 O          -0.5425  -24.5206  -49.0535 O.2       11 UNK        -0.5000 
     69 N          -1.5480  -22.5702  -48.4952 N.am      12 UNK        -0.5000 
     70 CA         -2.8873  -22.8988  -48.9829 C.3       12 UNK         0.1400 
     71 CB         -3.8049  -21.6808  -48.8579 C.3       12 UNK        -0.1800 
     72 C          -3.5185  -24.0955  -48.2579 C.2       12 UNK         0.5000 
     73 O          -4.0802  -24.9649  -48.9204 O.2       12 UNK        -0.5000 
     74 N          -3.3927  -24.1403  -46.9246 N.am      13 UNK        -0.5000 
     75 CA         -3.8681  -25.2448  -46.0905 C.3       13 UNK         0.1400 
     76 CB         -3.7270  -24.8731  -44.6069 C.3       13 UNK        -0.1800 
     77 C          -3.1526  -26.5734  -46.3974 C.2       13 UNK         0.5000 
     78 O          -3.8046  -27.6175  -46.4259 O.2       13 UNK        -0.5000 
     79 N          -1.8397  -26.5062  -46.6595 N.am      14 UNK        -0.5000 
     80 CA         -1.0233  -27.6434  -47.0857 C.3       14 UNK         0.1400 
     81 CB          0.4641  -27.2739  -46.9767 C.3       14 UNK        -0.1800 
     82 C          -1.3707  -28.1235  -48.5092 C.2       14 UNK         0.5000 
     83 O          -1.4472  -29.3305  -48.7415 O.2       14 UNK        -0.5000 
     84 N          -1.5855  -27.1743  -49.4302 N.am      15 UNK        -0.5000 
     85 CA         -1.9393  -27.4253  -50.8297 C.3       15 UNK         0.1400 
     86 CB         -1.6652  -26.1493  -51.6431 C.3       15 UNK        -0.1800 
     87 C          -3.3995  -27.8745  -51.0382 C.2       15 UNK         0.5000 
     88 O          -3.7043  -28.4365  -52.0908 O.2       15 UNK        -0.5000 
     89 N          -4.2692  -27.5892  -50.0579 N.am      16 UNK        -0.5000 
     90 CA         -5.7329  -27.6845  -50.1026 C.3       16 UNK         0.1400 
     91 CB         -6.2034  -29.1427  -50.2856 C.3       16 UNK        -0.1800 
     92 C          -6.3256  -26.7035  -51.1382 C.2       16 UNK         0.5000 
     93 O          -7.1734  -27.0799  -51.9502 O.2       16 UNK        -0.5000 
     94 N          -5.8325  -25.4616  -51.0932 N.am      17 UNK        -0.5000 
     95 CA         -6.1719  -24.3545  -51.9824 C.3       17 UNK         0.1400 
     96 CB         -4.8875  -23.9372  -52.7236 C.3       17 UNK        -0.1800 
     97 C          -6.7485  -23.1761  -51.1749 C.2       17 UNK         0.5000 
     98 O          -6.8611  -23.2542  -49.9490 O.2       17 UNK        -0.5000 
     99 N          -7.0955  -22.0927  -51.8802 N.am      18 UNK        -0.5000 
    100 CA        -7.4529  -20.7993  -51.2945 C.3       18 UNK         0.1400 
    101 CB        -8.2849  -20.0103  -52.3174 C.3       18 UNK        -0.1800 
    102 C         -6.1867  -20.0054  -50.9254 C.2       18 UNK         0.5000 
    103 O         -5.1452  -20.1960  -51.5578 O.2       18 UNK        -0.5000 
    104 N         -6.2994  -19.0909  -49.9517 N.am      19 UNK        -0.5000 
    105 CA        -5.2016  -18.2415  -49.4638 C.3       19 UNK         0.1400 
    106 CB        -5.6904  -17.4093  -48.2691 C.3       19 UNK        -0.1800 
    107 C         -4.5779  -17.3316  -50.5408 C.2       19 UNK         0.5000 
    108 O         -3.3816  -17.0518  -50.4796 O.2       19 UNK        -0.5000 
    109 N         -5.3927  -16.9110  -51.5176 N.am      20 UNK        -0.5000 
    110 CA        -4.9599  -16.1286  -52.6761 C.3       20 UNK         0.1400 
    111 CB        -6.1857  -15.4373  -53.2930 C.3       20 UNK        -0.1800 
    112 C         -4.2306  -16.9755  -53.7386 C.2       20 UNK         0.5000 
    113 O         -3.4232  -16.4288  -54.4907 O.2       20 UNK        -0.5000 
    114 N         -4.5338  -18.2800  -53.7954 N.am      21 UNK        -0.5000 
    115 CA        -3.9146  -19.2354  -54.7145 C.3       21 UNK         0.1400 
    116 CB        -4.9119  -20.3626  -55.0251 C.3       21 UNK        -0.1800 
    117 C         -2.6044  -19.8022  -54.1416 C.2       21 UNK         0.5000 
    118 O         -1.6508  -19.9841  -54.8972 O.2       21 UNK        -0.5000 
    119 N         -2.5994  -20.0610  -52.8261 N.am      22 UNK        -0.5000 
    120 CA        -1.4713  -20.4956  -51.9830 C.3       22 UNK         0.1400 
    121 C         -0.7692  -21.8340  -52.3656 C.2       22 UNK         0.5000 
    122 N         -1.3667  -22.6787  -53.1966 N.am      22 UNK        -0.7600 
    123 O          0.3104  -22.1370  -51.8684 O.2       22 UNK        -0.5000 
    124 C124       -0.5116  -19.3346  -51.5966 C.3       23 UNK        -0.0398 
    125 S125        0.6567  -18.7874  -52.8892 S.3       23 UNK        -0.2404 
    126 C126        1.5837  -17.4843  -52.0064 C.3       23 UNK        -0.0205 
    127 H127        1.2246  -13.9949  -51.8289 H         1 UNK         0.0600 
    128 H128        1.3450  -12.2580  -52.1239 H         1 UNK         0.0600 
    129 H129       -0.2166  -12.9804  -51.7209 H         1 UNK         0.0600 
    130 H130        1.9835  -14.5720  -49.8344 H         1 UNK         0.3000 
    131 H131        2.4590  -12.7024  -47.6929 H         1 UNK         0.0600 
    132 H132        3.5669  -14.5738  -46.5792 H         1 UNK         0.0800 
    133 H133        2.8481  -15.7306  -47.6742 H         1 UNK         0.0800 
    134 H134        5.4774  -16.5972  -47.7000 H         1 UNK         0.0800 
    135 H135        6.2524  -16.2902  -49.2307 H         1 UNK         0.0800 
    136 H136        3.2355  -15.9390  -50.5958 H         1 UNK         0.1150 
    137 H137        2.3487  -20.0851  -51.2288 H         1 UNK         0.1150 
    138 H138        5.3932  -18.9633  -48.4566 H         1 UNK         0.1150 
    139 H139        3.9728  -21.7312  -50.4626 H         1 UNK         0.0800 
    140 H140        5.2870  -21.2519  -49.4264 H         1 UNK         0.0800 
    141 H141        1.7669  -22.5486  -49.7620 H         1 UNK         0.0800 
    142 H142        1.2021  -21.1013  -48.9526 H         1 UNK         0.0800 
    143 H143        1.3704  -23.8574  -47.6343 H         1 UNK         0.0600 
    144 H144        0.8207  -21.3293  -46.4786 H         1 UNK         0.3000 
    145 H145       -1.0579  -22.5675  -43.6594 H         1 UNK         0.0600 
    146 H146        0.6591  -21.0968  -42.5980 H         1 UNK         0.0600 
    147 H147        1.3442  -22.6391  -43.0898 H         1 UNK         0.0600 
    148 H148        1.6576  -21.2000  -44.0466 H         1 UNK         0.0600 
    149 H149       -0.4733  -19.9117  -44.5778 H         1 UNK         0.3000 
    150 H150       -3.4278  -19.4705  -46.5322 H         1 UNK         0.0600 
    151 H151       -4.2305  -19.0395  -44.2397 H         1 UNK         0.0600 
    152 H152       -3.7077  -17.5405  -44.9919 H         1 UNK         0.0600 
    153 H153       -2.6877  -18.3301  -43.7892 H         1 UNK         0.0600 
    154 H154       -1.1566  -17.8483  -45.7179 H         1 UNK         0.3000 
    155 H155        0.8357  -18.5917  -48.5558 H         1 UNK         0.0600 
    156 H156       -0.8210  -16.9973  -49.5147 H         1 UNK         0.0600 
    157 H157       -0.8162  -16.0713  -48.0286 H         1 UNK         0.0600 
    158 H158        0.6476  -16.1854  -49.0188 H         1 UNK         0.0600 
    159 H159        1.0577  -16.6539  -46.4306 H         1 UNK         0.3000 
    160 H160        2.6003  -18.9008  -44.1103 H         1 UNK         0.0600 
    161 H161        4.5841  -17.4967  -44.3038 H         1 UNK         0.0600 
    162 H162        4.4436  -18.4552  -45.7705 H         1 UNK         0.0600 
    163 H163        3.9874  -16.7569  -45.7836 H         1 UNK         0.0600 
    164 H164        2.5144  -16.1747  -43.8005 H         1 UNK         0.3000 
    165 H165       -0.7817  -15.6561  -42.7479 H         1 UNK         0.0600 
    166 H166        0.0906  -15.4078  -40.4502 H         1 UNK         0.0600 
    167 H167       -0.0294  -17.1087  -40.8731 H         1 UNK         0.0600 
    168 H168        1.5420  -16.3181  -40.8691 H         1 UNK         0.0600 
    169 H169        0.2091  -13.7402  -42.9511 H         1 UNK         0.3000 
    170 H170        3.3146  -12.3630  -42.3120 H         1 UNK         0.0600 
    171 H171        3.1592  -11.1377  -44.4131 H         1 UNK         0.0600 
    172 H172        1.9586  -12.2555  -45.0442 H         1 UNK         0.0600 
    173 H173        3.6117  -12.7968  -44.7723 H         1 UNK         0.0600 
    174 H174        0.6937  -11.3982  -43.1791 H         1 UNK         0.3000 
    175 H175       -0.6704  -11.2245  -39.9315 H         1 UNK         0.0600 
    176 H176        0.4878   -8.8139  -41.4314 H         1 UNK         0.0600 
    177 H177       -0.7926   -8.7651  -40.2183 H         1 UNK         0.0600 
    178 H178        0.8356   -9.2348  -39.7587 H         1 UNK         0.0600 
    179 H179       -1.5193   -9.9630  -42.3190 H         1 UNK         0.3000 
    180 H180       -3.9156  -12.2188  -42.9650 H         1 UNK         0.0600 
    181 H181       -2.4535   -9.8058  -44.1806 H         1 UNK         0.0600 
    182 H182       -3.6432   -9.7459  -42.8793 H         1 UNK         0.0600 
    183 H183       -4.1215  -10.2706  -44.4808 H         1 UNK         0.0600 
    184 H184       -3.3598  -13.2405  -44.8416 H         1 UNK         0.3000 
    185 H185       -1.6631  -14.3716  -46.2564 H         1 UNK         0.0600 
    186 H186       -2.5543  -11.9289  -47.8894 H         1 UNK         0.0600 
    187 H187       -2.5962  -13.5987  -48.4522 H         1 UNK         0.0600 
    188 H188       -3.6223  -13.0982  -47.1217 H         1 UNK         0.0600 
    189 H189       -0.1750  -12.5165  -47.9991 H         1 UNK         0.3000 
    190 H190       -1.4263  -21.6372  -48.1123 H         1 UNK         0.3000 
    191 H191       -2.8001  -23.1552  -50.0401 H         1 UNK         0.0600 
    192 H192       -3.9023  -21.3462  -47.8276 H         1 UNK         0.0600 
    193 H193       -4.8061  -21.9110  -49.2131 H         1 UNK         0.0600 
    194 H194       -3.4373  -20.8486  -49.4499 H         1 UNK         0.0600 
    195 H195       -2.9691  -23.3534  -46.4422 H         1 UNK         0.3000 
    196 H196       -4.9298  -25.3855  -46.3036 H         1 UNK         0.0600 
    197 H197       -4.0993  -25.6737  -43.9666 H         1 UNK         0.0600 
    198 H198       -4.2980  -23.9751  -44.3703 H         1 UNK         0.0600 
    199 H199       -2.6881  -24.6895  -44.3327 H         1 UNK         0.0600 
    200 H200       -1.3719  -25.6107  -46.5713 H         1 UNK         0.3000 
    201 H201       -1.2146  -28.4715  -46.4000 H         1 UNK         0.0600 
    202 H202        0.7251  -26.9886  -45.9574 H         1 UNK         0.0600 
    203 H203        0.7242  -26.4423  -47.6318 H         1 UNK         0.0600 
    204 H204        1.0969  -28.1185  -47.2515 H         1 UNK         0.0600 
    205 H205       -1.4302  -26.2025  -49.1736 H         1 UNK         0.3000 
    206 H206       -1.2933  -28.2186  -51.2112 H         1 UNK         0.0600 
    207 H207       -0.6190  -25.8514  -51.5716 H         1 UNK         0.0600 
    208 H208       -1.8889  -26.2998  -52.6999 H         1 UNK         0.0600 
    209 H209       -2.2742  -25.3141  -51.2949 H         1 UNK         0.0600 
    210 H210       -3.9055  -27.0543  -49.2783 H         1 UNK         0.3000 
    211 H211       -6.0860  -27.3476  -49.1268 H         1 UNK         0.0600 
    212 H212       -5.9514  -29.5352  -51.2708 H         1 UNK         0.0600 
    213 H213       -7.2857  -29.2166  -50.1746 H         1 UNK         0.0600 
    214 H214       -5.7548  -29.7972  -49.5382 H         1 UNK         0.0600 
    215 H215       -5.1969  -25.2301  -50.3314 H         1 UNK         0.3000 
    216 H216       -6.9231  -24.6639  -52.7117 H         1 UNK         0.0600 
    217 H217       -5.0975  -23.2049  -53.5023 H         1 UNK         0.0600 
    218 H218       -4.4171  -24.7926  -53.2092 H         1 UNK         0.0600 
    219 H219       -4.1561  -23.4969  -52.0449 H         1 UNK         0.0600 
    220 H220       -6.9531  -22.0990  -52.8789 H         1 UNK         0.3000 
    221 H221       -8.0513  -20.9573  -50.3948 H         1 UNK         0.0600 
    222 H222       -7.7224  -19.8126  -53.2312 H         1 UNK         0.0600 
    223 H223       -9.1884  -20.5548  -52.5927 H         1 UNK         0.0600 
    224 H224       -8.5997  -19.0483  -51.9109 H         1 UNK         0.0600 
    225 H225       -7.1899  -18.9777  -49.4888 H         1 UNK         0.3000 
    226 H226       -4.4062  -18.8915  -49.1016 H         1 UNK         0.0600 
    227 H227       -6.0321  -18.0499  -47.4559 H         1 UNK         0.0600 
    228 H228       -4.8869  -16.7867  -47.8724 H         1 UNK         0.0600 
    229 H229       -6.5123  -16.7486  -48.5474 H         1 UNK         0.0600 
    230 H230       -6.3662  -17.1741  -51.4805 H         1 UNK         0.3000 
    231 H231       -4.2675  -15.3549  -52.3369 H         1 UNK         0.0600 
    232 H232       -5.8984  -14.8213  -54.1462 H         1 UNK         0.0600 
    233 H233       -6.6742  -14.7824  -52.5712 H         1 UNK         0.0600 
    234 H234       -6.9226  -16.1610  -53.6439 H         1 UNK         0.0600 
    235 H235       -5.1504  -18.6665  -53.0944 H         1 UNK         0.3000 
    236 H236       -3.6789  -18.7314  -55.6545 H         1 UNK         0.0600 
    237 H237       -5.8135  -19.9703  -55.4958 H         1 UNK         0.0600 
    238 H238       -4.4773  -21.0908  -55.7111 H         1 UNK         0.0600 
    239 H239       -5.2118  -20.8973  -54.1249 H         1 UNK         0.0600 
    240 H240       -3.4814  -19.9571  -52.3306 H         1 UNK         0.3000 
    241 H241       -1.9598  -20.7634  -51.0500 H         1 UNK         0.0600 
    242 H242       -2.2367  -22.4319  -53.6376 H         1 UNK         0.3800 
    243 H243       -0.9070  -23.5431  -53.4310 H         1 UNK         0.3800 
    244 H244       -1.1049  -18.4725  -51.2921 H         1 UNK         0.0800 
    245 H245        0.0596  -19.6207  -50.7136 H         1 UNK         0.0800 
    246 H246        2.0829  -16.8732  -52.7597 H         1 UNK         0.0800 
    247 H247        0.8727  -16.8271  -51.5048 H         1 UNK         0.0800 
@<TRIPOS>BOND
     1    1    2 1    
     2    1  127 1    
     3    1  128 1    
     4    1  129 1    
     5    2    3 2    
     6    2    4 am   BACKBONE|DICT|INTERRES
     7    4    5 1    
     8    4  130 1    
     9    5    6 1    
    10    5   65 1    
    11    5  131 1    
    12    6    7 1    
    13    6  132 1    
    14    6  133 1    
    15    7    8 1    
    16    8    9 1    
    17    8  134 1    
    18    8  135 1    
    19    9   10 ar   
    20    9   14 ar   
    21   10   11 ar   
    22   10  136 1    
    23   11   12 ar   
    24   11  126 1    
    25   12   13 ar   
    26   12  137 1    
    27   13   14 ar   
    28   13   15 1    
    29   14  138 1    
    30   15   16 1    
    31   15  139 1    
    32   15  140 1    
    33   16   17 1    
    34   17   18 1    
    35   17  141 1    
    36   17  142 1    
    37   18   19 1    
    38   18   67 1    
    39   18  143 1    
    40   19   20 am   BACKBONE|DICT|INTERRES
    41   19  144 1    
    42   20   21 2    
    43   20   22 1    
    44   22   23 1    
    45   22   24 1    
    46   22  145 1    
    47   23  146 1    
    48   23  147 1    
    49   23  148 1    
    50   24   25 am   BACKBONE|DICT|INTERRES
    51   24  149 1    
    52   25   26 2    
    53   25   27 1    
    54   27   28 1    
    55   27   29 1    
    56   27  150 1    
    57   28  151 1    
    58   28  152 1    
    59   28  153 1    
    60   29   30 am   BACKBONE|DICT|INTERRES
    61   29  154 1    
    62   30   31 2    
    63   30   32 1    
    64   32   33 1    
    65   32   34 1    
    66   32  155 1    
    67   33  156 1    
    68   33  157 1    
    69   33  158 1    
    70   34   35 am   BACKBONE|DICT|INTERRES
    71   34  159 1    
    72   35   36 2    
    73   35   37 1    
    74   37   38 1    
    75   37   39 1    
    76   37  160 1    
    77   38  161 1    
    78   38  162 1    
    79   38  163 1    
    80   39   40 am   BACKBONE|DICT|INTERRES
    81   39  164 1    
    82   40   41 2    
    83   40   42 1    
    84   42   43 1    
    85   42   44 1    
    86   42  165 1    
    87   43  166 1    
    88   43  167 1    
    89   43  168 1    
    90   44   45 am   BACKBONE|DICT|INTERRES
    91   44  169 1    
    92   45   46 2    
    93   45   47 1    
    94   47   48 1    
    95   47   49 1    
    96   47  170 1    
    97   48  171 1    
    98   48  172 1    
    99   48  173 1    
   100   49   50 am   BACKBONE|DICT|INTERRES
   101   49  174 1    
   102   50   51 2    
   103   50   52 1    
   104   52   53 1    
   105   52   54 1    
   106   52  175 1    
   107   53  176 1    
   108   53  177 1    
   109   53  178 1    
   110   54   55 am   BACKBONE|DICT|INTERRES
   111   54  179 1    
   112   55   56 2    
   113   55   57 1    
   114   57   58 1    
   115   57   59 1    
   116   57  180 1    
   117   58  181 1    
   118   58  182 1    
   119   58  183 1    
   120   59   60 am   BACKBONE|DICT|INTERRES
   121   59  184 1    
   122   60   61 2    
   123   60   62 1    
   124   62   63 1    
   125   62   64 1    
   126   62  185 1    
   127   63  186 1    
   128   63  187 1    
   129   63  188 1    
   130   64   65 am   BACKBONE|DICT|INTERRES
   131   64  189 1    
   132   65   66 2    
   133   67   68 2    
   134   67   69 am   BACKBONE|DICT|INTERRES
   135   69   70 1    
   136   69  190 1    
   137   70   71 1    
   138   70   72 1    
   139   70  191 1    
   140   71  192 1    
   141   71  193 1    
   142   71  194 1    
   143   72   73 2    
   144   72   74 am   BACKBONE|DICT|INTERRES
   145   74   75 1    
   146   74  195 1    
   147   75   76 1    
   148   75   77 1    
   149   75  196 1    
   150   76  197 1    
   151   76  198 1    
   152   76  199 1    
   153   77   78 2    
   154   77   79 am   BACKBONE|DICT|INTERRES
   155   79   80 1    
   156   79  200 1    
   157   80   81 1    
   158   80   82 1    
   159   80  201 1    
   160   81  202 1    
   161   81  203 1    
   162   81  204 1    
   163   82   83 2    
   164   82   84 am   BACKBONE|DICT|INTERRES
   165   84   85 1    
   166   84  205 1    
   167   85   86 1    
   168   85   87 1    
   169   85  206 1    
   170   86  207 1    
   171   86  208 1    
   172   86  209 1    
   173   87   88 2    
   174   87   89 am   BACKBONE|DICT|INTERRES
   175   89   90 1    
   176   89  210 1    
   177   90   91 1    
   178   90   92 1    
   179   90  211 1    
   180   91  212 1    
   181   91  213 1    
   182   91  214 1    
   183   92   93 2    
   184   92   94 am   BACKBONE|DICT|INTERRES
   185   94   95 1    
   186   94  215 1    
   187   95   96 1    
   188   95   97 1    
   189   95  216 1    
   190   96  217 1    
   191   96  218 1    
   192   96  219 1    
   193   97   98 2    
   194   97   99 am   BACKBONE|DICT|INTERRES
   195   99  100 1    
   196   99  220 1    
   197  100  101 1    
   198  100  102 1    
   199  100  221 1    
   200  101  222 1    
   201  101  223 1    
   202  101  224 1    
   203  102  103 2    
   204  102  104 am   BACKBONE|DICT|INTERRES
   205  104  105 1    
   206  104  225 1    
   207  105  106 1    
   208  105  107 1    
   209  105  226 1    
   210  106  227 1    
   211  106  228 1    
   212  106  229 1    
   213  107  108 2    
   214  107  109 am   BACKBONE|DICT|INTERRES
   215  109  110 1    
   216  109  230 1    
   217  110  111 1    
   218  110  112 1    
   219  110  231 1    
   220  111  232 1    
   221  111  233 1    
   222  111  234 1    
   223  112  113 2    
   224  112  114 am   BACKBONE|DICT|INTERRES
   225  114  115 1    
   226  114  235 1    
   227  115  116 1    
   228  115  117 1    
   229  115  236 1    
   230  116  237 1    
   231  116  238 1    
   232  116  239 1    
   233  117  118 2    
   234  117  119 am   BACKBONE|DICT|INTERRES
   235  119  120 1    
   236  119  240 1    
   237  120  121 1    
   238  120  124 1    
   239  120  241 1    
   240  121  122 am   BACKBONE|DICT|INTERRES
   241  121  123 2    
   242  122  242 1    
   243  122  243 1    
   244  124  125 1    
   245  124  244 1    
   246  124  245 1    
   247  125  126 1    
   248  126  246 1    
   249  126  247 1    
@<TRIPOS>SUBSTRUCTURE
     1 UNK         1 GROUP             0       ****    0 ROOT    
