@<TRIPOS>MOLECULE
3R540
247   249    1
SMALL
USER_CHARGES


@<TRIPOS>ATOM
      1 CA          0.7091   -8.9543  -44.8697 C.3       0 UNK        -0.1800 
      2 C           0.7495  -10.4743  -44.8692 C.2       0 UNK         0.5000 
      3 O           1.7510  -11.0584  -44.4536 O.2       0 UNK        -0.5000 
      4 N          -0.3335  -11.1191  -45.3237 N.am      1 UNK        -0.5000 
      5 CA         -0.4703  -12.5769  -45.4660 C.3       1 UNK         0.1400 
      6 C6         -1.7994  -12.9789  -46.1491 C.3       23 UNK        -0.0398 
      7 S7         -1.9855  -12.2308  -47.8031 S.3       23 UNK        -0.2404 
      8 C8         -3.5597  -12.9602  -48.3555 C.3       23 UNK        -0.0205 
      9 C9         -3.3574  -14.3262  -48.9940 C.ar      23 UNK        -0.0193 
     10 C10        -3.1308  -14.4313  -50.3697 C.ar      23 UNK        -0.1150 
     11 C11        -2.9493  -15.6825  -50.9667 C.ar      23 UNK        -0.0193 
     12 C12        -2.9844  -16.8349  -50.1755 C.ar      23 UNK        -0.1150 
     13 C13        -3.2146  -16.7411  -48.8003 C.ar      23 UNK        -0.0193 
     14 C14        -3.4076  -15.4860  -48.2164 C.ar      23 UNK        -0.1150 
     15 C15        -3.2276  -17.9874  -47.9344 C.3       23 UNK        -0.0205 
     16 S16        -4.8732  -18.7443  -47.8520 S.3       23 UNK        -0.2404 
     17 C17        -4.7575  -19.6921  -46.2961 C.3       23 UNK        -0.0398 
     18 CA         -4.2016  -21.1189  -46.5122 C.3       11 UNK         0.1400 
     19 N          -2.7392  -21.1493  -46.6809 N.am      11 UNK        -0.5000 
     20 C          -2.0345  -22.2380  -47.0267 C.2       10 UNK         0.5000 
     21 O          -2.5481  -23.3321  -47.2540 O.2       10 UNK        -0.5000 
     22 CA         -0.5076  -22.1043  -47.0910 C.3       10 UNK         0.1400 
     23 CB         -0.0734  -21.4375  -48.4047 C.3       10 UNK        -0.1800 
     24 N          -0.0003  -21.3582  -45.9415 N.am      10 UNK        -0.5000 
     25 C           0.1404  -21.8876  -44.7162 C.2       9 UNK         0.5000 
     26 O          -0.0627  -23.0752  -44.4634 O.2       9 UNK        -0.5000 
     27 CA          0.5495  -20.9388  -43.5708 C.3       9 UNK         0.1400 
     28 CB          2.0747  -20.9390  -43.3916 C.3       9 UNK        -0.1800 
     29 N           0.0923  -19.5617  -43.7575 N.am      9 UNK        -0.5000 
     30 C          -1.1914  -19.1789  -43.8119 C.2       8 UNK         0.5000 
     31 O          -2.1411  -19.9485  -43.6629 O.2       8 UNK        -0.5000 
     32 CA         -1.4654  -17.7015  -44.1581 C.3       8 UNK         0.1400 
     33 CB         -1.6229  -16.8723  -42.8761 C.3       8 UNK        -0.1800 
     34 N          -0.4519  -17.0782  -45.0181 N.am      8 UNK        -0.5000 
     35 C          -0.0163  -17.5519  -46.1965 C.2       7 UNK         0.5000 
     36 O          -0.4328  -18.5928  -46.7029 O.2       7 UNK        -0.5000 
     37 CA          1.0979  -16.7689  -46.9135 C.3       7 UNK         0.1400 
     38 CB          0.5022  -15.8375  -47.9799 C.3       7 UNK        -0.1800 
     39 N           1.9465  -15.9905  -46.0113 N.am      7 UNK        -0.5000 
     40 C           2.7318  -16.4898  -45.0464 C.2       6 UNK         0.5000 
     41 O           2.8121  -17.6944  -44.7975 O.2       6 UNK        -0.5000 
     42 CA          3.5342  -15.4726  -44.2021 C.3       6 UNK         0.1400 
     43 CB          4.8812  -16.0464  -43.7183 C.3       6 UNK        -0.1800 
     44 N           3.7380  -14.1642  -44.8400 N.am      6 UNK        -0.5000 
     45 C           4.3613  -13.9018  -46.0000 C.2       5 UNK         0.5000 
     46 O           4.8235  -14.7635  -46.7480 O.2       5 UNK        -0.5000 
     47 CA          4.4917  -12.4189  -46.3914 C.3       5 UNK         0.1400 
     48 CB          3.3318  -11.9898  -47.3021 C.3       5 UNK        -0.1800 
     49 N           4.5568  -11.5409  -45.2193 N.am      5 UNK        -0.5000 
     50 C           5.6840  -11.3378  -44.5223 C.2       4 UNK         0.5000 
     51 O           6.7672  -11.8434  -44.8214 O.2       4 UNK        -0.5000 
     52 CA          5.6152  -10.4123  -43.2931 C.3       4 UNK         0.1400 
     53 CB          5.9400   -8.9661  -43.6986 C.3       4 UNK        -0.1800 
     54 N           4.3467  -10.4220  -42.5630 N.am      4 UNK        -0.5000 
     55 C           3.7973  -11.4782  -41.9489 C.2       3 UNK         0.5000 
     56 O           4.2288  -12.6277  -42.0442 O.2       3 UNK        -0.5000 
     57 CA          2.5726  -11.2122  -41.0569 C.3       3 UNK         0.1400 
     58 CB          2.2232   -9.7201  -40.8747 C.3       3 UNK        -0.1800 
     59 N           1.4169  -11.9041  -41.6130 N.am      3 UNK        -0.5000 
     60 C           0.5796  -12.6916  -40.9261 C.2       2 UNK         0.5000 
     61 O           0.7288  -12.9624  -39.7334 O.2       2 UNK        -0.5000 
     62 CA         -0.6478  -13.2549  -41.6730 C.3       2 UNK         0.1400 
     63 CB         -1.9498  -12.9434  -40.9157 C.3       2 UNK        -0.1800 
     64 N          -0.7709  -12.7282  -43.0336 N.am      2 UNK        -0.5000 
     65 C          -0.3089  -13.3345  -44.1326 C.2       1 UNK         0.5000 
     66 O           0.2475  -14.4311  -44.1249 O.2       1 UNK        -0.5000 
     67 C          -4.6784  -22.0791  -45.4017 C.2       11 UNK         0.5000 
     68 O          -5.7006  -22.7424  -45.5795 O.2       11 UNK        -0.5000 
     69 N          -3.8896  -22.2077  -44.3253 N.am      12 UNK        -0.5000 
     70 CA         -4.0766  -23.1902  -43.2527 C.3       12 UNK         0.1400 
     71 CB         -3.0581  -22.9059  -42.1383 C.3       12 UNK        -0.1800 
     72 C          -3.9735  -24.6614  -43.7168 C.2       12 UNK         0.5000 
     73 O          -4.5036  -25.5434  -43.0410 O.2       12 UNK        -0.5000 
     74 N          -3.3240  -24.8968  -44.8644 N.am      13 UNK        -0.5000 
     75 CA         -3.1884  -26.1894  -45.5342 C.3       13 UNK         0.1400 
     76 CB         -1.7034  -26.4067  -45.8789 C.3       13 UNK        -0.1800 
     77 C          -4.0898  -26.2692  -46.7858 C.2       13 UNK         0.5000 
     78 O          -3.7550  -26.9850  -47.7308 O.2       13 UNK        -0.5000 
     79 N          -5.2050  -25.5206  -46.7895 N.am      14 UNK        -0.5000 
     80 CA         -6.2042  -25.4230  -47.8622 C.3       14 UNK         0.1400 
     81 CB         -6.9394  -26.7664  -48.0540 C.3       14 UNK        -0.1800 
     82 C          -5.6064  -24.8699  -49.1716 C.2       14 UNK         0.5000 
     83 O          -5.8078  -25.4425  -50.2438 O.2       14 UNK        -0.5000 
     84 N          -4.8359  -23.7816  -49.0378 N.am      15 UNK        -0.5000 
     85 CA         -4.0399  -23.1229  -50.0801 C.3       15 UNK         0.1400 
     86 CB         -4.9452  -22.4849  -51.1505 C.3       15 UNK        -0.1800 
     87 C          -2.9705  -24.0706  -50.6578 C.2       15 UNK         0.5000 
     88 O          -2.8015  -24.1464  -51.8743 O.2       15 UNK        -0.5000 
     89 N          -2.3046  -24.8079  -49.7557 N.am      16 UNK        -0.5000 
     90 CA         -1.3558  -25.8967  -50.0118 C.3       16 UNK         0.1400 
     91 CB         -0.0368  -25.3370  -50.5811 C.3       16 UNK        -0.1800 
     92 C          -1.9737  -26.9989  -50.8979 C.2       16 UNK         0.5000 
     93 O          -1.4048  -27.3560  -51.9291 O.2       16 UNK        -0.5000 
     94 N          -3.1681  -27.4684  -50.5080 N.am      17 UNK        -0.5000 
     95 CA         -4.0447  -28.3762  -51.2599 C.3       17 UNK         0.1400 
     96 CB         -3.4537  -29.8006  -51.2870 C.3       17 UNK        -0.1800 
     97 C          -4.3838  -27.8309  -52.6670 C.2       17 UNK         0.5000 
     98 O          -4.2973  -28.5560  -53.6594 O.2       17 UNK        -0.5000 
     99 N          -4.7239  -26.5358  -52.7101 N.am      18 UNK        -0.5000 
    100 CA        -5.0176  -25.6979  -53.8771 C.3       18 UNK         0.1400 
    101 CB        -6.2521  -26.2242  -54.6368 C.3       18 UNK        -0.1800 
    102 C         -3.8258  -25.4254  -54.8238 C.2       18 UNK         0.5000 
    103 O         -4.0272  -24.7836  -55.8562 O.2       18 UNK        -0.5000 
    104 N         -2.6080  -25.8695  -54.4783 N.am      19 UNK        -0.5000 
    105 CA        -1.4017  -25.6540  -55.2836 C.3       19 UNK         0.1400 
    106 CB        -0.3251  -26.6730  -54.8823 C.3       19 UNK        -0.1800 
    107 C         -0.8438  -24.2213  -55.1774 C.2       19 UNK         0.5000 
    108 O         -0.1366  -23.7856  -56.0867 O.2       19 UNK        -0.5000 
    109 N         -1.1646  -23.5173  -54.0851 N.am      20 UNK        -0.5000 
    110 CA        -0.7250  -22.1555  -53.7853 C.3       20 UNK         0.1400 
    111 CB         0.1085  -22.1692  -52.4914 C.3       20 UNK        -0.1800 
    112 C         -1.9294  -21.2012  -53.6914 C.2       20 UNK         0.5000 
    113 O         -1.8912  -20.2345  -52.9281 O.2       20 UNK        -0.5000 
    114 N         -2.9795  -21.4648  -54.4824 N.am      21 UNK        -0.5000 
    115 CA        -4.2164  -20.6796  -54.5708 C.3       21 UNK         0.1400 
    116 CB        -5.3268  -21.5754  -55.1481 C.3       21 UNK        -0.1800 
    117 C         -4.0469  -19.3512  -55.3447 C.2       21 UNK         0.5000 
    118 O         -4.8390  -19.0438  -56.2370 O.2       21 UNK        -0.5000 
    119 N         -3.0096  -18.5900  -54.9786 N.am      22 UNK        -0.5000 
    120 CA        -2.6630  -17.2440  -55.4676 C.3       22 UNK         0.1400 
    121 C         -2.2402  -17.1624  -56.9670 C.2       22 UNK         0.5000 
    122 N         -1.9268  -18.2693  -57.6290 N.am      22 UNK        -0.7600 
    123 O         -2.1594  -16.0761  -57.5347 O.2       22 UNK        -0.5000 
    124 C124       -3.7181  -16.1636  -55.0880 C.3       23 UNK        -0.0398 
    125 S125       -4.2556  -16.1964  -53.3398 S.3       23 UNK        -0.2404 
    126 C126       -2.7128  -15.7911  -52.4644 C.3       23 UNK        -0.0205 
    127 H127       -0.1782   -8.5737  -45.3760 H         1 UNK         0.0600 
    128 H128        1.5874   -8.5578  -45.3790 H         1 UNK         0.0600 
    129 H129        0.7070   -8.5782  -43.8472 H         1 UNK         0.0600 
    130 H130       -1.1167  -10.5797  -45.6650 H         1 UNK         0.3000 
    131 H131        0.3430  -12.9130  -46.1103 H         1 UNK         0.0600 
    132 H132       -2.6521  -12.6811  -45.5360 H         1 UNK         0.0800 
    133 H133       -1.8579  -14.0630  -46.2526 H         1 UNK         0.0800 
    134 H134       -4.2565  -13.0277  -47.5186 H         1 UNK         0.0800 
    135 H135       -4.0218  -12.2847  -49.0770 H         1 UNK         0.0800 
    136 H136       -3.0988  -13.5374  -50.9768 H         1 UNK         0.1150 
    137 H137       -2.8392  -17.8046  -50.6319 H         1 UNK         0.1150 
    138 H138       -3.5923  -15.4132  -47.1541 H         1 UNK         0.1150 
    139 H139       -2.5149  -18.7177  -48.3194 H         1 UNK         0.0800 
    140 H140       -2.9016  -17.7237  -46.9308 H         1 UNK         0.0800 
    141 H141       -5.7738  -19.7312  -45.8986 H         1 UNK         0.0800 
    142 H142       -4.1738  -19.1483  -45.5528 H         1 UNK         0.0800 
    143 H143       -4.6353  -21.4990  -47.4383 H         1 UNK         0.0600 
    144 H144       -2.2367  -20.2930  -46.4935 H         1 UNK         0.3000 
    145 H145       -0.0814  -23.1099  -47.0746 H         1 UNK         0.0600 
    146 H146       -0.5142  -20.4488  -48.5314 H         1 UNK         0.0600 
    147 H147        1.0102  -21.3309  -48.4542 H         1 UNK         0.0600 
    148 H148       -0.3801  -22.0403  -49.2597 H         1 UNK         0.0600 
    149 H149        0.1277  -20.3596  -46.0719 H         1 UNK         0.3000 
    150 H150        0.0961  -21.3184  -42.6528 H         1 UNK         0.0600 
    151 H151        2.4486  -21.9491  -43.2193 H         1 UNK         0.0600 
    152 H152        2.3720  -20.3320  -42.5363 H         1 UNK         0.0600 
    153 H153        2.5822  -20.5457  -44.2736 H         1 UNK         0.0600 
    154 H154        0.8085  -18.8683  -43.9297 H         1 UNK         0.3000 
    155 H155       -2.4146  -17.6675  -44.6922 H         1 UNK         0.0600 
    156 H156       -2.3523  -17.3233  -42.2019 H         1 UNK         0.0600 
    157 H157       -1.9737  -15.8653  -43.1014 H         1 UNK         0.0600 
    158 H158       -0.6798  -16.7891  -42.3348 H         1 UNK         0.0600 
    159 H159       -0.0553  -16.2044  -44.6803 H         1 UNK         0.3000 
    160 H160        1.7343  -17.5001  -47.4159 H         1 UNK         0.0600 
    161 H161       -0.1280  -15.0668  -47.5381 H         1 UNK         0.0600 
    162 H162       -0.1134  -16.3955  -48.6870 H         1 UNK         0.0600 
    163 H163        1.2853  -15.3418  -48.5539 H         1 UNK         0.0600 
    164 H164        1.9205  -14.9880  -46.1133 H         1 UNK         0.3000 
    165 H165        2.9250  -15.2781  -43.3182 H         1 UNK         0.0600 
    166 H166        5.5280  -16.3168  -44.5534 H         1 UNK         0.0600 
    167 H167        5.4149  -15.3243  -43.0999 H         1 UNK         0.0600 
    168 H168        4.7341  -16.9421  -43.1138 H         1 UNK         0.0600 
    169 H169        3.4241  -13.3714  -44.2964 H         1 UNK         0.3000 
    170 H170        5.4137  -12.3101  -46.9669 H         1 UNK         0.0600 
    171 H171        2.3668  -12.1235  -46.8187 H         1 UNK         0.0600 
    172 H172        3.4212  -10.9421  -47.5893 H         1 UNK         0.0600 
    173 H173        3.3197  -12.5795  -48.2195 H         1 UNK         0.0600 
    174 H174        3.6846  -11.1324  -44.8963 H         1 UNK         0.3000 
    175 H175        6.3873  -10.7485  -42.5980 H         1 UNK         0.0600 
    176 H176        5.1776   -8.5549  -44.3616 H         1 UNK         0.0600 
    177 H177        6.0130   -8.3171  -42.8257 H         1 UNK         0.0600 
    178 H178        6.8952   -8.9108  -44.2226 H         1 UNK         0.0600 
    179 H179        3.8967   -9.5259  -42.4493 H         1 UNK         0.3000 
    180 H180        2.8258  -11.6188  -40.0758 H         1 UNK         0.0600 
    181 H181        1.9456   -9.2472  -41.8170 H         1 UNK         0.0600 
    182 H182        3.0603   -9.1651  -40.4492 H         1 UNK         0.0600 
    183 H183        1.3833   -9.6012  -40.1898 H         1 UNK         0.0600 
    184 H184        1.2762  -11.7785  -42.6093 H         1 UNK         0.3000 
    185 H185       -0.5281  -14.3392  -41.7012 H         1 UNK         0.0600 
    186 H186       -2.8134  -13.3669  -41.4288 H         1 UNK         0.0600 
    187 H187       -1.9336  -13.3677  -39.9110 H         1 UNK         0.0600 
    188 H188       -2.1105  -11.8692  -40.8169 H         1 UNK         0.0600 
    189 H189       -1.1930  -11.8153  -43.1269 H         1 UNK         0.3000 
    190 H190       -3.0994  -21.5771  -44.2247 H         1 UNK         0.3000 
    191 H191       -5.0791  -23.0480  -42.8444 H         1 UNK         0.0600 
    192 H192       -2.0336  -23.0186  -42.4939 H         1 UNK         0.0600 
    193 H193       -3.1684  -21.8927  -41.7513 H         1 UNK         0.0600 
    194 H194       -3.1924  -23.5905  -41.2999 H         1 UNK         0.0600 
    195 H195       -2.9462  -24.1095  -45.3778 H         1 UNK         0.3000 
    196 H196       -3.5009  -26.9962  -44.8688 H         1 UNK         0.0600 
    197 H197       -1.0816  -26.3501  -44.9853 H         1 UNK         0.0600 
    198 H198       -1.3386  -25.6591  -46.5836 H         1 UNK         0.0600 
    199 H199       -1.5396  -27.3886  -46.3243 H         1 UNK         0.0600 
    200 H200       -5.3692  -24.9160  -45.9940 H         1 UNK         0.3000 
    201 H201       -6.9407  -24.6900  -47.5301 H         1 UNK         0.0600 
    202 H202       -7.7596  -26.6627  -48.7653 H         1 UNK         0.0600 
    203 H203       -7.3672  -27.1186  -47.1154 H         1 UNK         0.0600 
    204 H204       -6.2770  -27.5448  -48.4336 H         1 UNK         0.0600 
    205 H205       -4.6552  -23.4642  -48.0956 H         1 UNK         0.3000 
    206 H206       -3.4947  -22.3092  -49.6019 H         1 UNK         0.0600 
    207 H207       -5.6364  -21.7699  -50.7047 H         1 UNK         0.0600 
    208 H208       -5.5323  -23.2262  -51.6907 H         1 UNK         0.0600 
    209 H209       -4.3464  -21.9442  -51.8808 H         1 UNK         0.0600 
    210 H210       -2.5179  -24.6342  -48.7793 H         1 UNK         0.3000 
    211 H211       -1.1369  -26.3559  -49.0471 H         1 UNK         0.0600 
    212 H212        0.3625  -24.5431  -49.9501 H         1 UNK         0.0600 
    213 H213        0.7216  -26.1181  -50.6428 H         1 UNK         0.0600 
    214 H214       -0.1701  -24.9356  -51.5855 H         1 UNK         0.0600 
    215 H215       -3.5337  -27.1430  -49.6158 H         1 UNK         0.3000 
    216 H216       -4.9867  -28.4174  -50.7111 H         1 UNK         0.0600 
    217 H217       -4.1494  -30.5031  -51.7472 H         1 UNK         0.0600 
    218 H218       -2.5229  -29.8432  -51.8536 H         1 UNK         0.0600 
    219 H219       -3.2492  -30.1604  -50.2787 H         1 UNK         0.0600 
    220 H220       -4.8011  -26.0536  -51.8186 H         1 UNK         0.3000 
    221 H221       -5.2848  -24.7245  -53.4671 H         1 UNK         0.0600 
    222 H222       -6.0474  -27.1701  -55.1385 H         1 UNK         0.0600 
    223 H223       -7.0949  -26.3757  -53.9623 H         1 UNK         0.0600 
    224 H224       -6.5742  -25.5149  -55.4001 H         1 UNK         0.0600 
    225 H225       -2.4899  -26.3606  -53.6000 H         1 UNK         0.3000 
    226 H226       -1.6542  -25.8335  -56.3307 H         1 UNK         0.0600 
    227 H227       -0.7146  -27.6912  -54.8961 H         1 UNK         0.0600 
    228 H228        0.5189  -26.6365  -55.5720 H         1 UNK         0.0600 
    229 H229        0.0651  -26.4735  -53.8840 H         1 UNK         0.0600 
    230 H230       -1.7827  -23.9350  -53.3902 H         1 UNK         0.3000 
    231 H231       -0.0913  -21.7721  -54.5869 H         1 UNK         0.0600 
    232 H232        0.5185  -21.1821  -52.2747 H         1 UNK         0.0600 
    233 H233        0.9498  -22.8575  -52.5713 H         1 UNK         0.0600 
    234 H234       -0.4927  -22.4704  -51.6341 H         1 UNK         0.0600 
    235 H235       -2.9215  -22.2720  -55.0871 H         1 UNK         0.3000 
    236 H236       -4.5186  -20.3966  -53.5613 H         1 UNK         0.0600 
    237 H237       -5.4765  -22.4614  -54.5314 H         1 UNK         0.0600 
    238 H238       -6.2802  -21.0472  -55.1872 H         1 UNK         0.0600 
    239 H239       -5.0899  -21.9076  -56.1595 H         1 UNK         0.0600 
    240 H240       -2.4326  -18.9463  -54.2222 H         1 UNK         0.3000 
    241 H241       -1.7461  -16.9891  -54.9372 H         1 UNK         0.0600 
    242 H242       -1.6441  -18.2081  -58.5946 H         1 UNK         0.3800 
    243 H243       -1.9902  -19.1685  -57.1798 H         1 UNK         0.3800 
    244 H244       -3.3335  -15.1648  -55.3010 H         1 UNK         0.0800 
    245 H245       -4.6081  -16.2805  -55.7083 H         1 UNK         0.0800 
    246 H246       -2.3040  -14.8580  -52.8552 H         1 UNK         0.0800 
    247 H247       -1.9668  -16.5639  -52.6532 H         1 UNK         0.0800 
@<TRIPOS>BOND
     1    1    2 1    
     2    1  127 1    
     3    1  128 1    
     4    1  129 1    
     5    2    3 2    
     6    2    4 am   BACKBONE|DICT|INTERRES
     7    4    5 1    
     8    4  130 1    
     9    5    6 1    
    10    5   65 1    
    11    5  131 1    
    12    6    7 1    
    13    6  132 1    
    14    6  133 1    
    15    7    8 1    
    16    8    9 1    
    17    8  134 1    
    18    8  135 1    
    19    9   10 ar   
    20    9   14 ar   
    21   10   11 ar   
    22   10  136 1    
    23   11   12 ar   
    24   11  126 1    
    25   12   13 ar   
    26   12  137 1    
    27   13   14 ar   
    28   13   15 1    
    29   14  138 1    
    30   15   16 1    
    31   15  139 1    
    32   15  140 1    
    33   16   17 1    
    34   17   18 1    
    35   17  141 1    
    36   17  142 1    
    37   18   19 1    
    38   18   67 1    
    39   18  143 1    
    40   19   20 am   BACKBONE|DICT|INTERRES
    41   19  144 1    
    42   20   21 2    
    43   20   22 1    
    44   22   23 1    
    45   22   24 1    
    46   22  145 1    
    47   23  146 1    
    48   23  147 1    
    49   23  148 1    
    50   24   25 am   BACKBONE|DICT|INTERRES
    51   24  149 1    
    52   25   26 2    
    53   25   27 1    
    54   27   28 1    
    55   27   29 1    
    56   27  150 1    
    57   28  151 1    
    58   28  152 1    
    59   28  153 1    
    60   29   30 am   BACKBONE|DICT|INTERRES
    61   29  154 1    
    62   30   31 2    
    63   30   32 1    
    64   32   33 1    
    65   32   34 1    
    66   32  155 1    
    67   33  156 1    
    68   33  157 1    
    69   33  158 1    
    70   34   35 am   BACKBONE|DICT|INTERRES
    71   34  159 1    
    72   35   36 2    
    73   35   37 1    
    74   37   38 1    
    75   37   39 1    
    76   37  160 1    
    77   38  161 1    
    78   38  162 1    
    79   38  163 1    
    80   39   40 am   BACKBONE|DICT|INTERRES
    81   39  164 1    
    82   40   41 2    
    83   40   42 1    
    84   42   43 1    
    85   42   44 1    
    86   42  165 1    
    87   43  166 1    
    88   43  167 1    
    89   43  168 1    
    90   44   45 am   BACKBONE|DICT|INTERRES
    91   44  169 1    
    92   45   46 2    
    93   45   47 1    
    94   47   48 1    
    95   47   49 1    
    96   47  170 1    
    97   48  171 1    
    98   48  172 1    
    99   48  173 1    
   100   49   50 am   BACKBONE|DICT|INTERRES
   101   49  174 1    
   102   50   51 2    
   103   50   52 1    
   104   52   53 1    
   105   52   54 1    
   106   52  175 1    
   107   53  176 1    
   108   53  177 1    
   109   53  178 1    
   110   54   55 am   BACKBONE|DICT|INTERRES
   111   54  179 1    
   112   55   56 2    
   113   55   57 1    
   114   57   58 1    
   115   57   59 1    
   116   57  180 1    
   117   58  181 1    
   118   58  182 1    
   119   58  183 1    
   120   59   60 am   BACKBONE|DICT|INTERRES
   121   59  184 1    
   122   60   61 2    
   123   60   62 1    
   124   62   63 1    
   125   62   64 1    
   126   62  185 1    
   127   63  186 1    
   128   63  187 1    
   129   63  188 1    
   130   64   65 am   BACKBONE|DICT|INTERRES
   131   64  189 1    
   132   65   66 2    
   133   67   68 2    
   134   67   69 am   BACKBONE|DICT|INTERRES
   135   69   70 1    
   136   69  190 1    
   137   70   71 1    
   138   70   72 1    
   139   70  191 1    
   140   71  192 1    
   141   71  193 1    
   142   71  194 1    
   143   72   73 2    
   144   72   74 am   BACKBONE|DICT|INTERRES
   145   74   75 1    
   146   74  195 1    
   147   75   76 1    
   148   75   77 1    
   149   75  196 1    
   150   76  197 1    
   151   76  198 1    
   152   76  199 1    
   153   77   78 2    
   154   77   79 am   BACKBONE|DICT|INTERRES
   155   79   80 1    
   156   79  200 1    
   157   80   81 1    
   158   80   82 1    
   159   80  201 1    
   160   81  202 1    
   161   81  203 1    
   162   81  204 1    
   163   82   83 2    
   164   82   84 am   BACKBONE|DICT|INTERRES
   165   84   85 1    
   166   84  205 1    
   167   85   86 1    
   168   85   87 1    
   169   85  206 1    
   170   86  207 1    
   171   86  208 1    
   172   86  209 1    
   173   87   88 2    
   174   87   89 am   BACKBONE|DICT|INTERRES
   175   89   90 1    
   176   89  210 1    
   177   90   91 1    
   178   90   92 1    
   179   90  211 1    
   180   91  212 1    
   181   91  213 1    
   182   91  214 1    
   183   92   93 2    
   184   92   94 am   BACKBONE|DICT|INTERRES
   185   94   95 1    
   186   94  215 1    
   187   95   96 1    
   188   95   97 1    
   189   95  216 1    
   190   96  217 1    
   191   96  218 1    
   192   96  219 1    
   193   97   98 2    
   194   97   99 am   BACKBONE|DICT|INTERRES
   195   99  100 1    
   196   99  220 1    
   197  100  101 1    
   198  100  102 1    
   199  100  221 1    
   200  101  222 1    
   201  101  223 1    
   202  101  224 1    
   203  102  103 2    
   204  102  104 am   BACKBONE|DICT|INTERRES
   205  104  105 1    
   206  104  225 1    
   207  105  106 1    
   208  105  107 1    
   209  105  226 1    
   210  106  227 1    
   211  106  228 1    
   212  106  229 1    
   213  107  108 2    
   214  107  109 am   BACKBONE|DICT|INTERRES
   215  109  110 1    
   216  109  230 1    
   217  110  111 1    
   218  110  112 1    
   219  110  231 1    
   220  111  232 1    
   221  111  233 1    
   222  111  234 1    
   223  112  113 2    
   224  112  114 am   BACKBONE|DICT|INTERRES
   225  114  115 1    
   226  114  235 1    
   227  115  116 1    
   228  115  117 1    
   229  115  236 1    
   230  116  237 1    
   231  116  238 1    
   232  116  239 1    
   233  117  118 2    
   234  117  119 am   BACKBONE|DICT|INTERRES
   235  119  120 1    
   236  119  240 1    
   237  120  121 1    
   238  120  124 1    
   239  120  241 1    
   240  121  122 am   BACKBONE|DICT|INTERRES
   241  121  123 2    
   242  122  242 1    
   243  122  243 1    
   244  124  125 1    
   245  124  244 1    
   246  124  245 1    
   247  125  126 1    
   248  126  246 1    
   249  126  247 1    
@<TRIPOS>SUBSTRUCTURE
     1 UNK         1 GROUP             0       ****    0 ROOT    
