@<TRIPOS>MOLECULE
3R540
247   249    1
SMALL
USER_CHARGES


@<TRIPOS>ATOM
      1 CA          6.1665  -13.6764  -44.8114 C.3       0 UNK        -0.1800 
      2 C           6.3611  -14.4729  -46.1013 C.2       0 UNK         0.5000 
      3 O           7.4815  -14.8976  -46.3756 O.2       0 UNK        -0.5000 
      4 N           5.3256  -14.7194  -46.9164 N.am      1 UNK        -0.5000 
      5 CA          3.9452  -14.2345  -46.8106 C.3       1 UNK         0.1400 
      6 C6          3.0031  -14.9701  -47.7976 C.3       23 UNK        -0.0398 
      7 S7          2.9713  -16.7736  -47.5207 S.3       23 UNK        -0.2404 
      8 C8          2.6571  -17.4182  -49.2040 C.3       23 UNK        -0.0205 
      9 C9          1.2629  -17.1583  -49.7829 C.ar      23 UNK        -0.0193 
     10 C10         1.0153  -17.5184  -51.1130 C.ar      23 UNK        -0.1150 
     11 C11        -0.2431  -17.3178  -51.6915 C.ar      23 UNK        -0.0193 
     12 C12        -1.2672  -16.7570  -50.9252 C.ar      23 UNK        -0.1150 
     13 C13        -1.0436  -16.4067  -49.5926 C.ar      23 UNK        -0.0193 
     14 C14         0.2212  -16.5981  -49.0328 C.ar      23 UNK        -0.1150 
     15 C15        -2.1766  -15.8508  -48.7465 C.3       23 UNK        -0.0205 
     16 S16        -3.1908  -17.1901  -48.0473 S.3       23 UNK        -0.2404 
     17 C17        -2.0274  -17.9606  -46.8683 C.3       23 UNK        -0.0398 
     18 CA         -1.3358  -19.2348  -47.4082 C.3       11 UNK         0.1400 
     19 N          -0.1990  -19.6298  -46.5729 N.am      11 UNK        -0.5000 
     20 C           0.6364  -20.6470  -46.8279 C.2       10 UNK         0.5000 
     21 O           0.6016  -21.3207  -47.8541 O.2       10 UNK        -0.5000 
     22 CA          1.6342  -21.0290  -45.7240 C.3       10 UNK         0.1400 
     23 CB          2.9976  -20.3562  -45.9379 C.3       10 UNK        -0.1800 
     24 N           1.1093  -20.7108  -44.3958 N.am      10 UNK        -0.5000 
     25 C           0.2012  -21.4616  -43.7599 C.2       9 UNK         0.5000 
     26 O          -0.2612  -22.5075  -44.2182 O.2       9 UNK        -0.5000 
     27 CA         -0.2795  -20.9497  -42.3918 C.3       9 UNK         0.1400 
     28 CB          0.8185  -21.1191  -41.3297 C.3       9 UNK        -0.1800 
     29 N          -0.7293  -19.5563  -42.4010 N.am      9 UNK        -0.5000 
     30 C          -1.8189  -19.1085  -43.0414 C.2       8 UNK         0.5000 
     31 O          -2.4695  -19.7870  -43.8363 O.2       8 UNK        -0.5000 
     32 CA         -2.2538  -17.6626  -42.7465 C.3       8 UNK         0.1400 
     33 CB         -2.6888  -17.5013  -41.2806 C.3       8 UNK        -0.1800 
     34 N          -1.1566  -16.7449  -43.0316 N.am      8 UNK        -0.5000 
     35 C          -1.1469  -15.8378  -44.0175 C.2       7 UNK         0.5000 
     36 O          -2.1423  -15.5376  -44.6760 O.2       7 UNK        -0.5000 
     37 CA          0.2026  -15.1679  -44.3633 C.3       7 UNK         0.1400 
     38 CB          0.1742  -13.6669  -44.0361 C.3       7 UNK        -0.1800 
     39 N           1.3661  -15.7827  -43.7165 N.am      7 UNK        -0.5000 
     40 C           1.7966  -17.0316  -43.9519 C.2       6 UNK         0.5000 
     41 O           1.2391  -17.8006  -44.7327 O.2       6 UNK        -0.5000 
     42 CA          2.9814  -17.5472  -43.1114 C.3       6 UNK         0.1400 
     43 CB          4.3112  -17.2108  -43.8015 C.3       6 UNK        -0.1800 
     44 N           3.0036  -17.0184  -41.7471 N.am      6 UNK        -0.5000 
     45 C           2.0038  -17.0909  -40.8557 C.2       5 UNK         0.5000 
     46 O           0.9582  -17.7128  -41.0519 O.2       5 UNK        -0.5000 
     47 CA          2.1706  -16.2761  -39.5567 C.3       5 UNK         0.1400 
     48 CB          2.6543  -17.1861  -38.4182 C.3       5 UNK        -0.1800 
     49 N           3.0723  -15.1189  -39.6661 N.am      5 UNK        -0.5000 
     50 C           2.9517  -14.1147  -40.5464 C.2       4 UNK         0.5000 
     51 O           2.0819  -14.0713  -41.4217 O.2       4 UNK        -0.5000 
     52 CA          4.0050  -13.0008  -40.4738 C.3       4 UNK         0.1400 
     53 CB          5.3899  -13.5140  -40.9101 C.3       4 UNK        -0.1800 
     54 N           3.5774  -11.9220  -41.3572 N.am      4 UNK        -0.5000 
     55 C           3.9021  -10.6322  -41.2445 C.2       3 UNK         0.5000 
     56 O           4.6749  -10.1924  -40.3914 O.2       3 UNK        -0.5000 
     57 CA          3.2758   -9.7005  -42.2943 C.3       3 UNK         0.1400 
     58 CB          3.7008   -8.2267  -42.1333 C.3       3 UNK        -0.1800 
     59 N           3.6255  -10.1807  -43.6307 N.am      3 UNK        -0.5000 
     60 C           2.9111   -9.9580  -44.7406 C.2       2 UNK         0.5000 
     61 O           1.8193   -9.3895  -44.7557 O.2       2 UNK        -0.5000 
     62 CA          3.5201  -10.4725  -46.0509 C.3       2 UNK         0.1400 
     63 CB          4.8919   -9.8160  -46.3214 C.3       2 UNK        -0.1800 
     64 N           3.6179  -11.9315  -46.0075 N.am      2 UNK        -0.5000 
     65 C           3.8988  -12.7123  -47.0586 C.2       1 UNK         0.5000 
     66 O           4.1305  -12.2822  -48.1901 O.2       1 UNK        -0.5000 
     67 C          -2.3316  -20.3940  -47.5984 C.2       11 UNK         0.5000 
     68 O          -2.6593  -20.7231  -48.7366 O.2       11 UNK        -0.5000 
     69 N          -2.7431  -21.0339  -46.4935 N.am      12 UNK        -0.5000 
     70 CA         -3.6323  -22.1972  -46.5008 C.3       12 UNK         0.1400 
     71 CB         -3.9847  -22.5805  -45.0566 C.3       12 UNK        -0.1800 
     72 C          -3.0484  -23.4058  -47.2561 C.2       12 UNK         0.5000 
     73 O          -3.7943  -24.1029  -47.9459 O.2       12 UNK        -0.5000 
     74 N          -1.7290  -23.6099  -47.1354 N.am      13 UNK        -0.5000 
     75 CA         -0.9828  -24.6499  -47.8409 C.3       13 UNK         0.1400 
     76 CB          0.3984  -24.8267  -47.1918 C.3       13 UNK        -0.1800 
     77 C          -0.8566  -24.3609  -49.3481 C.2       13 UNK         0.5000 
     78 O          -1.1334  -25.2481  -50.1546 O.2       13 UNK        -0.5000 
     79 N          -0.4735  -23.1260  -49.7034 N.am      14 UNK        -0.5000 
     80 CA         -0.3231  -22.6513  -51.0823 C.3       14 UNK         0.1400 
     81 CB          0.3466  -21.2680  -51.0798 C.3       14 UNK        -0.1800 
     82 C          -1.6581  -22.6057  -51.8452 C.2       14 UNK         0.5000 
     83 O          -1.7074  -22.9749  -53.0195 O.2       14 UNK        -0.5000 
     84 N          -2.7263  -22.1936  -51.1508 N.am      15 UNK        -0.5000 
     85 CA         -4.0944  -22.2084  -51.6569 C.3       15 UNK         0.1400 
     86 CB         -4.9644  -21.2771  -50.8009 C.3       15 UNK        -0.1800 
     87 C          -4.7066  -23.6189  -51.7025 C.2       15 UNK         0.5000 
     88 O          -5.7251  -23.7961  -52.3722 O.2       15 UNK        -0.5000 
     89 N          -4.1073  -24.5763  -50.9801 N.am      16 UNK        -0.5000 
     90 CA         -4.5468  -25.9603  -50.7795 C.3       16 UNK         0.1400 
     91 CB         -4.4055  -26.7688  -52.0846 C.3       16 UNK        -0.1800 
     92 C          -5.9665  -26.0200  -50.1844 C.2       16 UNK         0.5000 
     93 O          -6.8452  -26.6791  -50.7392 O.2       16 UNK        -0.5000 
     94 N          -6.1827  -25.2508  -49.1068 N.am      17 UNK        -0.5000 
     95 CA         -7.4776  -25.0036  -48.4558 C.3       17 UNK         0.1400 
     96 CB         -7.9815  -26.2758  -47.7435 C.3       17 UNK        -0.1800 
     97 C          -8.5246  -24.3931  -49.4188 C.2       17 UNK         0.5000 
     98 O          -9.7097  -24.7195  -49.3414 O.2       17 UNK        -0.5000 
     99 N          -8.0391  -23.5277  -50.3211 N.am      18 UNK        -0.5000 
    100 CA        -8.7462  -22.8363  -51.4050 C.3       18 UNK         0.1400 
    101 CB        -9.9187  -21.9878  -50.8704 C.3       18 UNK        -0.1800 
    102 C         -9.1531  -23.7387  -52.5900 C.2       18 UNK         0.5000 
    103 O         -9.8935  -23.2769  -53.4598 O.2       18 UNK        -0.5000 
    104 N         -8.6520  -24.9823  -52.6464 N.am      19 UNK        -0.5000 
    105 CA        -8.8766  -25.8948  -53.7706 C.3       19 UNK         0.1400 
    106 CB        -8.6258  -27.3432  -53.3260 C.3       19 UNK        -0.1800 
    107 C         -8.0042  -25.5527  -54.9934 C.2       19 UNK         0.5000 
    108 O         -8.4541  -25.7459  -56.1237 O.2       19 UNK        -0.5000 
    109 N         -6.7826  -25.0576  -54.7513 N.am      20 UNK        -0.5000 
    110 CA        -5.8293  -24.6527  -55.7869 C.3       20 UNK         0.1400 
    111 CB        -4.4274  -25.1647  -55.4194 C.3       20 UNK        -0.1800 
    112 C         -5.8019  -23.1269  -55.9636 C.2       20 UNK         0.5000 
    113 O         -5.5719  -22.6533  -57.0770 O.2       20 UNK        -0.5000 
    114 N         -6.0122  -22.3876  -54.8624 N.am      21 UNK        -0.5000 
    115 CA        -6.0624  -20.9216  -54.7692 C.3       21 UNK         0.1400 
    116 CB        -7.3621  -20.3994  -55.4139 C.3       21 UNK        -0.1800 
    117 C         -4.7961  -20.2146  -55.3099 C.2       21 UNK         0.5000 
    118 O         -4.8926  -19.1182  -55.8632 O.2       21 UNK        -0.5000 
    119 N         -3.6381  -20.8738  -55.1561 N.am      22 UNK        -0.5000 
    120 CA        -2.3211  -20.4830  -55.6905 C.3       22 UNK         0.1400 
    121 C         -2.1998  -20.5917  -57.2437 C.2       22 UNK         0.5000 
    122 N         -3.1280  -21.2275  -57.9504 N.am      22 UNK        -0.7600 
    123 O         -1.2257  -20.1207  -57.8249 O.2       22 UNK        -0.5000 
    124 C124       -1.8027  -19.1182  -55.1501 C.3       23 UNK        -0.0398 
    125 S125       -1.6712  -19.0568  -53.3303 S.3       23 UNK        -0.2404 
    126 C126       -0.4950  -17.6775  -53.1491 C.3       23 UNK        -0.0205 
    127 H127        6.2866  -12.6108  -45.0048 H         1 UNK         0.0600 
    128 H128        6.9167  -13.9673  -44.0759 H         1 UNK         0.0600 
    129 H129        5.1914  -13.8442  -44.3587 H         1 UNK         0.0600 
    130 H130        5.5069  -15.2599  -47.7494 H         1 UNK         0.3000 
    131 H131        3.5788  -14.4433  -45.8040 H         1 UNK         0.0600 
    132 H132        1.9838  -14.5941  -47.6975 H         1 UNK         0.0800 
    133 H133        3.3002  -14.7775  -48.8303 H         1 UNK         0.0800 
    134 H134        2.8125  -18.4978  -49.1780 H         1 UNK         0.0800 
    135 H135        3.4117  -17.0155  -49.8810 H         1 UNK         0.0800 
    136 H136        1.8093  -17.9560  -51.7018 H         1 UNK         0.1150 
    137 H137       -2.2449  -16.6107  -51.3627 H         1 UNK         0.1150 
    138 H138        0.3711  -16.3329  -47.9981 H         1 UNK         0.1150 
    139 H139       -1.7904  -15.2219  -47.9425 H         1 UNK         0.0800 
    140 H140       -2.8113  -15.2083  -49.3585 H         1 UNK         0.0800 
    141 H141       -2.5710  -18.1713  -45.9473 H         1 UNK         0.0800 
    142 H142       -1.2716  -17.2248  -46.5984 H         1 UNK         0.0800 
    143 H143       -0.9251  -19.0123  -48.3942 H         1 UNK         0.0600 
    144 H144       -0.0307  -19.0866  -45.7343 H         1 UNK         0.3000 
    145 H145        1.7929  -22.1078  -45.7826 H         1 UNK         0.0600 
    146 H146        3.7013  -20.6258  -45.1504 H         1 UNK         0.0600 
    147 H147        3.4353  -20.6664  -46.8874 H         1 UNK         0.0600 
    148 H148        2.9188  -19.2719  -45.9616 H         1 UNK         0.0600 
    149 H149        1.3582  -19.8087  -44.0151 H         1 UNK         0.3000 
    150 H150       -1.1296  -21.5674  -42.0943 H         1 UNK         0.0600 
    151 H151        1.1634  -22.1530  -41.2840 H         1 UNK         0.0600 
    152 H152        0.4500  -20.8556  -40.3381 H         1 UNK         0.0600 
    153 H153        1.6855  -20.4916  -41.5393 H         1 UNK         0.0600 
    154 H154       -0.2188  -18.9204  -41.7929 H         1 UNK         0.3000 
    155 H155       -3.1169  -17.4452  -43.3791 H         1 UNK         0.0600 
    156 H156       -1.8652  -17.6758  -40.5873 H         1 UNK         0.0600 
    157 H157       -3.4856  -18.2028  -41.0301 H         1 UNK         0.0600 
    158 H158       -3.0700  -16.4969  -41.0959 H         1 UNK         0.0600 
    159 H159       -0.2905  -16.9232  -42.5381 H         1 UNK         0.3000 
    160 H160        0.3385  -15.2728  -45.4419 H         1 UNK         0.0600 
    161 H161       -0.0089  -13.4917  -42.9756 H         1 UNK         0.0600 
    162 H162       -0.6173  -13.1615  -44.5908 H         1 UNK         0.0600 
    163 H163        1.1143  -13.1835  -44.3008 H         1 UNK         0.0600 
    164 H164        1.8057  -15.2377  -42.9807 H         1 UNK         0.3000 
    165 H165        2.8940  -18.6328  -43.0427 H         1 UNK         0.0600 
    166 H166        5.1552  -17.6485  -43.2683 H         1 UNK         0.0600 
    167 H167        4.3370  -17.5992  -44.8201 H         1 UNK         0.0600 
    168 H168        4.4721  -16.1343  -43.8586 H         1 UNK         0.0600 
    169 H169        3.8207  -16.4873  -41.4863 H         1 UNK         0.3000 
    170 H170        1.1824  -15.8942  -39.2930 H         1 UNK         0.0600 
    171 H171        1.9921  -18.0445  -38.2948 H         1 UNK         0.0600 
    172 H172        3.6573  -17.5699  -38.6088 H         1 UNK         0.0600 
    173 H173        2.6724  -16.6536  -37.4671 H         1 UNK         0.0600 
    174 H174        3.8244  -15.0817  -38.9930 H         1 UNK         0.3000 
    175 H175        4.0486  -12.6368  -39.4452 H         1 UNK         0.0600 
    176 H176        5.3616  -13.9421  -41.9120 H         1 UNK         0.0600 
    177 H177        6.1283  -12.7121  -40.9107 H         1 UNK         0.0600 
    178 H178        5.7567  -14.2864  -40.2334 H         1 UNK         0.0600 
    179 H179        2.8803  -12.2069  -42.0341 H         1 UNK         0.3000 
    180 H180        2.1938   -9.7622  -42.1590 H         1 UNK         0.0600 
    181 H181        3.4545   -7.8541  -41.1383 H         1 UNK         0.0600 
    182 H182        3.1902   -7.5859  -42.8522 H         1 UNK         0.0600 
    183 H183        4.7746   -8.1013  -42.2775 H         1 UNK         0.0600 
    184 H184        4.5108  -10.6632  -43.6994 H         1 UNK         0.3000 
    185 H185        2.8389  -10.1960  -46.8587 H         1 UNK         0.0600 
    186 H186        4.8305   -8.7308  -46.2286 H         1 UNK         0.0600 
    187 H187        5.6551  -10.1627  -45.6245 H         1 UNK         0.0600 
    188 H188        5.2454  -10.0272  -47.3302 H         1 UNK         0.0600 
    189 H189        3.3977  -12.3515  -45.1159 H         1 UNK         0.3000 
    190 H190       -2.4539  -20.6906  -45.5818 H         1 UNK         0.3000 
    191 H191       -4.5529  -21.9061  -47.0108 H         1 UNK         0.0600 
    192 H192       -3.0947  -22.8377  -44.4807 H         1 UNK         0.0600 
    193 H193       -4.6549  -23.4407  -45.0313 H         1 UNK         0.0600 
    194 H194       -4.4879  -21.7607  -44.5436 H         1 UNK         0.0600 
    195 H195       -1.1982  -22.9879  -46.5414 H         1 UNK         0.3000 
    196 H196       -1.5276  -25.5897  -47.7267 H         1 UNK         0.0600 
    197 H197        0.9460  -25.6446  -47.6615 H         1 UNK         0.0600 
    198 H198        0.3087  -25.0612  -46.1309 H         1 UNK         0.0600 
    199 H199        1.0097  -23.9294  -47.2849 H         1 UNK         0.0600 
    200 H200       -0.2304  -22.4570  -48.9743 H         1 UNK         0.3000 
    201 H201        0.3351  -23.3478  -51.6054 H         1 UNK         0.0600 
    202 H202        1.3216  -21.3006  -50.5936 H         1 UNK         0.0600 
    203 H203       -0.2614  -20.5269  -50.5583 H         1 UNK         0.0600 
    204 H204        0.5030  -20.9068  -52.0968 H         1 UNK         0.0600 
    205 H205       -2.5958  -21.8276  -50.2090 H         1 UNK         0.3000 
    206 H206       -4.0837  -21.8194  -52.6730 H         1 UNK         0.0600 
    207 H207       -4.5484  -20.2695  -50.7719 H         1 UNK         0.0600 
    208 H208       -5.9729  -21.1947  -51.2039 H         1 UNK         0.0600 
    209 H209       -5.0464  -21.6345  -49.7735 H         1 UNK         0.0600 
    210 H210       -3.2773  -24.3167  -50.4640 H         1 UNK         0.3000 
    211 H211       -3.8754  -26.3971  -50.0389 H         1 UNK         0.0600 
    212 H212       -5.1075  -26.4341  -52.8472 H         1 UNK         0.0600 
    213 H213       -4.5990  -27.8273  -51.9084 H         1 UNK         0.0600 
    214 H214       -3.3986  -26.6844  -52.4936 H         1 UNK         0.0600 
    215 H215       -5.3825  -24.7585  -48.7129 H         1 UNK         0.3000 
    216 H216       -7.2942  -24.2487  -47.6899 H         1 UNK         0.0600 
    217 H217       -8.8698  -26.0644  -47.1474 H         1 UNK         0.0600 
    218 H218       -7.2252  -26.6736  -47.0669 H         1 UNK         0.0600 
    219 H219       -8.2437  -27.0613  -48.4529 H         1 UNK         0.0600 
    220 H220       -7.0392  -23.3906  -50.3191 H         1 UNK         0.3000 
    221 H221       -8.0210  -22.1391  -51.8244 H         1 UNK         0.0600 
    222 H222      -10.7458  -22.6077  -50.5243 H         1 UNK         0.0600 
    223 H223       -9.6023  -21.3537  -50.0423 H         1 UNK         0.0600 
    224 H224      -10.3112  -21.3307  -51.6473 H         1 UNK         0.0600 
    225 H225       -8.0453  -25.3121  -51.9045 H         1 UNK         0.3000 
    226 H226       -9.9231  -25.8191  -54.0737 H         1 UNK         0.0600 
    227 H227       -9.2016  -27.5907  -52.4340 H         1 UNK         0.0600 
    228 H228       -8.9181  -28.0443  -54.1086 H         1 UNK         0.0600 
    229 H229       -7.5726  -27.5225  -53.1082 H         1 UNK         0.0600 
    230 H230       -6.5074  -24.8862  -53.7895 H         1 UNK         0.3000 
    231 H231       -6.1032  -25.0925  -56.7481 H         1 UNK         0.0600 
    232 H232       -4.4181  -26.2505  -55.3240 H         1 UNK         0.0600 
    233 H233       -4.0708  -24.7424  -54.4796 H         1 UNK         0.0600 
    234 H234       -3.7021  -24.9013  -56.1904 H         1 UNK         0.0600 
    235 H235       -6.1400  -22.8873  -53.9882 H         1 UNK         0.3000 
    236 H236       -6.1084  -20.6824  -53.7063 H         1 UNK         0.0600 
    237 H237       -7.3691  -20.5599  -56.4925 H         1 UNK         0.0600 
    238 H238       -8.2365  -20.8986  -54.9953 H         1 UNK         0.0600 
    239 H239       -7.4866  -19.3301  -55.2397 H         1 UNK         0.0600 
    240 H240       -3.6596  -21.7780  -54.7095 H         1 UNK         0.3000 
    241 H241       -1.6348  -21.2454  -55.3205 H         1 UNK         0.0600 
    242 H242       -3.0210  -21.2943  -58.9500 H         1 UNK         0.3800 
    243 H243       -3.9483  -21.6341  -57.5120 H         1 UNK         0.3800 
    244 H244       -2.4388  -18.2982  -55.4846 H         1 UNK         0.0800 
    245 H245       -0.8112  -18.9120  -55.5563 H         1 UNK         0.0800 
    246 H246       -0.8860  -16.8008  -53.6676 H         1 UNK         0.0800 
    247 H247        0.4411  -17.9390  -53.6448 H         1 UNK         0.0800 
@<TRIPOS>BOND
     1    1    2 1    
     2    1  127 1    
     3    1  128 1    
     4    1  129 1    
     5    2    3 2    
     6    2    4 am   BACKBONE|DICT|INTERRES
     7    4    5 1    
     8    4  130 1    
     9    5    6 1    
    10    5   65 1    
    11    5  131 1    
    12    6    7 1    
    13    6  132 1    
    14    6  133 1    
    15    7    8 1    
    16    8    9 1    
    17    8  134 1    
    18    8  135 1    
    19    9   10 ar   
    20    9   14 ar   
    21   10   11 ar   
    22   10  136 1    
    23   11   12 ar   
    24   11  126 1    
    25   12   13 ar   
    26   12  137 1    
    27   13   14 ar   
    28   13   15 1    
    29   14  138 1    
    30   15   16 1    
    31   15  139 1    
    32   15  140 1    
    33   16   17 1    
    34   17   18 1    
    35   17  141 1    
    36   17  142 1    
    37   18   19 1    
    38   18   67 1    
    39   18  143 1    
    40   19   20 am   BACKBONE|DICT|INTERRES
    41   19  144 1    
    42   20   21 2    
    43   20   22 1    
    44   22   23 1    
    45   22   24 1    
    46   22  145 1    
    47   23  146 1    
    48   23  147 1    
    49   23  148 1    
    50   24   25 am   BACKBONE|DICT|INTERRES
    51   24  149 1    
    52   25   26 2    
    53   25   27 1    
    54   27   28 1    
    55   27   29 1    
    56   27  150 1    
    57   28  151 1    
    58   28  152 1    
    59   28  153 1    
    60   29   30 am   BACKBONE|DICT|INTERRES
    61   29  154 1    
    62   30   31 2    
    63   30   32 1    
    64   32   33 1    
    65   32   34 1    
    66   32  155 1    
    67   33  156 1    
    68   33  157 1    
    69   33  158 1    
    70   34   35 am   BACKBONE|DICT|INTERRES
    71   34  159 1    
    72   35   36 2    
    73   35   37 1    
    74   37   38 1    
    75   37   39 1    
    76   37  160 1    
    77   38  161 1    
    78   38  162 1    
    79   38  163 1    
    80   39   40 am   BACKBONE|DICT|INTERRES
    81   39  164 1    
    82   40   41 2    
    83   40   42 1    
    84   42   43 1    
    85   42   44 1    
    86   42  165 1    
    87   43  166 1    
    88   43  167 1    
    89   43  168 1    
    90   44   45 am   BACKBONE|DICT|INTERRES
    91   44  169 1    
    92   45   46 2    
    93   45   47 1    
    94   47   48 1    
    95   47   49 1    
    96   47  170 1    
    97   48  171 1    
    98   48  172 1    
    99   48  173 1    
   100   49   50 am   BACKBONE|DICT|INTERRES
   101   49  174 1    
   102   50   51 2    
   103   50   52 1    
   104   52   53 1    
   105   52   54 1    
   106   52  175 1    
   107   53  176 1    
   108   53  177 1    
   109   53  178 1    
   110   54   55 am   BACKBONE|DICT|INTERRES
   111   54  179 1    
   112   55   56 2    
   113   55   57 1    
   114   57   58 1    
   115   57   59 1    
   116   57  180 1    
   117   58  181 1    
   118   58  182 1    
   119   58  183 1    
   120   59   60 am   BACKBONE|DICT|INTERRES
   121   59  184 1    
   122   60   61 2    
   123   60   62 1    
   124   62   63 1    
   125   62   64 1    
   126   62  185 1    
   127   63  186 1    
   128   63  187 1    
   129   63  188 1    
   130   64   65 am   BACKBONE|DICT|INTERRES
   131   64  189 1    
   132   65   66 2    
   133   67   68 2    
   134   67   69 am   BACKBONE|DICT|INTERRES
   135   69   70 1    
   136   69  190 1    
   137   70   71 1    
   138   70   72 1    
   139   70  191 1    
   140   71  192 1    
   141   71  193 1    
   142   71  194 1    
   143   72   73 2    
   144   72   74 am   BACKBONE|DICT|INTERRES
   145   74   75 1    
   146   74  195 1    
   147   75   76 1    
   148   75   77 1    
   149   75  196 1    
   150   76  197 1    
   151   76  198 1    
   152   76  199 1    
   153   77   78 2    
   154   77   79 am   BACKBONE|DICT|INTERRES
   155   79   80 1    
   156   79  200 1    
   157   80   81 1    
   158   80   82 1    
   159   80  201 1    
   160   81  202 1    
   161   81  203 1    
   162   81  204 1    
   163   82   83 2    
   164   82   84 am   BACKBONE|DICT|INTERRES
   165   84   85 1    
   166   84  205 1    
   167   85   86 1    
   168   85   87 1    
   169   85  206 1    
   170   86  207 1    
   171   86  208 1    
   172   86  209 1    
   173   87   88 2    
   174   87   89 am   BACKBONE|DICT|INTERRES
   175   89   90 1    
   176   89  210 1    
   177   90   91 1    
   178   90   92 1    
   179   90  211 1    
   180   91  212 1    
   181   91  213 1    
   182   91  214 1    
   183   92   93 2    
   184   92   94 am   BACKBONE|DICT|INTERRES
   185   94   95 1    
   186   94  215 1    
   187   95   96 1    
   188   95   97 1    
   189   95  216 1    
   190   96  217 1    
   191   96  218 1    
   192   96  219 1    
   193   97   98 2    
   194   97   99 am   BACKBONE|DICT|INTERRES
   195   99  100 1    
   196   99  220 1    
   197  100  101 1    
   198  100  102 1    
   199  100  221 1    
   200  101  222 1    
   201  101  223 1    
   202  101  224 1    
   203  102  103 2    
   204  102  104 am   BACKBONE|DICT|INTERRES
   205  104  105 1    
   206  104  225 1    
   207  105  106 1    
   208  105  107 1    
   209  105  226 1    
   210  106  227 1    
   211  106  228 1    
   212  106  229 1    
   213  107  108 2    
   214  107  109 am   BACKBONE|DICT|INTERRES
   215  109  110 1    
   216  109  230 1    
   217  110  111 1    
   218  110  112 1    
   219  110  231 1    
   220  111  232 1    
   221  111  233 1    
   222  111  234 1    
   223  112  113 2    
   224  112  114 am   BACKBONE|DICT|INTERRES
   225  114  115 1    
   226  114  235 1    
   227  115  116 1    
   228  115  117 1    
   229  115  236 1    
   230  116  237 1    
   231  116  238 1    
   232  116  239 1    
   233  117  118 2    
   234  117  119 am   BACKBONE|DICT|INTERRES
   235  119  120 1    
   236  119  240 1    
   237  120  121 1    
   238  120  124 1    
   239  120  241 1    
   240  121  122 am   BACKBONE|DICT|INTERRES
   241  121  123 2    
   242  122  242 1    
   243  122  243 1    
   244  124  125 1    
   245  124  244 1    
   246  124  245 1    
   247  125  126 1    
   248  126  246 1    
   249  126  247 1    
@<TRIPOS>SUBSTRUCTURE
     1 UNK         1 GROUP             0       ****    0 ROOT    
