@<TRIPOS>MOLECULE
3R540
247   249    1
SMALL
USER_CHARGES


@<TRIPOS>ATOM
      1 CA          7.2551  -16.6729  -47.0060 C.3       0 UNK        -0.1800 
      2 C           6.7324  -16.2406  -48.3749 C.2       0 UNK         0.5000 
      3 O           7.4886  -16.2723  -49.3438 O.2       0 UNK        -0.5000 
      4 N           5.4608  -15.8442  -48.5183 N.am      1 UNK        -0.5000 
      5 CA          4.4562  -15.6584  -47.4659 C.3       1 UNK         0.1400 
      6 C6          3.0131  -15.6857  -48.0343 C.3       23 UNK        -0.0398 
      7 S7          2.6471  -17.2515  -48.9041 S.3       23 UNK        -0.2404 
      8 C8          2.4798  -16.7050  -50.6388 C.3       23 UNK        -0.0205 
      9 C9          1.0526  -16.3650  -51.0700 C.ar      23 UNK        -0.0193 
     10 C10         0.6943  -16.5378  -52.4114 C.ar      23 UNK        -0.1150 
     11 C11        -0.5981  -16.2454  -52.8591 C.ar      23 UNK        -0.0193 
     12 C12        -1.5405  -15.7661  -51.9427 C.ar      23 UNK        -0.1150 
     13 C13        -1.2056  -15.6018  -50.5967 C.ar      23 UNK        -0.0193 
     14 C14         0.0944  -15.8819  -50.1708 C.ar      23 UNK        -0.1150 
     15 C15        -2.2571  -15.1378  -49.6027 C.3       23 UNK        -0.0205 
     16 S16        -3.1656  -16.5491  -48.8937 S.3       23 UNK        -0.2404 
     17 C17        -1.9964  -17.1718  -47.6341 C.3       23 UNK        -0.0398 
     18 CA         -1.3444  -18.5378  -47.9705 C.3       11 UNK         0.1400 
     19 N          -0.2606  -18.8573  -47.0368 N.am      11 UNK        -0.5000 
     20 C           0.5518  -19.9216  -47.1120 C.2       10 UNK         0.5000 
     21 O           0.5245  -20.7407  -48.0290 O.2       10 UNK        -0.5000 
     22 CA          1.5129  -20.1529  -45.9304 C.3       10 UNK         0.1400 
     23 CB          2.7875  -19.3093  -46.0649 C.3       10 UNK        -0.1800 
     24 N           0.8864  -19.8946  -44.6338 N.am      10 UNK        -0.5000 
     25 C          -0.1293  -20.6117  -44.1321 C.2       9 UNK         0.5000 
     26 O          -0.6246  -21.5842  -44.7010 O.2       9 UNK        -0.5000 
     27 CA         -0.7200  -20.1410  -42.7911 C.3       9 UNK         0.1400 
     28 CB          0.1832  -20.5558  -41.6205 C.3       9 UNK        -0.1800 
     29 N          -0.9484  -18.6963  -42.7526 N.am      9 UNK        -0.5000 
     30 C          -1.7976  -18.0416  -43.5579 C.2       8 UNK         0.5000 
     31 O          -2.5128  -18.5938  -44.3944 O.2       8 UNK        -0.5000 
     32 CA         -1.8091  -16.5061  -43.4504 C.3       8 UNK         0.1400 
     33 CB         -2.6233  -16.0418  -42.2338 C.3       8 UNK        -0.1800 
     34 N          -0.4622  -15.9408  -43.3836 N.am      8 UNK        -0.5000 
     35 C           0.4650  -16.0581  -44.3446 C.2       7 UNK         0.5000 
     36 O           0.2798  -16.6230  -45.4191 O.2       7 UNK        -0.5000 
     37 CA          1.8519  -15.4872  -44.0280 C.3       7 UNK         0.1400 
     38 CB          1.8495  -13.9584  -44.2031 C.3       7 UNK        -0.1800 
     39 N           2.2728  -15.8635  -42.6780 N.am      7 UNK        -0.5000 
     40 C           2.5847  -17.1173  -42.3116 C.2       6 UNK         0.5000 
     41 O           2.5989  -18.0686  -43.0916 O.2       6 UNK        -0.5000 
     42 CA          2.8679  -17.3737  -40.8200 C.3       6 UNK         0.1400 
     43 CB          4.3643  -17.2521  -40.5077 C.3       6 UNK        -0.1800 
     44 N           2.1066  -16.4802  -39.9493 N.am      6 UNK        -0.5000 
     45 C           0.7826  -16.5789  -39.7622 C.2       5 UNK         0.5000 
     46 O           0.0894  -17.4674  -40.2580 O.2       5 UNK        -0.5000 
     47 CA          0.1103  -15.4680  -38.9342 C.3       5 UNK         0.1400 
     48 CB          0.1122  -15.8295  -37.4419 C.3       5 UNK        -0.1800 
     49 N           0.7366  -14.1568  -39.1157 N.am      5 UNK        -0.5000 
     50 C           0.8220  -13.5036  -40.2825 C.2       4 UNK         0.5000 
     51 O           0.3426  -13.9327  -41.3316 O.2       4 UNK        -0.5000 
     52 CA          1.5812  -12.1620  -40.2923 C.3       4 UNK         0.1400 
     53 CB          1.5610  -11.4444  -38.9247 C.3       4 UNK        -0.1800 
     54 N           2.9636  -12.2664  -40.7812 N.am      4 UNK        -0.5000 
     55 C           3.9435  -13.0581  -40.3171 C.2       3 UNK         0.5000 
     56 O           3.7669  -13.9775  -39.5152 O.2       3 UNK        -0.5000 
     57 CA          5.3640  -12.7130  -40.8137 C.3       3 UNK         0.1400 
     58 CB          6.4727  -13.5976  -40.2030 C.3       3 UNK        -0.1800 
     59 N           5.4670  -12.6396  -42.2763 N.am      3 UNK        -0.5000 
     60 C           5.4061  -13.6545  -43.1490 C.2       2 UNK         0.5000 
     61 O           5.2553  -14.8372  -42.8382 O.2       2 UNK        -0.5000 
     62 CA          5.5447  -13.2768  -44.6317 C.3       2 UNK         0.1400 
     63 CB          6.9981  -12.8919  -44.9692 C.3       2 UNK        -0.1800 
     64 N           5.1284  -14.4078  -45.4580 N.am      2 UNK        -0.5000 
     65 C           4.7483  -14.3309  -46.7380 C.2       1 UNK         0.5000 
     66 O           4.6572  -13.2707  -47.3600 O.2       1 UNK        -0.5000 
     67 C          -2.3825  -19.6778  -48.0275 C.2       11 UNK         0.5000 
     68 O          -2.7006  -20.1491  -49.1179 O.2       11 UNK        -0.5000 
     69 N          -2.8478  -20.1392  -46.8565 N.am      12 UNK        -0.5000 
     70 CA         -3.7881  -21.2530  -46.7189 C.3       12 UNK         0.1400 
     71 CB         -4.2204  -21.3849  -45.2513 C.3       12 UNK        -0.1800 
     72 C          -3.2293  -22.5870  -47.2484 C.2       12 UNK         0.5000 
     73 O          -3.9479  -23.3134  -47.9376 O.2       12 UNK        -0.5000 
     74 N          -1.9535  -22.8687  -46.9488 N.am      13 UNK        -0.5000 
     75 CA         -1.2267  -24.0437  -47.4309 C.3       13 UNK         0.1400 
     76 CB          0.1266  -24.1468  -46.7116 C.3       13 UNK        -0.1800 
     77 C          -1.0372  -24.0421  -48.9588 C.2       13 UNK         0.5000 
     78 O          -1.2227  -25.0828  -49.5900 O.2       13 UNK        -0.5000 
     79 N          -0.7026  -22.8743  -49.5261 N.am      14 UNK        -0.5000 
     80 CA         -0.5882  -22.6539  -50.9681 C.3       14 UNK         0.1400 
     81 CB          0.0645  -21.2873  -51.2309 C.3       14 UNK        -0.1800 
     82 C          -1.9447  -22.7531  -51.6878 C.2       14 UNK         0.5000 
     83 O          -2.0079  -23.2980  -52.7889 O.2       14 UNK        -0.5000 
     84 N          -3.0006  -22.2259  -51.0540 N.am      15 UNK        -0.5000 
     85 CA         -4.3738  -22.2550  -51.5491 C.3       15 UNK         0.1400 
     86 CB         -5.2334  -21.2829  -50.7274 C.3       15 UNK        -0.1800 
     87 C          -4.9959  -23.6557  -51.5534 C.2       15 UNK         0.5000 
     88 O          -5.7610  -23.9614  -52.4684 O.2       15 UNK        -0.5000 
     89 N          -4.6804  -24.4613  -50.5286 N.am      16 UNK        -0.5000 
     90 CA         -5.1879  -25.8165  -50.2909 C.3       16 UNK         0.1400 
     91 CB         -4.6579  -26.7885  -51.3663 C.3       16 UNK        -0.1800 
     92 C          -6.7256  -25.8263  -50.1691 C.2       16 UNK         0.5000 
     93 O          -7.4050  -26.5487  -50.8985 O.2       16 UNK        -0.5000 
     94 N          -7.2444  -24.9532  -49.2910 N.am      17 UNK        -0.5000 
     95 CA         -8.6702  -24.6444  -49.1008 C.3       17 UNK         0.1400 
     96 CB         -9.4352  -25.8631  -48.5428 C.3       17 UNK        -0.1800 
     97 C          -9.3201  -24.0463  -50.3703 C.2       17 UNK         0.5000 
     98 O         -10.4762  -24.3380  -50.6788 O.2       17 UNK        -0.5000 
     99 N          -8.5339  -23.2269  -51.0840 N.am      18 UNK        -0.5000 
    100 CA        -8.8269  -22.5342  -52.3450 C.3       18 UNK         0.1400 
    101 CB       -10.0465  -21.6005  -52.2050 C.3       18 UNK        -0.1800 
    102 C         -8.9291  -23.4514  -53.5818 C.2       18 UNK         0.5000 
    103 O         -9.2500  -22.9564  -54.6632 O.2       18 UNK        -0.5000 
    104 N         -8.6122  -24.7469  -53.4407 N.am      19 UNK        -0.5000 
    105 CA        -8.6106  -25.7233  -54.5332 C.3       19 UNK         0.1400 
    106 CB        -8.4945  -27.1392  -53.9505 C.3       19 UNK        -0.1800 
    107 C         -7.4953  -25.4790  -55.5685 C.2       19 UNK         0.5000 
    108 O         -7.6768  -25.8143  -56.7396 O.2       19 UNK        -0.5000 
    109 N         -6.3760  -24.8925  -55.1256 N.am      20 UNK        -0.5000 
    110 CA        -5.2150  -24.5513  -55.9490 C.3       20 UNK         0.1400 
    111 CB        -3.9575  -25.1190  -55.2689 C.3       20 UNK        -0.1800 
    112 C         -5.0916  -23.0304  -56.1736 C.2       20 UNK         0.5000 
    113 O         -4.0484  -22.5802  -56.6537 O.2       20 UNK        -0.5000 
    114 N         -6.1383  -22.2664  -55.8154 N.am      21 UNK        -0.5000 
    115 CA        -6.2289  -20.8005  -55.7855 C.3       21 UNK         0.1400 
    116 CB        -6.1055  -20.1882  -57.1970 C.3       21 UNK        -0.1800 
    117 C         -5.2322  -20.2072  -54.7729 C.2       21 UNK         0.5000 
    118 O         -5.6184  -19.9433  -53.6357 O.2       21 UNK        -0.5000 
    119 N         -3.9691  -20.0847  -55.1875 N.am      22 UNK        -0.5000 
    120 CA        -2.7784  -19.9237  -54.3433 C.3       22 UNK         0.1400 
    121 C         -1.4747  -20.3599  -55.0734 C.2       22 UNK         0.5000 
    122 N         -1.5441  -21.2334  -56.0736 N.am      22 UNK        -0.7600 
    123 O         -0.3812  -19.9211  -54.7307 O.2       22 UNK        -0.5000 
    124 C124       -2.6939  -18.5751  -53.5814 C.3       23 UNK        -0.0398 
    125 S125       -2.6391  -17.0877  -54.6410 S.3       23 UNK        -0.2404 
    126 C126       -0.9480  -16.4614  -54.3327 C.3       23 UNK        -0.0205 
    127 H127        8.2232  -17.1634  -47.1097 H         1 UNK         0.0600 
    128 H128        6.5834  -17.3827  -46.5244 H         1 UNK         0.0600 
    129 H129        7.3918  -15.8107  -46.3545 H         1 UNK         0.0600 
    130 H130        5.1583  -15.5598  -49.4379 H         1 UNK         0.3000 
    131 H131        4.5312  -16.4779  -46.7495 H         1 UNK         0.0600 
    132 H132        2.2859  -15.5813  -47.2277 H         1 UNK         0.0800 
    133 H133        2.8392  -14.8430  -48.7059 H         1 UNK         0.0800 
    134 H134        2.8564  -17.5155  -51.2646 H         1 UNK         0.0800 
    135 H135        3.1279  -15.8494  -50.8304 H         1 UNK         0.0800 
    136 H136        1.4279  -16.9089  -53.1136 H         1 UNK         0.1150 
    137 H137       -2.5454  -15.5403  -52.2700 H         1 UNK         0.1150 
    138 H138        0.3475  -15.7380  -49.1314 H         1 UNK         0.1150 
    139 H139       -1.8042  -14.5411  -48.8095 H         1 UNK         0.0800 
    140 H140       -2.9696  -14.4805  -50.1033 H         1 UNK         0.0800 
    141 H141       -2.5247  -17.2234  -46.6820 H         1 UNK         0.0800 
    142 H142       -1.2186  -16.4229  -47.4922 H         1 UNK         0.0800 
    143 H143       -0.8897  -18.4588  -48.9604 H         1 UNK         0.0600 
    144 H144       -0.1224  -18.1978  -46.2746 H         1 UNK         0.3000 
    145 H145        1.8082  -21.2038  -45.9501 H         1 UNK         0.0600 
    146 H146        3.5010  -19.5451  -45.2754 H         1 UNK         0.0600 
    147 H147        3.2839  -19.5019  -47.0164 H         1 UNK         0.0600 
    148 H148        2.5698  -18.2425  -46.0103 H         1 UNK         0.0600 
    149 H149        1.2714  -19.1278  -44.0906 H         1 UNK         0.3000 
    150 H150       -1.6866  -20.6326  -42.6638 H         1 UNK         0.0600 
    151 H151        0.3383  -21.6353  -41.6112 H         1 UNK         0.0600 
    152 H152       -0.2612  -20.2824  -40.6633 H         1 UNK         0.0600 
    153 H153        1.1638  -20.0838  -41.6814 H         1 UNK         0.0600 
    154 H154       -0.4333  -18.1717  -42.0526 H         1 UNK         0.3000 
    155 H155       -2.2880  -16.1131  -44.3494 H         1 UNK         0.0600 
    156 H156       -2.1921  -16.3975  -41.2981 H         1 UNK         0.0600 
    157 H157       -3.6471  -16.4143  -42.2856 H         1 UNK         0.0600 
    158 H158       -2.6740  -14.9539  -42.1856 H         1 UNK         0.0600 
    159 H159       -0.2208  -15.4182  -42.5472 H         1 UNK         0.3000 
    160 H160        2.5722  -15.9125  -44.7292 H         1 UNK         0.0600 
    161 H161        2.7174  -13.4925  -43.7458 H         1 UNK         0.0600 
    162 H162        0.9671  -13.4907  -43.7671 H         1 UNK         0.0600 
    163 H163        1.8557  -13.6955  -45.2613 H         1 UNK         0.0600 
    164 H164        2.2253  -15.1469  -41.9685 H         1 UNK         0.3000 
    165 H165        2.5685  -18.4005  -40.6008 H         1 UNK         0.0600 
    166 H166        4.5753  -17.5209  -39.4728 H         1 UNK         0.0600 
    167 H167        4.9527  -17.9130  -41.1454 H         1 UNK         0.0600 
    168 H168        4.7221  -16.2375  -40.6692 H         1 UNK         0.0600 
    169 H169        2.6067  -15.6901  -39.5535 H         1 UNK         0.3000 
    170 H170       -0.9267  -15.3905  -39.2671 H         1 UNK         0.0600 
    171 H171       -0.3672  -16.7948  -37.2737 H         1 UNK         0.0600 
    172 H172        1.1261  -15.8923  -37.0443 H         1 UNK         0.0600 
    173 H173       -0.4339  -15.0901  -36.8559 H         1 UNK         0.0600 
    174 H174        1.1887  -13.7541  -38.3079 H         1 UNK         0.3000 
    175 H175        1.0511  -11.5243  -41.0013 H         1 UNK         0.0600 
    176 H176        2.1524  -11.9677  -38.1725 H         1 UNK         0.0600 
    177 H177        1.9631  -10.4350  -39.0114 H         1 UNK         0.0600 
    178 H178        0.5433  -11.3510  -38.5432 H         1 UNK         0.0600 
    179 H179        3.2170  -11.5801  -41.4775 H         1 UNK         0.3000 
    180 H180        5.5522  -11.6994  -40.4562 H         1 UNK         0.0600 
    181 H181        6.3763  -14.6436  -40.4893 H         1 UNK         0.0600 
    182 H182        6.4459  -13.5573  -39.1135 H         1 UNK         0.0600 
    183 H183        7.4604  -13.2579  -40.5143 H         1 UNK         0.0600 
    184 H184        5.5985  -11.7083  -42.6465 H         1 UNK         0.3000 
    185 H185        4.8855  -12.4284  -44.8271 H         1 UNK         0.0600 
    186 H186        7.3331  -12.0445  -44.3701 H         1 UNK         0.0600 
    187 H187        7.6843  -13.7185  -44.7807 H         1 UNK         0.0600 
    188 H188        7.1018  -12.6046  -46.0155 H         1 UNK         0.0600 
    189 H189        5.1468  -15.2933  -44.9661 H         1 UNK         0.3000 
    190 H190       -2.5523  -19.6874  -45.9952 H         1 UNK         0.3000 
    191 H191       -4.6734  -21.0097  -47.3095 H         1 UNK         0.0600 
    192 H192       -3.3724  -21.5904  -44.5975 H         1 UNK         0.0600 
    193 H193       -4.9375  -22.1971  -45.1260 H         1 UNK         0.0600 
    194 H194       -4.6985  -20.4709  -44.8985 H         1 UNK         0.0600 
    195 H195       -1.4468  -22.2423  -46.3292 H         1 UNK         0.3000 
    196 H196       -1.8149  -24.9263  -47.1714 H         1 UNK         0.0600 
    197 H197        0.6754  -25.0315  -47.0366 H         1 UNK         0.0600 
    198 H198       -0.0058  -24.2238  -45.6323 H         1 UNK         0.0600 
    199 H199        0.7552  -23.2787  -46.9100 H         1 UNK         0.0600 
    200 H200       -0.5081  -22.0739  -48.9294 H         1 UNK         0.3000 
    201 H201        0.0648  -23.4274  -51.3774 H         1 UNK         0.0600 
    202 H202        1.0536  -21.2283  -50.7766 H         1 UNK         0.0600 
    203 H203       -0.5347  -20.4682  -50.8314 H         1 UNK         0.0600 
    204 H204        0.1879  -21.1128  -52.3000 H         1 UNK         0.0600 
    205 H205       -2.8437  -21.7136  -50.1896 H         1 UNK         0.3000 
    206 H206       -4.3687  -21.9254  -52.5848 H         1 UNK         0.0600 
    207 H207       -4.8456  -20.2663  -50.7963 H         1 UNK         0.0600 
    208 H208       -6.2586  -21.2538  -51.0930 H         1 UNK         0.0600 
    209 H209       -5.2648  -21.5599  -49.6739 H         1 UNK         0.0600 
    210 H210       -4.1001  -24.0784  -49.7883 H         1 UNK         0.3000 
    211 H211       -4.7915  -26.1360  -49.3260 H         1 UNK         0.0600 
    212 H212       -4.9487  -27.8149  -51.1405 H         1 UNK         0.0600 
    213 H213       -3.5692  -26.7613  -51.4159 H         1 UNK         0.0600 
    214 H214       -5.0430  -26.5513  -52.3587 H         1 UNK         0.0600 
    215 H215       -6.5984  -24.4004  -48.7432 H         1 UNK         0.3000 
    216 H216       -8.7133  -23.8596  -48.3442 H         1 UNK         0.0600 
    217 H217      -10.4531  -25.5893  -48.2629 H         1 UNK         0.0600 
    218 H218       -8.9499  -26.2584  -47.6505 H         1 UNK         0.0600 
    219 H219       -9.5053  -26.6703  -49.2724 H         1 UNK         0.0600 
    220 H220       -7.5889  -23.1111  -50.7508 H         1 UNK         0.3000 
    221 H221       -7.9619  -21.8994  -52.5393 H         1 UNK         0.0600 
    222 H222      -10.9768  -22.1585  -52.0983 H         1 UNK         0.0600 
    223 H223       -9.9448  -20.9452  -51.3400 H         1 UNK         0.0600 
    224 H224      -10.1520  -20.9613  -53.0824 H         1 UNK         0.0600 
    225 H225       -8.3114  -25.0808  -52.5340 H         1 UNK         0.3000 
    226 H226       -9.5683  -25.6474  -55.0523 H         1 UNK         0.0600 
    227 H227       -9.2760  -27.3315  -53.2151 H         1 UNK         0.0600 
    228 H228       -8.5906  -27.8919  -54.7339 H         1 UNK         0.0600 
    229 H229       -7.5303  -27.2948  -53.4652 H         1 UNK         0.0600 
    230 H230       -6.3064  -24.6411  -54.1409 H         1 UNK         0.3000 
    231 H231       -5.2975  -25.0088  -56.9365 H         1 UNK         0.0600 
    232 H232       -4.0386  -26.1968  -55.1281 H         1 UNK         0.0600 
    233 H233       -3.7927  -24.6674  -54.2907 H         1 UNK         0.0600 
    234 H234       -3.0648  -24.9373  -55.8685 H         1 UNK         0.0600 
    235 H235       -6.9455  -22.7497  -55.4451 H         1 UNK         0.3000 
    236 H236       -7.2285  -20.5649  -55.4161 H         1 UNK         0.0600 
    237 H237       -5.1554  -20.4194  -57.6780 H         1 UNK         0.0600 
    238 H238       -6.9001  -20.5527  -57.8478 H         1 UNK         0.0600 
    239 H239       -6.1941  -19.1019  -57.1561 H         1 UNK         0.0600 
    240 H240       -3.7669  -20.3421  -56.1439 H         1 UNK         0.3000 
    241 H241       -2.8641  -20.6798  -53.5675 H         1 UNK         0.0600 
    242 H242       -2.4110  -21.7083  -56.3126 H         1 UNK         0.3800 
    243 H243       -0.6918  -21.5082  -56.5351 H         1 UNK         0.3800 
    244 H244       -1.8363  -18.5946  -52.9083 H         1 UNK         0.0800 
    245 H245       -3.5560  -18.4715  -52.9223 H         1 UNK         0.0800 
    246 H246       -0.2428  -17.1589  -54.7873 H         1 UNK         0.0800 
    247 H247       -0.8260  -15.5145  -54.8596 H         1 UNK         0.0800 
@<TRIPOS>BOND
     1    1    2 1    
     2    1  127 1    
     3    1  128 1    
     4    1  129 1    
     5    2    3 2    
     6    2    4 am   BACKBONE|DICT|INTERRES
     7    4    5 1    
     8    4  130 1    
     9    5    6 1    
    10    5   65 1    
    11    5  131 1    
    12    6    7 1    
    13    6  132 1    
    14    6  133 1    
    15    7    8 1    
    16    8    9 1    
    17    8  134 1    
    18    8  135 1    
    19    9   10 ar   
    20    9   14 ar   
    21   10   11 ar   
    22   10  136 1    
    23   11   12 ar   
    24   11  126 1    
    25   12   13 ar   
    26   12  137 1    
    27   13   14 ar   
    28   13   15 1    
    29   14  138 1    
    30   15   16 1    
    31   15  139 1    
    32   15  140 1    
    33   16   17 1    
    34   17   18 1    
    35   17  141 1    
    36   17  142 1    
    37   18   19 1    
    38   18   67 1    
    39   18  143 1    
    40   19   20 am   BACKBONE|DICT|INTERRES
    41   19  144 1    
    42   20   21 2    
    43   20   22 1    
    44   22   23 1    
    45   22   24 1    
    46   22  145 1    
    47   23  146 1    
    48   23  147 1    
    49   23  148 1    
    50   24   25 am   BACKBONE|DICT|INTERRES
    51   24  149 1    
    52   25   26 2    
    53   25   27 1    
    54   27   28 1    
    55   27   29 1    
    56   27  150 1    
    57   28  151 1    
    58   28  152 1    
    59   28  153 1    
    60   29   30 am   BACKBONE|DICT|INTERRES
    61   29  154 1    
    62   30   31 2    
    63   30   32 1    
    64   32   33 1    
    65   32   34 1    
    66   32  155 1    
    67   33  156 1    
    68   33  157 1    
    69   33  158 1    
    70   34   35 am   BACKBONE|DICT|INTERRES
    71   34  159 1    
    72   35   36 2    
    73   35   37 1    
    74   37   38 1    
    75   37   39 1    
    76   37  160 1    
    77   38  161 1    
    78   38  162 1    
    79   38  163 1    
    80   39   40 am   BACKBONE|DICT|INTERRES
    81   39  164 1    
    82   40   41 2    
    83   40   42 1    
    84   42   43 1    
    85   42   44 1    
    86   42  165 1    
    87   43  166 1    
    88   43  167 1    
    89   43  168 1    
    90   44   45 am   BACKBONE|DICT|INTERRES
    91   44  169 1    
    92   45   46 2    
    93   45   47 1    
    94   47   48 1    
    95   47   49 1    
    96   47  170 1    
    97   48  171 1    
    98   48  172 1    
    99   48  173 1    
   100   49   50 am   BACKBONE|DICT|INTERRES
   101   49  174 1    
   102   50   51 2    
   103   50   52 1    
   104   52   53 1    
   105   52   54 1    
   106   52  175 1    
   107   53  176 1    
   108   53  177 1    
   109   53  178 1    
   110   54   55 am   BACKBONE|DICT|INTERRES
   111   54  179 1    
   112   55   56 2    
   113   55   57 1    
   114   57   58 1    
   115   57   59 1    
   116   57  180 1    
   117   58  181 1    
   118   58  182 1    
   119   58  183 1    
   120   59   60 am   BACKBONE|DICT|INTERRES
   121   59  184 1    
   122   60   61 2    
   123   60   62 1    
   124   62   63 1    
   125   62   64 1    
   126   62  185 1    
   127   63  186 1    
   128   63  187 1    
   129   63  188 1    
   130   64   65 am   BACKBONE|DICT|INTERRES
   131   64  189 1    
   132   65   66 2    
   133   67   68 2    
   134   67   69 am   BACKBONE|DICT|INTERRES
   135   69   70 1    
   136   69  190 1    
   137   70   71 1    
   138   70   72 1    
   139   70  191 1    
   140   71  192 1    
   141   71  193 1    
   142   71  194 1    
   143   72   73 2    
   144   72   74 am   BACKBONE|DICT|INTERRES
   145   74   75 1    
   146   74  195 1    
   147   75   76 1    
   148   75   77 1    
   149   75  196 1    
   150   76  197 1    
   151   76  198 1    
   152   76  199 1    
   153   77   78 2    
   154   77   79 am   BACKBONE|DICT|INTERRES
   155   79   80 1    
   156   79  200 1    
   157   80   81 1    
   158   80   82 1    
   159   80  201 1    
   160   81  202 1    
   161   81  203 1    
   162   81  204 1    
   163   82   83 2    
   164   82   84 am   BACKBONE|DICT|INTERRES
   165   84   85 1    
   166   84  205 1    
   167   85   86 1    
   168   85   87 1    
   169   85  206 1    
   170   86  207 1    
   171   86  208 1    
   172   86  209 1    
   173   87   88 2    
   174   87   89 am   BACKBONE|DICT|INTERRES
   175   89   90 1    
   176   89  210 1    
   177   90   91 1    
   178   90   92 1    
   179   90  211 1    
   180   91  212 1    
   181   91  213 1    
   182   91  214 1    
   183   92   93 2    
   184   92   94 am   BACKBONE|DICT|INTERRES
   185   94   95 1    
   186   94  215 1    
   187   95   96 1    
   188   95   97 1    
   189   95  216 1    
   190   96  217 1    
   191   96  218 1    
   192   96  219 1    
   193   97   98 2    
   194   97   99 am   BACKBONE|DICT|INTERRES
   195   99  100 1    
   196   99  220 1    
   197  100  101 1    
   198  100  102 1    
   199  100  221 1    
   200  101  222 1    
   201  101  223 1    
   202  101  224 1    
   203  102  103 2    
   204  102  104 am   BACKBONE|DICT|INTERRES
   205  104  105 1    
   206  104  225 1    
   207  105  106 1    
   208  105  107 1    
   209  105  226 1    
   210  106  227 1    
   211  106  228 1    
   212  106  229 1    
   213  107  108 2    
   214  107  109 am   BACKBONE|DICT|INTERRES
   215  109  110 1    
   216  109  230 1    
   217  110  111 1    
   218  110  112 1    
   219  110  231 1    
   220  111  232 1    
   221  111  233 1    
   222  111  234 1    
   223  112  113 2    
   224  112  114 am   BACKBONE|DICT|INTERRES
   225  114  115 1    
   226  114  235 1    
   227  115  116 1    
   228  115  117 1    
   229  115  236 1    
   230  116  237 1    
   231  116  238 1    
   232  116  239 1    
   233  117  118 2    
   234  117  119 am   BACKBONE|DICT|INTERRES
   235  119  120 1    
   236  119  240 1    
   237  120  121 1    
   238  120  124 1    
   239  120  241 1    
   240  121  122 am   BACKBONE|DICT|INTERRES
   241  121  123 2    
   242  122  242 1    
   243  122  243 1    
   244  124  125 1    
   245  124  244 1    
   246  124  245 1    
   247  125  126 1    
   248  126  246 1    
   249  126  247 1    
@<TRIPOS>SUBSTRUCTURE
     1 UNK         1 GROUP             0       ****    0 ROOT    
