@<TRIPOS>MOLECULE
3R540
247   249    1
SMALL
USER_CHARGES


@<TRIPOS>ATOM
      1 CA          7.0372  -14.5858  -49.5488 C.3       0 UNK        -0.1800 
      2 C           5.8812  -13.9703  -48.7730 C.2       0 UNK         0.5000 
      3 O           5.4100  -12.8927  -49.1359 O.2       0 UNK        -0.5000 
      4 N           5.4305  -14.6535  -47.7116 N.am      1 UNK        -0.5000 
      5 CA          4.3255  -14.2631  -46.8244 C.3       1 UNK         0.1400 
      6 C6          2.9352  -14.2723  -47.5136 C.3       23 UNK        -0.0398 
      7 S7          2.4402  -15.9625  -47.9733 S.3       23 UNK        -0.2404 
      8 C8          1.8234  -15.7486  -49.6716 C.3       23 UNK        -0.0205 
      9 C9          0.8430  -16.8631  -49.9955 C.ar      23 UNK        -0.0193 
     10 C10        -0.5327  -16.6377  -49.9022 C.ar      23 UNK        -0.1150 
     11 C11        -1.4387  -17.6893  -50.0645 C.ar      23 UNK        -0.0193 
     12 C12        -0.9541  -18.9746  -50.3273 C.ar      23 UNK        -0.1150 
     13 C13         0.4185  -19.2078  -50.4541 C.ar      23 UNK        -0.0193 
     14 C14         1.3111  -18.1415  -50.3075 C.ar      23 UNK        -0.1150 
     15 C15         0.9329  -20.6237  -50.6849 C.3       23 UNK        -0.0205 
     16 S16         2.1688  -21.1545  -49.4472 S.3       23 UNK        -0.2404 
     17 C17         1.3605  -20.7371  -47.8602 C.3       23 UNK        -0.0398 
     18 CA          0.6989  -21.9388  -47.1529 C.3       11 UNK         0.1400 
     19 N           0.3567  -21.6173  -45.7674 N.am      11 UNK        -0.5000 
     20 C          -0.0678  -22.5029  -44.8567 C.2       10 UNK         0.5000 
     21 O          -0.1825  -23.7084  -45.0763 O.2       10 UNK        -0.5000 
     22 CA         -0.4778  -21.9391  -43.4850 C.3       10 UNK         0.1400 
     23 CB          0.7584  -21.6464  -42.6219 C.3       10 UNK        -0.1800 
     24 N          -1.2983  -20.7324  -43.5983 N.am      10 UNK        -0.5000 
     25 C          -2.5114  -20.6928  -44.1690 C.2       9 UNK         0.5000 
     26 O          -3.0855  -21.6818  -44.6248 O.2       9 UNK        -0.5000 
     27 CA         -3.1761  -19.3104  -44.2933 C.3       9 UNK         0.1400 
     28 CB         -3.7920  -18.8734  -42.9557 C.3       9 UNK        -0.1800 
     29 N          -2.2501  -18.2814  -44.7635 N.am      9 UNK        -0.5000 
     30 C          -1.6392  -18.2901  -45.9560 C.2       8 UNK         0.5000 
     31 O          -1.8140  -19.1575  -46.8097 O.2       8 UNK        -0.5000 
     32 CA         -0.6186  -17.1708  -46.2138 C.3       8 UNK         0.1400 
     33 CB         -1.3140  -15.8499  -46.5795 C.3       8 UNK        -0.1800 
     34 N           0.2648  -16.9592  -45.0684 N.am      8 UNK        -0.5000 
     35 C           1.1627  -17.8509  -44.6280 C.2       7 UNK         0.5000 
     36 O           1.3510  -18.9512  -45.1448 O.2       7 UNK        -0.5000 
     37 CA          1.9577  -17.4576  -43.3711 C.3       7 UNK         0.1400 
     38 CB          3.1304  -16.5411  -43.7494 C.3       7 UNK        -0.1800 
     39 N           1.1291  -16.8044  -42.3551 N.am      7 UNK        -0.5000 
     40 C           0.0992  -17.3903  -41.7280 C.2       6 UNK         0.5000 
     41 O          -0.2474  -18.5561  -41.9196 O.2       6 UNK        -0.5000 
     42 CA         -0.7177  -16.5061  -40.7683 C.3       6 UNK         0.1400 
     43 CB          0.0116  -16.3300  -39.4278 C.3       6 UNK        -0.1800 
     44 N          -1.0516  -15.1911  -41.3253 N.am      6 UNK        -0.5000 
     45 C          -1.7542  -14.9907  -42.4500 C.2       5 UNK         0.5000 
     46 O          -2.1507  -15.9047  -43.1708 O.2       5 UNK        -0.5000 
     47 CA         -2.0712  -13.5388  -42.8585 C.3       5 UNK         0.1400 
     48 CB         -3.5841  -13.2858  -42.7695 C.3       5 UNK        -0.1800 
     49 N          -1.3854  -12.5326  -42.0415 N.am      5 UNK        -0.5000 
     50 C          -0.1378  -12.0629  -42.1824 C.2       4 UNK         0.5000 
     51 O           0.3002  -11.1988  -41.4217 O.2       4 UNK        -0.5000 
     52 CA          0.7651  -12.5789  -43.3300 C.3       4 UNK         0.1400 
     53 CB          0.5699  -11.7270  -44.5938 C.3       4 UNK        -0.1800 
     54 N           2.1780  -12.5451  -42.9500 N.am      4 UNK        -0.5000 
     55 C           2.7212  -13.3188  -42.0017 C.2       3 UNK         0.5000 
     56 O           2.1133  -14.2508  -41.4713 O.2       3 UNK        -0.5000 
     57 CA          4.1807  -13.0143  -41.6125 C.3       3 UNK         0.1400 
     58 CB          4.7999  -14.1050  -40.7193 C.3       3 UNK        -0.1800 
     59 N           5.0054  -12.8538  -42.8097 N.am      3 UNK        -0.5000 
     60 C           5.4717  -11.6934  -43.2906 C.2       2 UNK         0.5000 
     61 O           5.2874  -10.6028  -42.7499 O.2       2 UNK        -0.5000 
     62 CA          6.2523  -11.7612  -44.6201 C.3       2 UNK         0.1400 
     63 CB          7.7603  -11.8848  -44.3547 C.3       2 UNK        -0.1800 
     64 N           5.8240  -12.8689  -45.4801 N.am      2 UNK        -0.5000 
     65 C           4.6203  -12.9509  -46.0656 C.2       1 UNK         0.5000 
     66 O           3.7729  -12.0597  -45.9970 O.2       1 UNK        -0.5000 
     67 C          -0.5193  -22.4769  -47.9302 C.2       11 UNK         0.5000 
     68 O          -0.4017  -23.5141  -48.5801 O.2       11 UNK        -0.5000 
     69 N          -1.6750  -21.8067  -47.8169 N.am      12 UNK        -0.5000 
     70 CA         -2.9328  -22.2310  -48.4342 C.3       12 UNK         0.1400 
     71 CB         -3.9974  -21.1399  -48.2587 C.3       12 UNK        -0.1800 
     72 C          -3.4432  -23.5859  -47.9130 C.2       12 UNK         0.5000 
     73 O          -3.9865  -24.3623  -48.6954 O.2       12 UNK        -0.5000 
     74 N          -3.2355  -23.8696  -46.6208 N.am      13 UNK        -0.5000 
     75 CA         -3.5362  -25.1671  -46.0176 C.3       13 UNK         0.1400 
     76 CB         -3.4870  -25.0489  -44.4865 C.3       13 UNK        -0.1800 
     77 C          -2.5944  -26.2808  -46.5158 C.2       13 UNK         0.5000 
     78 O          -3.0622  -27.3786  -46.8199 O.2       13 UNK        -0.5000 
     79 N          -1.2904  -25.9824  -46.5862 N.am      14 UNK        -0.5000 
     80 CA         -0.2436  -26.9314  -46.9629 C.3       14 UNK         0.1400 
     81 CB          1.1171  -26.3972  -46.4884 C.3       14 UNK        -0.1800 
     82 C          -0.2028  -27.2402  -48.4703 C.2       14 UNK         0.5000 
     83 O          -0.1264  -28.4104  -48.8469 O.2       14 UNK        -0.5000 
     84 N          -0.2219  -26.1915  -49.3015 N.am      15 UNK        -0.5000 
     85 CA          0.0132  -26.2643  -50.7460 C.3       15 UNK         0.1400 
     86 CB          0.9622  -25.1186  -51.1416 C.3       15 UNK        -0.1800 
     87 C          -1.2813  -26.1995  -51.5762 C.2       15 UNK         0.5000 
     88 O          -1.1998  -26.1786  -52.8052 O.2       15 UNK        -0.5000 
     89 N          -2.4445  -26.1220  -50.9141 N.am      16 UNK        -0.5000 
     90 CA         -3.8063  -25.9724  -51.4519 C.3       16 UNK         0.1400 
     91 CB         -4.1754  -27.1130  -52.4198 C.3       16 UNK        -0.1800 
     92 C          -4.0900  -24.5943  -52.0833 C.2       16 UNK         0.5000 
     93 O          -5.1883  -24.0690  -51.9017 O.2       16 UNK        -0.5000 
     94 N          -3.1108  -24.0351  -52.8093 N.am      17 UNK        -0.5000 
     95 CA         -3.0882  -22.6985  -53.4159 C.3       17 UNK         0.1400 
     96 CB         -2.9145  -21.6325  -52.3184 C.3       17 UNK        -0.1800 
     97 C          -4.2920  -22.4221  -54.3413 C.2       17 UNK         0.5000 
     98 O          -4.8797  -21.3387  -54.2906 O.2       17 UNK        -0.5000 
     99 N          -4.6487  -23.4360  -55.1455 N.am      18 UNK        -0.5000 
    100 CA        -5.8022  -23.4831  -56.0516 C.3       18 UNK         0.1400 
    101 CB        -5.6080  -22.5100  -57.2331 C.3       18 UNK        -0.1800 
    102 C         -7.1404  -23.2928  -55.3049 C.2       18 UNK         0.5000 
    103 O         -7.9719  -22.4819  -55.7131 O.2       18 UNK        -0.5000 
    104 N         -7.2948  -24.0410  -54.2017 N.am      19 UNK        -0.5000 
    105 CA        -8.4024  -23.9969  -53.2396 C.3       19 UNK         0.1400 
    106 CB        -9.7345  -24.4180  -53.8959 C.3       19 UNK        -0.1800 
    107 C         -8.4756  -22.6400  -52.5096 C.2       19 UNK         0.5000 
    108 O         -9.5465  -22.0372  -52.4142 O.2       19 UNK        -0.5000 
    109 N         -7.3109  -22.1920  -52.0187 N.am      20 UNK        -0.5000 
    110 CA        -7.0606  -20.9363  -51.3044 C.3       20 UNK         0.1400 
    111 CB        -7.7315  -20.9595  -49.9157 C.3       20 UNK        -0.1800 
    112 C         -7.4053  -19.6723  -52.1224 C.2       20 UNK         0.5000 
    113 O         -7.7944  -18.6539  -51.5472 O.2       20 UNK        -0.5000 
    114 N         -7.2454  -19.7518  -53.4502 N.am      21 UNK        -0.5000 
    115 CA        -7.3596  -18.6134  -54.3606 C.3       21 UNK         0.1400 
    116 CB        -7.6564  -19.1150  -55.7803 C.3       21 UNK        -0.1800 
    117 C         -6.0814  -17.7581  -54.3379 C.2       21 UNK         0.5000 
    118 O         -6.1732  -16.5317  -54.4040 O.2       21 UNK        -0.5000 
    119 N         -4.9236  -18.4239  -54.2126 N.am      22 UNK        -0.5000 
    120 CA        -3.5923  -17.8269  -53.9991 C.3       22 UNK         0.1400 
    121 C         -3.0431  -16.9892  -55.1951 C.2       22 UNK         0.5000 
    122 N         -3.5708  -17.1415  -56.4037 N.am      22 UNK        -0.7600 
    123 O         -2.1042  -16.2129  -55.0400 O.2       22 UNK        -0.5000 
    124 C124       -3.4839  -17.0801  -52.6382 C.3       23 UNK        -0.0398 
    125 S125       -3.9531  -18.1361  -51.2210 S.3       23 UNK        -0.2404 
    126 C126       -2.9313  -17.4384  -49.8844 C.3       23 UNK        -0.0205 
    127 H127        7.3529  -15.5376  -49.1206 H         1 UNK         0.0600 
    128 H128        7.8930  -13.9108  -49.5453 H         1 UNK         0.0600 
    129 H129        6.7430  -14.7601  -50.5838 H         1 UNK         0.0600 
    130 H130        5.8659  -15.5373  -47.4871 H         1 UNK         0.3000 
    131 H131        4.2986  -15.0250  -46.0448 H         1 UNK         0.0600 
    132 H132        2.1621  -13.8986  -46.8406 H         1 UNK         0.0800 
    133 H133        2.9262  -13.6164  -48.3849 H         1 UNK         0.0800 
    134 H134        1.3357  -14.7780  -49.7737 H         1 UNK         0.0800 
    135 H135        2.6597  -15.7584  -50.3720 H         1 UNK         0.0800 
    136 H136       -0.8952  -15.6494  -49.6574 H         1 UNK         0.1150 
    137 H137       -1.6507  -19.7958  -50.4119 H         1 UNK         0.1150 
    138 H138        2.3754  -18.3202  -50.3690 H         1 UNK         0.1150 
    139 H139        0.1103  -21.3396  -50.6783 H         1 UNK         0.0800 
    140 H140        1.3802  -20.6800  -51.6779 H         1 UNK         0.0800 
    141 H141        0.6505  -19.9178  -47.9710 H         1 UNK         0.0800 
    142 H142        2.1524  -20.3416  -47.2235 H         1 UNK         0.0800 
    143 H143        1.4355  -22.7443  -47.1120 H         1 UNK         0.0600 
    144 H144        0.4593  -20.6438  -45.4945 H         1 UNK         0.3000 
    145 H145       -1.0734  -22.7011  -42.9780 H         1 UNK         0.0600 
    146 H146        0.4715  -21.3292  -41.6192 H         1 UNK         0.0600 
    147 H147        1.3814  -22.5354  -42.5167 H         1 UNK         0.0600 
    148 H148        1.3765  -20.8599  -43.0560 H         1 UNK         0.0600 
    149 H149       -0.9094  -19.8781  -43.2090 H         1 UNK         0.3000 
    150 H150       -3.9800  -19.3936  -45.0275 H         1 UNK         0.0600 
    151 H151       -4.3304  -17.9312  -43.0601 H         1 UNK         0.0600 
    152 H152       -4.5019  -19.6166  -42.5907 H         1 UNK         0.0600 
    153 H153       -3.0311  -18.7380  -42.1865 H         1 UNK         0.0600 
    154 H154       -2.0730  -17.5056  -44.1299 H         1 UNK         0.3000 
    155 H155       -0.0056  -17.4799  -47.0627 H         1 UNK         0.0600 
    156 H156       -1.8930  -15.4477  -45.7491 H         1 UNK         0.0600 
    157 H157       -2.0023  -15.9896  -47.4127 H         1 UNK         0.0600 
    158 H158       -0.5874  -15.0951  -46.8807 H         1 UNK         0.0600 
    159 H159        0.1358  -16.1086  -44.5443 H         1 UNK         0.3000 
    160 H160        2.3644  -18.3725  -42.9355 H         1 UNK         0.0600 
    161 H161        2.7827  -15.5846  -44.1411 H         1 UNK         0.0600 
    162 H162        3.7564  -17.0039  -44.5135 H         1 UNK         0.0600 
    163 H163        3.7654  -16.3434  -42.8872 H         1 UNK         0.0600 
    164 H164        1.3806  -15.8544  -42.0913 H         1 UNK         0.3000 
    165 H165       -1.6589  -17.0240  -40.5730 H         1 UNK         0.0600 
    166 H166       -0.6078  -15.7922  -38.7099 H         1 UNK         0.0600 
    167 H167        0.2543  -17.2972  -38.9859 H         1 UNK         0.0600 
    168 H168        0.9454  -15.7791  -39.5437 H         1 UNK         0.0600 
    169 H169       -0.7396  -14.3866  -40.8010 H         1 UNK         0.3000 
    170 H170       -1.7849  -13.4235  -43.9045 H         1 UNK         0.0600 
    171 H171       -4.1378  -13.9879  -43.3947 H         1 UNK         0.0600 
    172 H172       -3.9522  -13.3956  -41.7486 H         1 UNK         0.0600 
    173 H173       -3.8371  -12.2821  -43.1118 H         1 UNK         0.0600 
    174 H174       -1.9378  -12.1578  -41.2841 H         1 UNK         0.3000 
    175 H175        0.5202  -13.6147  -43.5650 H         1 UNK         0.0600 
    176 H176        0.8917  -10.6967  -44.4368 H         1 UNK         0.0600 
    177 H177        1.1366  -12.1299  -45.4322 H         1 UNK         0.0600 
    178 H178       -0.4765  -11.6980  -44.8986 H         1 UNK         0.0600 
    179 H179        2.7352  -11.8016  -43.3459 H         1 UNK         0.3000 
    180 H180        4.1617  -12.0881  -41.0349 H         1 UNK         0.0600 
    181 H181        4.8398  -15.0701  -41.2237 H         1 UNK         0.0600 
    182 H182        4.2238  -14.2358  -39.8024 H         1 UNK         0.0600 
    183 H183        5.8159  -13.8403  -40.4262 H         1 UNK         0.0600 
    184 H184        5.1904  -13.6932  -43.3383 H         1 UNK         0.3000 
    185 H185        6.0750  -10.8262  -45.1560 H         1 UNK         0.0600 
    186 H186        8.1169  -11.0590  -43.7376 H         1 UNK         0.0600 
    187 H187        8.0038  -12.8121  -43.8344 H         1 UNK         0.0600 
    188 H188        8.3279  -11.8618  -45.2852 H         1 UNK         0.0600 
    189 H189        6.4801  -13.6259  -45.6079 H         1 UNK         0.3000 
    190 H190       -1.6984  -20.9328  -47.2946 H         1 UNK         0.3000 
    191 H191       -2.7471  -22.3514  -49.5020 H         1 UNK         0.0600 
    192 H192       -3.6886  -20.2125  -48.7389 H         1 UNK         0.0600 
    193 H193       -4.9430  -21.4397  -48.7112 H         1 UNK         0.0600 
    194 H194       -4.1854  -20.9274  -47.2058 H         1 UNK         0.0600 
    195 H195       -2.8443  -23.1562  -46.0142 H         1 UNK         0.3000 
    196 H196       -4.5549  -25.4433  -46.2982 H         1 UNK         0.0600 
    197 H197       -3.7275  -26.0017  -44.0134 H         1 UNK         0.0600 
    198 H198       -4.2079  -24.3150  -44.1258 H         1 UNK         0.0600 
    199 H199       -2.5006  -24.7469  -44.1346 H         1 UNK         0.0600 
    200 H200       -0.9812  -25.0652  -46.2782 H         1 UNK         0.3000 
    201 H201       -0.4317  -27.8708  -46.4384 H         1 UNK         0.0600 
    202 H202        1.1341  -26.2718  -45.4056 H         1 UNK         0.0600 
    203 H203        1.3500  -25.4313  -46.9388 H         1 UNK         0.0600 
    204 H204        1.9221  -27.0856  -46.7489 H         1 UNK         0.0600 
    205 H205       -0.3049  -25.2503  -48.9158 H         1 UNK         0.3000 
    206 H206        0.5065  -27.2055  -50.9965 H         1 UNK         0.0600 
    207 H207        1.8730  -25.1344  -50.5428 H         1 UNK         0.0600 
    208 H208        1.2619  -25.1995  -52.1871 H         1 UNK         0.0600 
    209 H209        0.4941  -24.1423  -51.0116 H         1 UNK         0.0600 
    210 H210       -2.3870  -26.0890  -49.9053 H         1 UNK         0.3000 
    211 H211       -4.4718  -26.0632  -50.5929 H         1 UNK         0.0600 
    212 H212       -3.6003  -27.0725  -53.3449 H         1 UNK         0.0600 
    213 H213       -5.2299  -27.0605  -52.6933 H         1 UNK         0.0600 
    214 H214       -4.0075  -28.0877  -51.9618 H         1 UNK         0.0600 
    215 H215       -2.2754  -24.5984  -52.9411 H         1 UNK         0.3000 
    216 H216       -2.2032  -22.6624  -54.0525 H         1 UNK         0.0600 
    217 H217       -3.7743  -21.5936  -51.6503 H         1 UNK         0.0600 
    218 H218       -2.7859  -20.6404  -52.7479 H         1 UNK         0.0600 
    219 H219       -2.0298  -21.8381  -51.7177 H         1 UNK         0.0600 
    220 H220       -4.1001  -24.2828  -55.0933 H         1 UNK         0.3000 
    221 H221       -5.8316  -24.4922  -56.4651 H         1 UNK         0.0600 
    222 H222       -5.5324  -21.4753  -56.9023 H         1 UNK         0.0600 
    223 H223       -4.7003  -22.7465  -57.7881 H         1 UNK         0.0600 
    224 H224       -6.4408  -22.5714  -57.9345 H         1 UNK         0.0600 
    225 H225       -6.5192  -24.6275  -53.9280 H         1 UNK         0.3000 
    226 H226       -8.1691  -24.7387  -52.4742 H         1 UNK         0.0600 
    227 H227       -9.6419  -25.3848  -54.3905 H         1 UNK         0.0600 
    228 H228      -10.5229  -24.5104  -53.1481 H         1 UNK         0.0600 
    229 H229      -10.0734  -23.6930  -54.6362 H         1 UNK         0.0600 
    230 H230       -6.4980  -22.7973  -52.1219 H         1 UNK         0.3000 
    231 H231       -5.9832  -20.8953  -51.1426 H         1 UNK         0.0600 
    232 H232       -8.8188  -20.9340  -49.9917 H         1 UNK         0.0600 
    233 H233       -7.4237  -20.1006  -49.3182 H         1 UNK         0.0600 
    234 H234       -7.4542  -21.8550  -49.3594 H         1 UNK         0.0600 
    235 H235       -6.8764  -20.6111  -53.8397 H         1 UNK         0.3000 
    236 H236       -8.1947  -17.9853  -54.0435 H         1 UNK         0.0600 
    237 H237       -8.5821  -19.6902  -55.8086 H         1 UNK         0.0600 
    238 H238       -7.7683  -18.2812  -56.4743 H         1 UNK         0.0600 
    239 H239       -6.8564  -19.7515  -56.1559 H         1 UNK         0.0600 
    240 H240       -4.9540  -19.4399  -54.1887 H         1 UNK         0.3000 
    241 H241       -2.9090  -18.6736  -53.9468 H         1 UNK         0.0600 
    242 H242       -4.3374  -17.7787  -56.5483 H         1 UNK         0.3800 
    243 H243       -3.2076  -16.6064  -57.1768 H         1 UNK         0.3800 
    244 H244       -4.1142  -16.1901  -52.6337 H         1 UNK         0.0800 
    245 H245       -2.4622  -16.7298  -52.4849 H         1 UNK         0.0800 
    246 H246       -3.2427  -17.8778  -48.9365 H         1 UNK         0.0800 
    247 H247       -3.1403  -16.3702  -49.8093 H         1 UNK         0.0800 
@<TRIPOS>BOND
     1    1    2 1    
     2    1  127 1    
     3    1  128 1    
     4    1  129 1    
     5    2    3 2    
     6    2    4 am   BACKBONE|DICT|INTERRES
     7    4    5 1    
     8    4  130 1    
     9    5    6 1    
    10    5   65 1    
    11    5  131 1    
    12    6    7 1    
    13    6  132 1    
    14    6  133 1    
    15    7    8 1    
    16    8    9 1    
    17    8  134 1    
    18    8  135 1    
    19    9   10 ar   
    20    9   14 ar   
    21   10   11 ar   
    22   10  136 1    
    23   11   12 ar   
    24   11  126 1    
    25   12   13 ar   
    26   12  137 1    
    27   13   14 ar   
    28   13   15 1    
    29   14  138 1    
    30   15   16 1    
    31   15  139 1    
    32   15  140 1    
    33   16   17 1    
    34   17   18 1    
    35   17  141 1    
    36   17  142 1    
    37   18   19 1    
    38   18   67 1    
    39   18  143 1    
    40   19   20 am   BACKBONE|DICT|INTERRES
    41   19  144 1    
    42   20   21 2    
    43   20   22 1    
    44   22   23 1    
    45   22   24 1    
    46   22  145 1    
    47   23  146 1    
    48   23  147 1    
    49   23  148 1    
    50   24   25 am   BACKBONE|DICT|INTERRES
    51   24  149 1    
    52   25   26 2    
    53   25   27 1    
    54   27   28 1    
    55   27   29 1    
    56   27  150 1    
    57   28  151 1    
    58   28  152 1    
    59   28  153 1    
    60   29   30 am   BACKBONE|DICT|INTERRES
    61   29  154 1    
    62   30   31 2    
    63   30   32 1    
    64   32   33 1    
    65   32   34 1    
    66   32  155 1    
    67   33  156 1    
    68   33  157 1    
    69   33  158 1    
    70   34   35 am   BACKBONE|DICT|INTERRES
    71   34  159 1    
    72   35   36 2    
    73   35   37 1    
    74   37   38 1    
    75   37   39 1    
    76   37  160 1    
    77   38  161 1    
    78   38  162 1    
    79   38  163 1    
    80   39   40 am   BACKBONE|DICT|INTERRES
    81   39  164 1    
    82   40   41 2    
    83   40   42 1    
    84   42   43 1    
    85   42   44 1    
    86   42  165 1    
    87   43  166 1    
    88   43  167 1    
    89   43  168 1    
    90   44   45 am   BACKBONE|DICT|INTERRES
    91   44  169 1    
    92   45   46 2    
    93   45   47 1    
    94   47   48 1    
    95   47   49 1    
    96   47  170 1    
    97   48  171 1    
    98   48  172 1    
    99   48  173 1    
   100   49   50 am   BACKBONE|DICT|INTERRES
   101   49  174 1    
   102   50   51 2    
   103   50   52 1    
   104   52   53 1    
   105   52   54 1    
   106   52  175 1    
   107   53  176 1    
   108   53  177 1    
   109   53  178 1    
   110   54   55 am   BACKBONE|DICT|INTERRES
   111   54  179 1    
   112   55   56 2    
   113   55   57 1    
   114   57   58 1    
   115   57   59 1    
   116   57  180 1    
   117   58  181 1    
   118   58  182 1    
   119   58  183 1    
   120   59   60 am   BACKBONE|DICT|INTERRES
   121   59  184 1    
   122   60   61 2    
   123   60   62 1    
   124   62   63 1    
   125   62   64 1    
   126   62  185 1    
   127   63  186 1    
   128   63  187 1    
   129   63  188 1    
   130   64   65 am   BACKBONE|DICT|INTERRES
   131   64  189 1    
   132   65   66 2    
   133   67   68 2    
   134   67   69 am   BACKBONE|DICT|INTERRES
   135   69   70 1    
   136   69  190 1    
   137   70   71 1    
   138   70   72 1    
   139   70  191 1    
   140   71  192 1    
   141   71  193 1    
   142   71  194 1    
   143   72   73 2    
   144   72   74 am   BACKBONE|DICT|INTERRES
   145   74   75 1    
   146   74  195 1    
   147   75   76 1    
   148   75   77 1    
   149   75  196 1    
   150   76  197 1    
   151   76  198 1    
   152   76  199 1    
   153   77   78 2    
   154   77   79 am   BACKBONE|DICT|INTERRES
   155   79   80 1    
   156   79  200 1    
   157   80   81 1    
   158   80   82 1    
   159   80  201 1    
   160   81  202 1    
   161   81  203 1    
   162   81  204 1    
   163   82   83 2    
   164   82   84 am   BACKBONE|DICT|INTERRES
   165   84   85 1    
   166   84  205 1    
   167   85   86 1    
   168   85   87 1    
   169   85  206 1    
   170   86  207 1    
   171   86  208 1    
   172   86  209 1    
   173   87   88 2    
   174   87   89 am   BACKBONE|DICT|INTERRES
   175   89   90 1    
   176   89  210 1    
   177   90   91 1    
   178   90   92 1    
   179   90  211 1    
   180   91  212 1    
   181   91  213 1    
   182   91  214 1    
   183   92   93 2    
   184   92   94 am   BACKBONE|DICT|INTERRES
   185   94   95 1    
   186   94  215 1    
   187   95   96 1    
   188   95   97 1    
   189   95  216 1    
   190   96  217 1    
   191   96  218 1    
   192   96  219 1    
   193   97   98 2    
   194   97   99 am   BACKBONE|DICT|INTERRES
   195   99  100 1    
   196   99  220 1    
   197  100  101 1    
   198  100  102 1    
   199  100  221 1    
   200  101  222 1    
   201  101  223 1    
   202  101  224 1    
   203  102  103 2    
   204  102  104 am   BACKBONE|DICT|INTERRES
   205  104  105 1    
   206  104  225 1    
   207  105  106 1    
   208  105  107 1    
   209  105  226 1    
   210  106  227 1    
   211  106  228 1    
   212  106  229 1    
   213  107  108 2    
   214  107  109 am   BACKBONE|DICT|INTERRES
   215  109  110 1    
   216  109  230 1    
   217  110  111 1    
   218  110  112 1    
   219  110  231 1    
   220  111  232 1    
   221  111  233 1    
   222  111  234 1    
   223  112  113 2    
   224  112  114 am   BACKBONE|DICT|INTERRES
   225  114  115 1    
   226  114  235 1    
   227  115  116 1    
   228  115  117 1    
   229  115  236 1    
   230  116  237 1    
   231  116  238 1    
   232  116  239 1    
   233  117  118 2    
   234  117  119 am   BACKBONE|DICT|INTERRES
   235  119  120 1    
   236  119  240 1    
   237  120  121 1    
   238  120  124 1    
   239  120  241 1    
   240  121  122 am   BACKBONE|DICT|INTERRES
   241  121  123 2    
   242  122  242 1    
   243  122  243 1    
   244  124  125 1    
   245  124  244 1    
   246  124  245 1    
   247  125  126 1    
   248  126  246 1    
   249  126  247 1    
@<TRIPOS>SUBSTRUCTURE
     1 UNK         1 GROUP             0       ****    0 ROOT    
