@<TRIPOS>MOLECULE
3R540
247   249    1
SMALL
USER_CHARGES


@<TRIPOS>ATOM
      1 CA         -2.7516  -10.2338  -44.6784 C.3       0 UNK        -0.1800 
      2 C          -2.7305  -11.7366  -44.4038 C.2       0 UNK         0.5000 
      3 O          -3.0789  -12.1497  -43.3002 O.2       0 UNK        -0.5000 
      4 N          -2.3441  -12.5967  -45.3585 N.am      1 UNK        -0.5000 
      5 CA         -1.8712  -12.2858  -46.7163 C.3       1 UNK         0.1400 
      6 C6         -1.7990  -13.5695  -47.5874 C.3       23 UNK        -0.0398 
      7 S7         -1.9894  -13.2233  -49.3689 S.3       23 UNK        -0.2404 
      8 C8         -0.2697  -13.3274  -49.9616 C.3       23 UNK        -0.0205 
      9 C9          0.1302  -14.7522  -50.3116 C.ar      23 UNK        -0.0193 
     10 C10        -0.2692  -15.3005  -51.5329 C.ar      23 UNK        -0.1150 
     11 C11         0.1164  -16.5936  -51.8926 C.ar      23 UNK        -0.0193 
     12 C12         0.9151  -17.3359  -51.0186 C.ar      23 UNK        -0.1150 
     13 C13         1.3162  -16.8078  -49.7845 C.ar      23 UNK        -0.0193 
     14 C14         0.9186  -15.5109  -49.4404 C.ar      23 UNK        -0.1150 
     15 C15         2.2001  -17.6009  -48.8202 C.3       23 UNK        -0.0205 
     16 S16         1.9373  -19.4090  -48.8472 S.3       23 UNK        -0.2404 
     17 C17         0.1490  -19.5039  -48.5114 C.3       23 UNK        -0.0398 
     18 CA         -0.2685  -20.8611  -47.9037 C.3       11 UNK         0.1400 
     19 N           0.2234  -21.0418  -46.5358 N.am      11 UNK        -0.5000 
     20 C           0.2293  -22.2107  -45.8815 C.2       10 UNK         0.5000 
     21 O          -0.0907  -23.2821  -46.3953 O.2       10 UNK        -0.5000 
     22 CA          0.6283  -22.1796  -44.3935 C.3       10 UNK         0.1400 
     23 CB          2.1502  -22.3084  -44.2316 C.3       10 UNK        -0.1800 
     24 N           0.1524  -20.9830  -43.6945 N.am      10 UNK        -0.5000 
     25 C          -1.1414  -20.6837  -43.5072 C.2       9 UNK         0.5000 
     26 O          -2.0670  -21.4035  -43.8778 O.2       9 UNK        -0.5000 
     27 CA         -1.4642  -19.3381  -42.8345 C.3       9 UNK         0.1400 
     28 CB         -1.3187  -19.4435  -41.3093 C.3       9 UNK        -0.1800 
     29 N          -0.6401  -18.2399  -43.3390 N.am      9 UNK        -0.5000 
     30 C          -0.6505  -17.7986  -44.6050 C.2       8 UNK         0.5000 
     31 O          -1.3974  -18.2410  -45.4776 O.2       8 UNK        -0.5000 
     32 CA          0.3938  -16.7287  -44.9765 C.3       8 UNK         0.1400 
     33 CB         -0.0509  -15.3333  -44.5189 C.3       8 UNK        -0.1800 
     34 N           1.7208  -17.0260  -44.4357 N.am      8 UNK        -0.5000 
     35 C           2.4242  -18.1306  -44.7237 C.2       7 UNK         0.5000 
     36 O           2.0476  -18.9935  -45.5139 O.2       7 UNK        -0.5000 
     37 CA          3.7368  -18.3355  -43.9531 C.3       7 UNK         0.1400 
     38 CB          4.8723  -17.4999  -44.5631 C.3       7 UNK        -0.1800 
     39 N           3.5768  -18.0127  -42.5355 N.am      7 UNK        -0.5000 
     40 C           2.8776  -18.7620  -41.6706 C.2       6 UNK         0.5000 
     41 O           2.3327  -19.8236  -41.9723 O.2       6 UNK        -0.5000 
     42 CA          2.7302  -18.2157  -40.2384 C.3       6 UNK         0.1400 
     43 CB          3.9575  -18.5808  -39.3903 C.3       6 UNK        -0.1800 
     44 N           2.5303  -16.7665  -40.2040 N.am      6 UNK        -0.5000 
     45 C           1.4458  -16.1406  -40.6824 C.2       5 UNK         0.5000 
     46 O           0.4794  -16.7248  -41.1689 O.2       5 UNK        -0.5000 
     47 CA          1.4642  -14.6017  -40.6591 C.3       5 UNK         0.1400 
     48 CB          0.9165  -14.0737  -39.3255 C.3       5 UNK        -0.1800 
     49 N           2.7868  -14.0216  -40.9021 N.am      5 UNK        -0.5000 
     50 C           3.5256  -14.2151  -42.0018 C.2       4 UNK         0.5000 
     51 O           3.1963  -14.9658  -42.9224 O.2       4 UNK        -0.5000 
     52 CA          4.8212  -13.3877  -42.0981 C.3       4 UNK         0.1400 
     53 CB          5.8164  -13.9739  -43.1146 C.3       4 UNK        -0.1800 
     54 N           4.4885  -12.0236  -42.4953 N.am      4 UNK        -0.5000 
     55 C           3.9622  -11.0875  -41.6932 C.2       3 UNK         0.5000 
     56 O           3.8772  -11.2045  -40.4697 O.2       3 UNK        -0.5000 
     57 CA          3.3866   -9.8360  -42.3860 C.3       3 UNK         0.1400 
     58 CB          4.4357   -8.7151  -42.4374 C.3       3 UNK        -0.1800 
     59 N           2.9042  -10.1108  -43.7448 N.am      3 UNK        -0.5000 
     60 C           1.8697  -10.9108  -44.0391 C.2       2 UNK         0.5000 
     61 O           1.1533  -11.4536  -43.1935 O.2       2 UNK        -0.5000 
     62 CA          1.6292  -11.1796  -45.5299 C.3       2 UNK         0.1400 
     63 CB          2.6826  -12.1541  -46.0887 C.3       2 UNK        -0.1800 
     64 N           0.3063  -11.7670  -45.7011 N.am      2 UNK        -0.5000 
     65 C          -0.5183  -11.5373  -46.7275 C.2       1 UNK         0.5000 
     66 O          -0.2562  -10.7657  -47.6503 O.2       1 UNK        -0.5000 
     67 C          -1.7985  -21.0279  -47.9913 C.2       11 UNK         0.5000 
     68 O          -2.2783  -21.6457  -48.9403 O.2       11 UNK        -0.5000 
     69 N          -2.5345  -20.4650  -47.0218 N.am      12 UNK        -0.5000 
     70 CA         -3.9968  -20.5148  -46.9540 C.3       12 UNK         0.1400 
     71 CB         -4.4903  -19.4923  -45.9199 C.3       12 UNK        -0.1800 
     72 C          -4.5514  -21.9155  -46.6327 C.2       12 UNK         0.5000 
     73 O          -5.6424  -22.2534  -47.0989 O.2       12 UNK        -0.5000 
     74 N          -3.7973  -22.6964  -45.8467 N.am      13 UNK        -0.5000 
     75 CA         -4.1109  -24.0648  -45.4345 C.3       13 UNK         0.1400 
     76 CB         -2.9828  -24.5901  -44.5330 C.3       13 UNK        -0.1800 
     77 C          -4.3438  -25.0282  -46.6139 C.2       13 UNK         0.5000 
     78 O          -3.8114  -24.8213  -47.7075 O.2       13 UNK        -0.5000 
     79 N          -5.1497  -26.0680  -46.3546 N.am      14 UNK        -0.5000 
     80 CA         -5.5904  -27.0934  -47.3080 C.3       14 UNK         0.1400 
     81 CB         -4.4083  -27.9914  -47.7318 C.3       14 UNK        -0.1800 
     82 C          -6.3535  -26.4959  -48.5093 C.2       14 UNK         0.5000 
     83 O          -6.1759  -26.9552  -49.6371 O.2       14 UNK        -0.5000 
     84 N          -7.1696  -25.4648  -48.2379 N.am      15 UNK        -0.5000 
     85 CA         -7.9557  -24.6805  -49.1953 C.3       15 UNK         0.1400 
     86 CB         -9.0900  -25.5369  -49.7974 C.3       15 UNK        -0.1800 
     87 C          -7.0645  -24.0251  -50.2684 C.2       15 UNK         0.5000 
     88 O          -7.1771  -24.3521  -51.4501 O.2       15 UNK        -0.5000 
     89 N          -6.1656  -23.1372  -49.8216 N.am      16 UNK        -0.5000 
     90 CA         -5.1779  -22.4121  -50.6290 C.3       16 UNK         0.1400 
     91 CB         -5.8688  -21.4258  -51.5937 C.3       16 UNK        -0.1800 
     92 C          -4.1835  -23.3556  -51.3384 C.2       16 UNK         0.5000 
     93 O          -3.9090  -23.1838  -52.5302 O.2       16 UNK        -0.5000 
     94 N          -3.6882  -24.3495  -50.5846 N.am      17 UNK        -0.5000 
     95 CA         -2.7700  -25.4103  -51.0022 C.3       17 UNK         0.1400 
     96 CB         -1.3745  -24.8264  -51.3051 C.3       17 UNK        -0.1800 
     97 C          -3.3450  -26.2582  -52.1549 C.2       17 UNK         0.5000 
     98 O          -2.7273  -26.3644  -53.2146 O.2       17 UNK        -0.5000 
     99 N          -4.5381  -26.8254  -51.9243 N.am      18 UNK        -0.5000 
    100 CA        -5.3404  -27.6216  -52.8581 C.3       18 UNK         0.1400 
    101 CB        -4.6293  -28.9445  -53.2136 C.3       18 UNK        -0.1800 
    102 C         -5.7800  -26.8076  -54.0915 C.2       18 UNK         0.5000 
    103 O         -5.6722  -27.2830  -55.2236 O.2       18 UNK        -0.5000 
    104 N         -6.2637  -25.5839  -53.8329 N.am      19 UNK        -0.5000 
    105 CA        -6.7399  -24.5850  -54.7926 C.3       19 UNK         0.1400 
    106 CB        -8.0341  -25.0661  -55.4814 C.3       19 UNK        -0.1800 
    107 C         -5.6611  -24.1159  -55.7912 C.2       19 UNK         0.5000 
    108 O         -5.9922  -23.7450  -56.9192 O.2       19 UNK        -0.5000 
    109 N         -4.3909  -24.1276  -55.3636 N.am      20 UNK        -0.5000 
    110 CA        -3.2606  -23.6234  -56.1389 C.3       20 UNK         0.1400 
    111 CB        -1.9435  -24.1667  -55.5657 C.3       20 UNK        -0.1800 
    112 C         -3.2597  -22.0885  -56.1680 C.2       20 UNK         0.5000 
    113 O         -3.2087  -21.5057  -57.2512 O.2       20 UNK        -0.5000 
    114 N         -3.3362  -21.4721  -54.9768 N.am      21 UNK        -0.5000 
    115 CA        -3.4815  -20.0300  -54.7284 C.3       21 UNK         0.1400 
    116 CB        -4.9412  -19.6135  -55.0029 C.3       21 UNK        -0.1800 
    117 C         -2.4637  -19.1310  -55.4746 C.2       21 UNK         0.5000 
    118 O         -2.8150  -18.0268  -55.8936 O.2       21 UNK        -0.5000 
    119 N         -1.2290  -19.6280  -55.6417 N.am      22 UNK        -0.5000 
    120 CA        -0.1450  -19.0288  -56.4482 C.3       22 UNK         0.1400 
    121 C         -0.4006  -19.0221  -57.9903 C.2       22 UNK         0.5000 
    122 N         -1.3851  -19.7389  -58.5173 N.am      22 UNK        -0.7600 
    123 O          0.3322  -18.3812  -58.7395 O.2       22 UNK        -0.5000 
    124 C124        0.3237  -17.6362  -55.9323 C.3       23 UNK        -0.0398 
    125 S125        1.0618  -17.6825  -54.2653 S.3       23 UNK        -0.2404 
    126 C126       -0.3426  -17.1881  -53.2170 C.3       23 UNK        -0.0205 
    127 H127       -1.7459   -9.8191  -44.6110 H         1 UNK         0.0600 
    128 H128       -3.3709   -9.7242  -43.9401 H         1 UNK         0.0600 
    129 H129       -3.1634  -10.0045  -45.6604 H         1 UNK         0.0600 
    130 H130       -2.3753  -13.5795  -45.1329 H         1 UNK         0.3000 
    131 H131       -2.6138  -11.6225  -47.1634 H         1 UNK         0.0600 
    132 H132       -0.8865  -14.1386  -47.4010 H         1 UNK         0.0800 
    133 H133       -2.6183  -14.2408  -47.3258 H         1 UNK         0.0800 
    134 H134       -0.1719  -12.7013  -50.8496 H         1 UNK         0.0800 
    135 H135        0.4144  -12.9056  -49.2246 H         1 UNK         0.0800 
    136 H136       -0.8821  -14.7142  -52.2034 H         1 UNK         0.1150 
    137 H137        1.2233  -18.3299  -51.3094 H         1 UNK         0.1150 
    138 H138        1.2347  -15.0855  -48.4981 H         1 UNK         0.1150 
    139 H139        3.2438  -17.3995  -49.0635 H         1 UNK         0.0800 
    140 H140        2.0511  -17.2510  -47.7983 H         1 UNK         0.0800 
    141 H141       -0.3651  -19.3341  -49.4593 H         1 UNK         0.0800 
    142 H142       -0.1417  -18.6832  -47.8538 H         1 UNK         0.0800 
    143 H143        0.1681  -21.6514  -48.5188 H         1 UNK         0.0600 
    144 H144        0.5975  -20.2194  -46.0715 H         1 UNK         0.3000 
    145 H145        0.1659  -23.0450  -43.9140 H         1 UNK         0.0600 
    146 H146        2.4316  -22.3655  -43.1800 H         1 UNK         0.0600 
    147 H147        2.5185  -23.2133  -44.7162 H         1 UNK         0.0600 
    148 H148        2.6766  -21.4630  -44.6740 H         1 UNK         0.0600 
    149 H149        0.8621  -20.3592  -43.3257 H         1 UNK         0.3000 
    150 H150       -2.5058  -19.0986  -43.0574 H         1 UNK         0.0600 
    151 H151       -1.9308  -20.2546  -40.9132 H         1 UNK         0.0600 
    152 H152       -1.6406  -18.5246  -40.8192 H         1 UNK         0.0600 
    153 H153       -0.2867  -19.6356  -41.0149 H         1 UNK         0.0600 
    154 H154       -0.0339  -17.7826  -42.6630 H         1 UNK         0.3000 
    155 H155        0.4750  -16.7144  -46.0648 H         1 UNK         0.0600 
    156 H156       -1.0233  -15.0834  -44.9415 H         1 UNK         0.0600 
    157 H157        0.6574  -14.5697  -44.8397 H         1 UNK         0.0600 
    158 H158       -0.1404  -15.2731  -43.4348 H         1 UNK         0.0600 
    159 H159        2.1233  -16.3489  -43.7938 H         1 UNK         0.3000 
    160 H160        4.0144  -19.3886  -44.0344 H         1 UNK         0.0600 
    161 H161        4.6429  -16.4348  -44.5600 H         1 UNK         0.0600 
    162 H162        5.0500  -17.7897  -45.5995 H         1 UNK         0.0600 
    163 H163        5.8062  -17.6449  -44.0200 H         1 UNK         0.0600 
    164 H164        3.9267  -17.1152  -42.2329 H         1 UNK         0.3000 
    165 H165        1.8535  -18.6890  -39.7911 H         1 UNK         0.0600 
    166 H166        3.8284  -18.2669  -38.3544 H         1 UNK         0.0600 
    167 H167        4.1198  -19.6595  -39.3840 H         1 UNK         0.0600 
    168 H168        4.8664  -18.1142  -39.7724 H         1 UNK         0.0600 
    169 H169        3.2791  -16.2074  -39.8229 H         1 UNK         0.3000 
    170 H170        0.8062  -14.2526  -41.4571 H         1 UNK         0.0600 
    171 H171       -0.0803  -14.4705  -39.1280 H         1 UNK         0.0600 
    172 H172        1.5552  -14.3556  -38.4875 H         1 UNK         0.0600 
    173 H173        0.8359  -12.9864  -39.3361 H         1 UNK         0.0600 
    174 H174        3.1064  -13.3312  -40.2345 H         1 UNK         0.3000 
    175 H175        5.3014  -13.3785  -41.1174 H         1 UNK         0.0600 
    176 H176        5.4071  -13.9832  -44.1258 H         1 UNK         0.0600 
    177 H177        6.7418  -13.3982  -43.1349 H         1 UNK         0.0600 
    178 H178        6.0786  -15.0005  -42.8558 H         1 UNK         0.0600 
    179 H179        4.4959  -11.8385  -43.4868 H         1 UNK         0.3000 
    180 H180        2.5404   -9.4884  -41.7895 H         1 UNK         0.0600 
    181 H181        5.3007   -8.9993  -43.0380 H         1 UNK         0.0600 
    182 H182        4.7963   -8.4723  -41.4369 H         1 UNK         0.0600 
    183 H183        4.0171   -7.8018  -42.8607 H         1 UNK         0.0600 
    184 H184        3.4331   -9.6960  -44.4989 H         1 UNK         0.3000 
    185 H185        1.6908  -10.2264  -46.0594 H         1 UNK         0.0600 
    186 H186        3.6868  -11.7350  -46.0182 H         1 UNK         0.0600 
    187 H187        2.6825  -13.1011  -45.5464 H         1 UNK         0.0600 
    188 H188        2.4984  -12.3728  -47.1407 H         1 UNK         0.0600 
    189 H189       -0.0107  -12.3242  -44.9180 H         1 UNK         0.3000 
    190 H190       -2.0667  -19.9168  -46.3062 H         1 UNK         0.3000 
    191 H191       -4.3891  -20.2225  -47.9301 H         1 UNK         0.0600 
    192 H192       -4.1696  -18.4831  -46.1788 H         1 UNK         0.0600 
    193 H193       -5.5797  -19.4841  -45.8664 H         1 UNK         0.0600 
    194 H194       -4.1134  -19.7174  -44.9218 H         1 UNK         0.0600 
    195 H195       -2.9465  -22.2999  -45.4627 H         1 UNK         0.3000 
    196 H196       -5.0300  -24.0176  -44.8474 H         1 UNK         0.0600 
    197 H197       -3.1904  -25.6045  -44.1903 H         1 UNK         0.0600 
    198 H198       -2.8633  -23.9697  -43.6450 H         1 UNK         0.0600 
    199 H199       -2.0283  -24.6119  -45.0592 H         1 UNK         0.0600 
    200 H200       -5.5318  -26.1551  -45.4228 H         1 UNK         0.3000 
    201 H201       -6.3070  -27.7223  -46.7779 H         1 UNK         0.0600 
    202 H202       -3.9008  -28.4099  -46.8628 H         1 UNK         0.0600 
    203 H203       -3.6706  -27.4441  -48.3183 H         1 UNK         0.0600 
    204 H204       -4.7516  -28.8292  -48.3400 H         1 UNK         0.0600 
    205 H205       -7.2123  -25.1469  -47.2802 H         1 UNK         0.3000 
    206 H206       -8.4186  -23.8680  -48.6331 H         1 UNK         0.0600 
    207 H207       -9.7285  -25.9497  -49.0165 H         1 UNK         0.0600 
    208 H208       -9.7234  -24.9370  -50.4519 H         1 UNK         0.0600 
    209 H209       -8.7057  -26.3680  -50.3896 H         1 UNK         0.0600 
    210 H210       -6.1145  -22.9580  -48.8214 H         1 UNK         0.3000 
    211 H211       -4.5974  -21.8171  -49.9268 H         1 UNK         0.0600 
    212 H212       -6.4168  -21.9412  -52.3828 H         1 UNK         0.0600 
    213 H213       -5.1341  -20.7796  -52.0740 H         1 UNK         0.0600 
    214 H214       -6.5692  -20.7804  -51.0639 H         1 UNK         0.0600 
    215 H215       -3.9524  -24.3853  -49.6032 H         1 UNK         0.3000 
    216 H216       -2.6653  -26.0799  -50.1478 H         1 UNK         0.0600 
    217 H217       -0.6627  -25.6182  -51.5407 H         1 UNK         0.0600 
    218 H218       -0.9840  -24.2822  -50.4449 H         1 UNK         0.0600 
    219 H219       -1.3936  -24.1404  -52.1516 H         1 UNK         0.0600 
    220 H220       -4.9865  -26.6762  -51.0223 H         1 UNK         0.3000 
    221 H221       -6.2568  -27.8785  -52.3248 H         1 UNK         0.0600 
    222 H222       -3.7250  -28.7774  -53.7993 H         1 UNK         0.0600 
    223 H223       -4.3510  -29.4951  -52.3151 H         1 UNK         0.0600 
    224 H224       -5.2824  -29.5911  -53.8007 H         1 UNK         0.0600 
    225 H225       -6.3439  -25.2911  -52.8615 H         1 UNK         0.3000 
    226 H226       -6.9945  -23.7048  -54.2009 H         1 UNK         0.0600 
    227 H227       -8.7802  -25.3703  -54.7473 H         1 UNK         0.0600 
    228 H228       -8.4781  -24.2710  -56.0814 H         1 UNK         0.0600 
    229 H229       -7.8498  -25.9120  -56.1443 H         1 UNK         0.0600 
    230 H230       -4.2016  -24.4032  -54.4075 H         1 UNK         0.3000 
    231 H231       -3.3523  -23.9821  -57.1663 H         1 UNK         0.0600 
    232 H232       -1.8117  -23.8898  -54.5196 H         1 UNK         0.0600 
    233 H233       -1.0866  -23.7825  -56.1202 H         1 UNK         0.0600 
    234 H234       -1.9096  -25.2544  -55.6285 H         1 UNK         0.0600 
    235 H235       -3.3932  -22.0623  -54.1511 H         1 UNK         0.3000 
    236 H236       -3.2888  -19.8835  -53.6648 H         1 UNK         0.0600 
    237 H237       -5.6432  -20.2483  -54.4627 H         1 UNK         0.0600 
    238 H238       -5.1252  -18.5862  -54.6863 H         1 UNK         0.0600 
    239 H239       -5.1827  -19.6802  -56.0644 H         1 UNK         0.0600 
    240 H240       -1.0367  -20.5466  -55.2700 H         1 UNK         0.3000 
    241 H241        0.6994  -19.7086  -56.3302 H         1 UNK         0.0600 
    242 H242       -1.5192  -19.7258  -59.5156 H         1 UNK         0.3800 
    243 H243       -2.0090  -20.3002  -57.9411 H         1 UNK         0.3800 
    244 H244        1.1034  -17.2360  -56.5821 H         1 UNK         0.0800 
    245 H245       -0.4837  -16.9053  -55.9730 H         1 UNK         0.0800 
    246 H246       -0.9685  -16.4736  -53.7536 H         1 UNK         0.0800 
    247 H247       -0.9668  -18.0599  -53.0192 H         1 UNK         0.0800 
@<TRIPOS>BOND
     1    1    2 1    
     2    1  127 1    
     3    1  128 1    
     4    1  129 1    
     5    2    3 2    
     6    2    4 am   BACKBONE|DICT|INTERRES
     7    4    5 1    
     8    4  130 1    
     9    5    6 1    
    10    5   65 1    
    11    5  131 1    
    12    6    7 1    
    13    6  132 1    
    14    6  133 1    
    15    7    8 1    
    16    8    9 1    
    17    8  134 1    
    18    8  135 1    
    19    9   10 ar   
    20    9   14 ar   
    21   10   11 ar   
    22   10  136 1    
    23   11   12 ar   
    24   11  126 1    
    25   12   13 ar   
    26   12  137 1    
    27   13   14 ar   
    28   13   15 1    
    29   14  138 1    
    30   15   16 1    
    31   15  139 1    
    32   15  140 1    
    33   16   17 1    
    34   17   18 1    
    35   17  141 1    
    36   17  142 1    
    37   18   19 1    
    38   18   67 1    
    39   18  143 1    
    40   19   20 am   BACKBONE|DICT|INTERRES
    41   19  144 1    
    42   20   21 2    
    43   20   22 1    
    44   22   23 1    
    45   22   24 1    
    46   22  145 1    
    47   23  146 1    
    48   23  147 1    
    49   23  148 1    
    50   24   25 am   BACKBONE|DICT|INTERRES
    51   24  149 1    
    52   25   26 2    
    53   25   27 1    
    54   27   28 1    
    55   27   29 1    
    56   27  150 1    
    57   28  151 1    
    58   28  152 1    
    59   28  153 1    
    60   29   30 am   BACKBONE|DICT|INTERRES
    61   29  154 1    
    62   30   31 2    
    63   30   32 1    
    64   32   33 1    
    65   32   34 1    
    66   32  155 1    
    67   33  156 1    
    68   33  157 1    
    69   33  158 1    
    70   34   35 am   BACKBONE|DICT|INTERRES
    71   34  159 1    
    72   35   36 2    
    73   35   37 1    
    74   37   38 1    
    75   37   39 1    
    76   37  160 1    
    77   38  161 1    
    78   38  162 1    
    79   38  163 1    
    80   39   40 am   BACKBONE|DICT|INTERRES
    81   39  164 1    
    82   40   41 2    
    83   40   42 1    
    84   42   43 1    
    85   42   44 1    
    86   42  165 1    
    87   43  166 1    
    88   43  167 1    
    89   43  168 1    
    90   44   45 am   BACKBONE|DICT|INTERRES
    91   44  169 1    
    92   45   46 2    
    93   45   47 1    
    94   47   48 1    
    95   47   49 1    
    96   47  170 1    
    97   48  171 1    
    98   48  172 1    
    99   48  173 1    
   100   49   50 am   BACKBONE|DICT|INTERRES
   101   49  174 1    
   102   50   51 2    
   103   50   52 1    
   104   52   53 1    
   105   52   54 1    
   106   52  175 1    
   107   53  176 1    
   108   53  177 1    
   109   53  178 1    
   110   54   55 am   BACKBONE|DICT|INTERRES
   111   54  179 1    
   112   55   56 2    
   113   55   57 1    
   114   57   58 1    
   115   57   59 1    
   116   57  180 1    
   117   58  181 1    
   118   58  182 1    
   119   58  183 1    
   120   59   60 am   BACKBONE|DICT|INTERRES
   121   59  184 1    
   122   60   61 2    
   123   60   62 1    
   124   62   63 1    
   125   62   64 1    
   126   62  185 1    
   127   63  186 1    
   128   63  187 1    
   129   63  188 1    
   130   64   65 am   BACKBONE|DICT|INTERRES
   131   64  189 1    
   132   65   66 2    
   133   67   68 2    
   134   67   69 am   BACKBONE|DICT|INTERRES
   135   69   70 1    
   136   69  190 1    
   137   70   71 1    
   138   70   72 1    
   139   70  191 1    
   140   71  192 1    
   141   71  193 1    
   142   71  194 1    
   143   72   73 2    
   144   72   74 am   BACKBONE|DICT|INTERRES
   145   74   75 1    
   146   74  195 1    
   147   75   76 1    
   148   75   77 1    
   149   75  196 1    
   150   76  197 1    
   151   76  198 1    
   152   76  199 1    
   153   77   78 2    
   154   77   79 am   BACKBONE|DICT|INTERRES
   155   79   80 1    
   156   79  200 1    
   157   80   81 1    
   158   80   82 1    
   159   80  201 1    
   160   81  202 1    
   161   81  203 1    
   162   81  204 1    
   163   82   83 2    
   164   82   84 am   BACKBONE|DICT|INTERRES
   165   84   85 1    
   166   84  205 1    
   167   85   86 1    
   168   85   87 1    
   169   85  206 1    
   170   86  207 1    
   171   86  208 1    
   172   86  209 1    
   173   87   88 2    
   174   87   89 am   BACKBONE|DICT|INTERRES
   175   89   90 1    
   176   89  210 1    
   177   90   91 1    
   178   90   92 1    
   179   90  211 1    
   180   91  212 1    
   181   91  213 1    
   182   91  214 1    
   183   92   93 2    
   184   92   94 am   BACKBONE|DICT|INTERRES
   185   94   95 1    
   186   94  215 1    
   187   95   96 1    
   188   95   97 1    
   189   95  216 1    
   190   96  217 1    
   191   96  218 1    
   192   96  219 1    
   193   97   98 2    
   194   97   99 am   BACKBONE|DICT|INTERRES
   195   99  100 1    
   196   99  220 1    
   197  100  101 1    
   198  100  102 1    
   199  100  221 1    
   200  101  222 1    
   201  101  223 1    
   202  101  224 1    
   203  102  103 2    
   204  102  104 am   BACKBONE|DICT|INTERRES
   205  104  105 1    
   206  104  225 1    
   207  105  106 1    
   208  105  107 1    
   209  105  226 1    
   210  106  227 1    
   211  106  228 1    
   212  106  229 1    
   213  107  108 2    
   214  107  109 am   BACKBONE|DICT|INTERRES
   215  109  110 1    
   216  109  230 1    
   217  110  111 1    
   218  110  112 1    
   219  110  231 1    
   220  111  232 1    
   221  111  233 1    
   222  111  234 1    
   223  112  113 2    
   224  112  114 am   BACKBONE|DICT|INTERRES
   225  114  115 1    
   226  114  235 1    
   227  115  116 1    
   228  115  117 1    
   229  115  236 1    
   230  116  237 1    
   231  116  238 1    
   232  116  239 1    
   233  117  118 2    
   234  117  119 am   BACKBONE|DICT|INTERRES
   235  119  120 1    
   236  119  240 1    
   237  120  121 1    
   238  120  124 1    
   239  120  241 1    
   240  121  122 am   BACKBONE|DICT|INTERRES
   241  121  123 2    
   242  122  242 1    
   243  122  243 1    
   244  124  125 1    
   245  124  244 1    
   246  124  245 1    
   247  125  126 1    
   248  126  246 1    
   249  126  247 1    
@<TRIPOS>SUBSTRUCTURE
     1 UNK         1 GROUP             0       ****    0 ROOT    
