@<TRIPOS>MOLECULE
3R540
247   249    1
SMALL
USER_CHARGES


@<TRIPOS>ATOM
      1 CA          3.5776  -12.3901  -49.9166 C.3       0 UNK        -0.1800 
      2 C           2.6334  -12.9143  -48.8448 C.2       0 UNK         0.5000 
      3 O           3.0648  -13.6311  -47.9416 O.2       0 UNK        -0.5000 
      4 N           1.3490  -12.5462  -48.9238 N.am      1 UNK        -0.5000 
      5 CA          0.2671  -12.9798  -48.0269 C.3       1 UNK         0.1400 
      6 C6         -1.1177  -12.9336  -48.7262 C.3       23 UNK        -0.0398 
      7 S7         -1.1556  -13.9366  -50.2499 S.3       23 UNK        -0.2404 
      8 C8         -1.6922  -15.5397  -49.5840 C.3       23 UNK        -0.0205 
      9 C9         -1.1679  -16.6821  -50.4346 C.ar      23 UNK        -0.0193 
     10 C10        -1.8580  -17.0903  -51.5798 C.ar      23 UNK        -0.1150 
     11 C11        -1.3600  -18.1269  -52.3761 C.ar      23 UNK        -0.0193 
     12 C12        -0.1706  -18.7614  -52.0057 C.ar      23 UNK        -0.1150 
     13 C13         0.5292  -18.3595  -50.8651 C.ar      23 UNK        -0.0193 
     14 C14         0.0244  -17.3195  -50.0817 C.ar      23 UNK        -0.1150 
     15 C15         1.8523  -19.0201  -50.5110 C.3       23 UNK        -0.0205 
     16 S16         1.6240  -20.5985  -49.6372 S.3       23 UNK        -0.2404 
     17 C17         1.2079  -20.0442  -47.9488 C.3       23 UNK        -0.0398 
     18 CA         -0.0496  -20.7532  -47.3930 C.3       11 UNK         0.1400 
     19 N          -0.0216  -20.8572  -45.9319 N.am      11 UNK        -0.5000 
     20 C          -0.8557  -21.6229  -45.2146 C.2       10 UNK         0.5000 
     21 O          -1.7123  -22.3508  -45.7137 O.2       10 UNK        -0.5000 
     22 CA         -0.7536  -21.5209  -43.6833 C.3       10 UNK         0.1400 
     23 CB          0.4076  -22.3747  -43.1531 C.3       10 UNK        -0.1800 
     24 N          -0.6049  -20.1393  -43.2267 N.am      10 UNK        -0.5000 
     25 C          -1.5266  -19.1813  -43.4002 C.2       9 UNK         0.5000 
     26 O          -2.6270  -19.3793  -43.9143 O.2       9 UNK        -0.5000 
     27 CA         -1.1364  -17.7554  -42.9717 C.3       9 UNK         0.1400 
     28 CB         -1.2857  -17.5886  -41.4535 C.3       9 UNK        -0.1800 
     29 N           0.2247  -17.3994  -43.3762 N.am      9 UNK        -0.5000 
     30 C           0.6446  -17.3217  -44.6479 C.2       8 UNK         0.5000 
     31 O          -0.0837  -17.4924  -45.6239 O.2       8 UNK        -0.5000 
     32 CA          2.1427  -17.0645  -44.8702 C.3       8 UNK         0.1400 
     33 CB          2.4624  -15.5696  -44.7636 C.3       8 UNK        -0.1800 
     34 N           2.9692  -17.8152  -43.9269 N.am      8 UNK        -0.5000 
     35 C           3.1037  -19.1484  -43.9432 C.2       7 UNK         0.5000 
     36 O           2.5694  -19.8795  -44.7773 O.2       7 UNK        -0.5000 
     37 CA          3.9384  -19.7668  -42.8078 C.3       7 UNK         0.1400 
     38 CB          5.4395  -19.6598  -43.1150 C.3       7 UNK        -0.1800 
     39 N           3.6605  -19.1487  -41.5098 N.am      7 UNK        -0.5000 
     40 C           2.4880  -19.2427  -40.8669 C.2       6 UNK         0.5000 
     41 O           1.5249  -19.8771  -41.2943 O.2       6 UNK        -0.5000 
     42 CA          2.3547  -18.4691  -39.5431 C.3       6 UNK         0.1400 
     43 CB          2.8558  -19.3218  -38.3681 C.3       6 UNK        -0.1800 
     44 N           3.0523  -17.1805  -39.5409 N.am      6 UNK        -0.5000 
     45 C           2.7556  -16.1532  -40.3467 C.2       5 UNK         0.5000 
     46 O           1.9056  -16.2043  -41.2404 O.2       5 UNK        -0.5000 
     47 CA          3.5692  -14.8656  -40.1417 C.3       5 UNK         0.1400 
     48 CB          4.6156  -14.7084  -41.2556 C.3       5 UNK        -0.1800 
     49 N           2.6737  -13.7144  -40.1574 N.am      5 UNK        -0.5000 
     50 C           1.9643  -13.2829  -39.1031 C.2       4 UNK         0.5000 
     51 O           2.1095  -13.7157  -37.9591 O.2       4 UNK        -0.5000 
     52 CA          0.8900  -12.2076  -39.3765 C.3       4 UNK         0.1400 
     53 CB          1.4812  -10.7982  -39.2231 C.3       4 UNK        -0.1800 
     54 N           0.3232  -12.3457  -40.7174 N.am      4 UNK        -0.5000 
     55 C          -0.4473  -13.3689  -41.1059 C.2       3 UNK         0.5000 
     56 O          -1.0140  -14.1156  -40.3077 O.2       3 UNK        -0.5000 
     57 CA         -0.5800  -13.6369  -42.6242 C.3       3 UNK         0.1400 
     58 CB         -2.0464  -13.8393  -43.0403 C.3       3 UNK        -0.1800 
     59 N           0.0292  -12.6483  -43.5251 N.am      3 UNK        -0.5000 
     60 C           1.3261  -12.3298  -43.6316 C.2       2 UNK         0.5000 
     61 O           2.1949  -12.7514  -42.8677 O.2       2 UNK        -0.5000 
     62 CA          1.7039  -11.4016  -44.8014 C.3       2 UNK         0.1400 
     63 CB          3.1771  -10.9590  -44.7520 C.3       2 UNK        -0.1800 
     64 N           1.4600  -12.0608  -46.0826 N.am      2 UNK        -0.5000 
     65 C           0.2755  -12.2024  -46.6887 C.2       1 UNK         0.5000 
     66 O          -0.7716  -11.7480  -46.2227 O.2       1 UNK        -0.5000 
     67 C          -1.3624  -20.1182  -47.9010 C.2       11 UNK         0.5000 
     68 O          -1.9575  -20.6397  -48.8419 O.2       11 UNK        -0.5000 
     69 N          -1.8300  -19.0554  -47.2278 N.am      12 UNK        -0.5000 
     70 CA         -3.1104  -18.3948  -47.4929 C.3       12 UNK         0.1400 
     71 CB         -3.2343  -17.1351  -46.6197 C.3       12 UNK        -0.1800 
     72 C          -4.3254  -19.3155  -47.2708 C.2       12 UNK         0.5000 
     73 O          -5.2920  -19.2322  -48.0273 O.2       12 UNK        -0.5000 
     74 N          -4.2546  -20.1812  -46.2507 N.am      13 UNK        -0.5000 
     75 CA         -5.2643  -21.1990  -45.9634 C.3       13 UNK         0.1400 
     76 CB         -5.0627  -21.7335  -44.5372 C.3       13 UNK        -0.1800 
     77 C          -5.2485  -22.3483  -46.9889 C.2       13 UNK         0.5000 
     78 O          -6.3143  -22.8151  -47.3906 O.2       13 UNK        -0.5000 
     79 N          -4.0467  -22.7813  -47.3947 N.am      14 UNK        -0.5000 
     80 CA         -3.8326  -23.8590  -48.3614 C.3       14 UNK         0.1400 
     81 CB         -2.3849  -24.3591  -48.2536 C.3       14 UNK        -0.1800 
     82 C          -4.1480  -23.4669  -49.8160 C.2       14 UNK         0.5000 
     83 O          -4.4091  -24.3647  -50.6175 O.2       14 UNK        -0.5000 
     84 N          -4.1048  -22.1640  -50.1299 N.am      15 UNK        -0.5000 
     85 CA         -4.3159  -21.5521  -51.4446 C.3       15 UNK         0.1400 
     86 CB         -4.3446  -20.0239  -51.2864 C.3       15 UNK        -0.1800 
     87 C          -5.5866  -22.0488  -52.1613 C.2       15 UNK         0.5000 
     88 O          -6.6909  -21.6237  -51.8198 O.2       15 UNK        -0.5000 
     89 N          -5.3919  -22.9753  -53.1095 N.am      16 UNK        -0.5000 
     90 CA         -6.3877  -23.6769  -53.9337 C.3       16 UNK         0.1400 
     91 CB         -7.3033  -22.6902  -54.6881 C.3       16 UNK        -0.1800 
     92 C          -7.2114  -24.7412  -53.1797 C.2       16 UNK         0.5000 
     93 O          -7.8994  -25.5322  -53.8265 O.2       16 UNK        -0.5000 
     94 N          -7.1159  -24.7740  -51.8461 N.am      17 UNK        -0.5000 
     95 CA         -7.7250  -25.7852  -50.9871 C.3       17 UNK         0.1400 
     96 CB         -7.9100  -25.1998  -49.5792 C.3       17 UNK        -0.1800 
     97 C          -6.8719  -27.0635  -50.9284 C.2       17 UNK         0.5000 
     98 O          -7.4285  -28.1581  -50.8318 O.2       17 UNK        -0.5000 
     99 N          -5.5438  -26.9004  -50.9843 N.am      18 UNK        -0.5000 
    100 CA        -4.5667  -27.9798  -50.8811 C.3       18 UNK         0.1400 
    101 CB        -4.2062  -28.1987  -49.4011 C.3       18 UNK        -0.1800 
    102 C         -3.2976  -27.7335  -51.7144 C.2       18 UNK         0.5000 
    103 O         -2.6565  -28.7130  -52.0994 O.2       18 UNK        -0.5000 
    104 N         -2.9271  -26.4700  -51.9724 N.am      19 UNK        -0.5000 
    105 CA        -1.6654  -26.1188  -52.6258 C.3       19 UNK         0.1400 
    106 CB        -0.5386  -26.1087  -51.5724 C.3       19 UNK        -0.1800 
    107 C         -1.7487  -24.7619  -53.3410 C.2       19 UNK         0.5000 
    108 O         -2.7318  -24.0318  -53.1871 O.2       19 UNK        -0.5000 
    109 N         -0.6822  -24.4534  -54.0931 N.am      20 UNK        -0.5000 
    110 CA        -0.3193  -23.1917  -54.7548 C.3       20 UNK         0.1400 
    111 CB        -0.1184  -22.0710  -53.7203 C.3       20 UNK        -0.1800 
    112 C         -1.2525  -22.7178  -55.8838 C.2       20 UNK         0.5000 
    113 O         -0.7641  -22.3287  -56.9457 O.2       20 UNK        -0.5000 
    114 N         -2.5637  -22.7326  -55.6256 N.am      21 UNK        -0.5000 
    115 CA        -3.6878  -22.2725  -56.4477 C.3       21 UNK         0.1400 
    116 CB        -3.7910  -23.0684  -57.7619 C.3       21 UNK        -0.1800 
    117 C         -3.7197  -20.7527  -56.7047 C.2       21 UNK         0.5000 
    118 O         -4.7607  -20.1322  -56.4898 O.2       21 UNK        -0.5000 
    119 N         -2.5951  -20.1876  -57.1609 N.am      22 UNK        -0.5000 
    120 CA        -2.4095  -18.7775  -57.5524 C.3       22 UNK         0.1400 
    121 C         -3.2518  -18.3314  -58.7906 C.2       22 UNK         0.5000 
    122 N         -3.7392  -19.2445  -59.6223 N.am      22 UNK        -0.7600 
    123 O         -3.4418  -17.1414  -59.0284 O.2       22 UNK        -0.5000 
    124 C124       -2.5266  -17.7909  -56.3552 C.3       23 UNK        -0.0398 
    125 S125       -1.1906  -18.0069  -55.1285 S.3       23 UNK        -0.2404 
    126 C126       -2.0945  -18.5446  -53.6432 C.3       23 UNK        -0.0205 
    127 H127        4.3674  -11.7929  -49.4609 H         1 UNK         0.0600 
    128 H128        3.0577  -11.7685  -50.6459 H         1 UNK         0.0600 
    129 H129        4.0403  -13.2222  -50.4473 H         1 UNK         0.0600 
    130 H130        1.0610  -11.9404  -49.6789 H         1 UNK         0.3000 
    131 H131        0.4532  -14.0226  -47.7604 H         1 UNK         0.0600 
    132 H132       -1.3765  -11.9067  -48.9894 H         1 UNK         0.0800 
    133 H133       -1.9068  -13.2825  -48.0573 H         1 UNK         0.0800 
    134 H134       -2.7813  -15.5709  -49.5280 H         1 UNK         0.0800 
    135 H135       -1.3219  -15.6524  -48.5652 H         1 UNK         0.0800 
    136 H136       -2.7731  -16.5871  -51.8586 H         1 UNK         0.1150 
    137 H137        0.2281  -19.5533  -52.6196 H         1 UNK         0.1150 
    138 H138        0.5661  -16.9933  -49.2051 H         1 UNK         0.1150 
    139 H139        2.4146  -19.2087  -51.4267 H         1 UNK         0.0800 
    140 H140        2.4721  -18.3518  -49.9110 H         1 UNK         0.0800 
    141 H141        1.1091  -18.9592  -47.8975 H         1 UNK         0.0800 
    142 H142        2.0746  -20.2886  -47.3343 H         1 UNK         0.0800 
    143 H143       -0.0365  -21.7824  -47.7592 H         1 UNK         0.0600 
    144 H144        0.6862  -20.3157  -45.4470 H         1 UNK         0.3000 
    145 H145       -1.6818  -21.9129  -43.2625 H         1 UNK         0.0600 
    146 H146        0.4287  -22.3758  -42.0632 H         1 UNK         0.0600 
    147 H147        0.3102  -23.4114  -43.4776 H         1 UNK         0.0600 
    148 H148        1.3722  -22.0086  -43.5051 H         1 UNK         0.0600 
    149 H149        0.2539  -19.9137  -42.7324 H         1 UNK         0.3000 
    150 H150       -1.8195  -17.0582  -43.4609 H         1 UNK         0.0600 
    151 H151       -2.3183  -17.7520  -41.1436 H         1 UNK         0.0600 
    152 H152       -1.0048  -16.5857  -41.1375 H         1 UNK         0.0600 
    153 H153       -0.6629  -18.2947  -40.9051 H         1 UNK         0.0600 
    154 H154        0.8858  -17.2023  -42.6308 H         1 UNK         0.3000 
    155 H155        2.3911  -17.3927  -45.8819 H         1 UNK         0.0600 
    156 H156        2.2717  -15.1989  -43.7578 H         1 UNK         0.0600 
    157 H157        1.8505  -14.9876  -45.4537 H         1 UNK         0.0600 
    158 H158        3.5060  -15.3671  -45.0044 H         1 UNK         0.0600 
    159 H159        3.3973  -17.2916  -43.1782 H         1 UNK         0.3000 
    160 H160        3.6780  -20.8254  -42.7428 H         1 UNK         0.0600 
    161 H161        5.7700  -18.6215  -43.1641 H         1 UNK         0.0600 
    162 H162        5.6752  -20.1252  -44.0731 H         1 UNK         0.0600 
    163 H163        6.0341  -20.1659  -42.3544 H         1 UNK         0.0600 
    164 H164        4.4007  -18.6074  -41.0885 H         1 UNK         0.3000 
    165 H165        1.2928  -18.2688  -39.3869 H         1 UNK         0.0600 
    166 H166        2.6780  -18.8236  -37.4148 H         1 UNK         0.0600 
    167 H167        2.3372  -20.2810  -38.3330 H         1 UNK         0.0600 
    168 H168        3.9238  -19.5286  -38.4459 H         1 UNK         0.0600 
    169 H169        3.7697  -17.0613  -38.8401 H         1 UNK         0.3000 
    170 H170        4.0893  -14.9090  -39.1824 H         1 UNK         0.0600 
    171 H171        5.3107  -15.5487  -41.2619 H         1 UNK         0.0600 
    172 H172        4.1528  -14.6563  -42.2417 H         1 UNK         0.0600 
    173 H173        5.2029  -13.8006  -41.1168 H         1 UNK         0.0600 
    174 H174        2.4634  -13.3383  -41.0784 H         1 UNK         0.3000 
    175 H175        0.0909  -12.3303  -38.6424 H         1 UNK         0.0600 
    176 H176        2.2818  -10.6167  -39.9414 H         1 UNK         0.0600 
    177 H177        0.7187  -10.0328  -39.3689 H         1 UNK         0.0600 
    178 H178        1.8969  -10.6568  -38.2246 H         1 UNK         0.0600 
    179 H179        0.7683  -11.8076  -41.4468 H         1 UNK         0.3000 
    180 H180       -0.0578  -14.5793  -42.7982 H         1 UNK         0.0600 
    181 H181       -2.6267  -12.9246  -42.9146 H         1 UNK         0.0600 
    182 H182       -2.5249  -14.6181  -42.4451 H         1 UNK         0.0600 
    183 H183       -2.1206  -14.1450  -44.0844 H         1 UNK         0.0600 
    184 H184       -0.5907  -12.2499  -44.2222 H         1 UNK         0.3000 
    185 H185        1.0811  -10.5074  -44.7319 H         1 UNK         0.0600 
    186 H186        3.4075  -10.2667  -45.5619 H         1 UNK         0.0600 
    187 H187        3.4014  -10.4482  -43.8146 H         1 UNK         0.0600 
    188 H188        3.8563  -11.8088  -44.8351 H         1 UNK         0.0600 
    189 H189        2.2579  -12.5100  -46.5210 H         1 UNK         0.3000 
    190 H190       -1.2593  -18.6510  -46.4893 H         1 UNK         0.3000 
    191 H191       -3.1100  -18.0905  -48.5414 H         1 UNK         0.0600 
    192 H192       -4.1210  -16.5611  -46.8908 H         1 UNK         0.0600 
    193 H193       -2.3737  -16.4782  -46.7314 H         1 UNK         0.0600 
    194 H194       -3.3183  -17.3847  -45.5622 H         1 UNK         0.0600 
    195 H195       -3.4594  -20.1312  -45.6224 H         1 UNK         0.3000 
    196 H196       -6.2478  -20.7264  -46.0082 H         1 UNK         0.0600 
    197 H197       -4.0895  -22.2093  -44.4166 H         1 UNK         0.0600 
    198 H198       -5.1342  -20.9311  -43.8026 H         1 UNK         0.0600 
    199 H199       -5.8236  -22.4737  -44.2869 H         1 UNK         0.0600 
    200 H200       -3.2147  -22.3867  -46.9653 H         1 UNK         0.3000 
    201 H201       -4.4938  -24.6872  -48.0983 H         1 UNK         0.0600 
    202 H202       -2.1581  -24.6977  -47.2426 H         1 UNK         0.0600 
    203 H203       -1.6704  -23.5775  -48.5145 H         1 UNK         0.0600 
    204 H204       -2.2125  -25.2022  -48.9232 H         1 UNK         0.0600 
    205 H205       -3.7897  -21.5304  -49.4050 H         1 UNK         0.3000 
    206 H206       -3.4482  -21.7975  -52.0581 H         1 UNK         0.0600 
    207 H207       -3.4053  -19.6480  -50.8817 H         1 UNK         0.0600 
    208 H208       -4.5076  -19.5355  -52.2470 H         1 UNK         0.0600 
    209 H209       -5.1473  -19.7046  -50.6221 H         1 UNK         0.0600 
    210 H210       -4.4447  -23.3404  -53.1891 H         1 UNK         0.3000 
    211 H211       -5.8098  -24.2247  -54.6793 H         1 UNK         0.0600 
    212 H212       -7.8820  -23.2081  -55.4537 H         1 UNK         0.0600 
    213 H213       -6.7326  -21.9074  -55.1865 H         1 UNK         0.0600 
    214 H214       -8.0162  -22.2066  -54.0199 H         1 UNK         0.0600 
    215 H215       -6.5004  -24.1074  -51.3993 H         1 UNK         0.3000 
    216 H216       -8.7090  -26.0480  -51.3811 H         1 UNK         0.0600 
    217 H217       -6.9555  -24.9308  -49.1257 H         1 UNK         0.0600 
    218 H218       -8.3962  -25.9183  -48.9182 H         1 UNK         0.0600 
    219 H219       -8.5320  -24.3048  -49.6018 H         1 UNK         0.0600 
    220 H220       -5.1752  -25.9538  -51.0234 H         1 UNK         0.3000 
    221 H221       -5.0092  -28.9006  -51.2672 H         1 UNK         0.0600 
    222 H222       -5.0822  -28.4851  -48.8190 H         1 UNK         0.0600 
    223 H223       -3.7878  -27.2960  -48.9545 H         1 UNK         0.0600 
    224 H224       -3.4687  -28.9945  -49.2894 H         1 UNK         0.0600 
    225 H225       -3.4801  -25.6798  -51.6524 H         1 UNK         0.3000 
    226 H226       -1.4362  -26.8645  -53.3901 H         1 UNK         0.0600 
    227 H227       -0.7024  -25.3347  -50.8220 H         1 UNK         0.0600 
    228 H228       -0.4663  -27.0653  -51.0547 H         1 UNK         0.0600 
    229 H229        0.4341  -25.9207  -52.0277 H         1 UNK         0.0600 
    230 H230        0.0287  -25.1667  -54.1763 H         1 UNK         0.3000 
    231 H231        0.6503  -23.3772  -55.2197 H         1 UNK         0.0600 
    232 H232       -1.0387  -21.8366  -53.1844 H         1 UNK         0.0600 
    233 H233        0.2182  -21.1578  -54.2122 H         1 UNK         0.0600 
    234 H234        0.6374  -22.3420  -52.9831 H         1 UNK         0.0600 
    235 H235       -2.8125  -23.0964  -54.7091 H         1 UNK         0.3000 
    236 H236       -4.5784  -22.5025  -55.8668 H         1 UNK         0.0600 
    237 H237       -3.8558  -24.1390  -57.5676 H         1 UNK         0.0600 
    238 H238       -4.6856  -22.7850  -58.3178 H         1 UNK         0.0600 
    239 H239       -2.9345  -22.8980  -58.4144 H         1 UNK         0.0600 
    240 H240       -1.7901  -20.7964  -57.2831 H         1 UNK         0.3000 
    241 H241       -1.3811  -18.7177  -57.9101 H         1 UNK         0.0600 
    242 H242       -4.2718  -18.9493  -60.4257 H         1 UNK         0.3800 
    243 H243       -3.5780  -20.2252  -59.4597 H         1 UNK         0.3800 
    244 H244       -3.5060  -17.8689  -55.8833 H         1 UNK         0.0800 
    245 H245       -2.4490  -16.7585  -56.6991 H         1 UNK         0.0800 
    246 H246       -3.0976  -18.1169  -53.6458 H         1 UNK         0.0800 
    247 H247       -2.2178  -19.6281  -53.6661 H         1 UNK         0.0800 
@<TRIPOS>BOND
     1    1    2 1    
     2    1  127 1    
     3    1  128 1    
     4    1  129 1    
     5    2    3 2    
     6    2    4 am   BACKBONE|DICT|INTERRES
     7    4    5 1    
     8    4  130 1    
     9    5    6 1    
    10    5   65 1    
    11    5  131 1    
    12    6    7 1    
    13    6  132 1    
    14    6  133 1    
    15    7    8 1    
    16    8    9 1    
    17    8  134 1    
    18    8  135 1    
    19    9   10 ar   
    20    9   14 ar   
    21   10   11 ar   
    22   10  136 1    
    23   11   12 ar   
    24   11  126 1    
    25   12   13 ar   
    26   12  137 1    
    27   13   14 ar   
    28   13   15 1    
    29   14  138 1    
    30   15   16 1    
    31   15  139 1    
    32   15  140 1    
    33   16   17 1    
    34   17   18 1    
    35   17  141 1    
    36   17  142 1    
    37   18   19 1    
    38   18   67 1    
    39   18  143 1    
    40   19   20 am   BACKBONE|DICT|INTERRES
    41   19  144 1    
    42   20   21 2    
    43   20   22 1    
    44   22   23 1    
    45   22   24 1    
    46   22  145 1    
    47   23  146 1    
    48   23  147 1    
    49   23  148 1    
    50   24   25 am   BACKBONE|DICT|INTERRES
    51   24  149 1    
    52   25   26 2    
    53   25   27 1    
    54   27   28 1    
    55   27   29 1    
    56   27  150 1    
    57   28  151 1    
    58   28  152 1    
    59   28  153 1    
    60   29   30 am   BACKBONE|DICT|INTERRES
    61   29  154 1    
    62   30   31 2    
    63   30   32 1    
    64   32   33 1    
    65   32   34 1    
    66   32  155 1    
    67   33  156 1    
    68   33  157 1    
    69   33  158 1    
    70   34   35 am   BACKBONE|DICT|INTERRES
    71   34  159 1    
    72   35   36 2    
    73   35   37 1    
    74   37   38 1    
    75   37   39 1    
    76   37  160 1    
    77   38  161 1    
    78   38  162 1    
    79   38  163 1    
    80   39   40 am   BACKBONE|DICT|INTERRES
    81   39  164 1    
    82   40   41 2    
    83   40   42 1    
    84   42   43 1    
    85   42   44 1    
    86   42  165 1    
    87   43  166 1    
    88   43  167 1    
    89   43  168 1    
    90   44   45 am   BACKBONE|DICT|INTERRES
    91   44  169 1    
    92   45   46 2    
    93   45   47 1    
    94   47   48 1    
    95   47   49 1    
    96   47  170 1    
    97   48  171 1    
    98   48  172 1    
    99   48  173 1    
   100   49   50 am   BACKBONE|DICT|INTERRES
   101   49  174 1    
   102   50   51 2    
   103   50   52 1    
   104   52   53 1    
   105   52   54 1    
   106   52  175 1    
   107   53  176 1    
   108   53  177 1    
   109   53  178 1    
   110   54   55 am   BACKBONE|DICT|INTERRES
   111   54  179 1    
   112   55   56 2    
   113   55   57 1    
   114   57   58 1    
   115   57   59 1    
   116   57  180 1    
   117   58  181 1    
   118   58  182 1    
   119   58  183 1    
   120   59   60 am   BACKBONE|DICT|INTERRES
   121   59  184 1    
   122   60   61 2    
   123   60   62 1    
   124   62   63 1    
   125   62   64 1    
   126   62  185 1    
   127   63  186 1    
   128   63  187 1    
   129   63  188 1    
   130   64   65 am   BACKBONE|DICT|INTERRES
   131   64  189 1    
   132   65   66 2    
   133   67   68 2    
   134   67   69 am   BACKBONE|DICT|INTERRES
   135   69   70 1    
   136   69  190 1    
   137   70   71 1    
   138   70   72 1    
   139   70  191 1    
   140   71  192 1    
   141   71  193 1    
   142   71  194 1    
   143   72   73 2    
   144   72   74 am   BACKBONE|DICT|INTERRES
   145   74   75 1    
   146   74  195 1    
   147   75   76 1    
   148   75   77 1    
   149   75  196 1    
   150   76  197 1    
   151   76  198 1    
   152   76  199 1    
   153   77   78 2    
   154   77   79 am   BACKBONE|DICT|INTERRES
   155   79   80 1    
   156   79  200 1    
   157   80   81 1    
   158   80   82 1    
   159   80  201 1    
   160   81  202 1    
   161   81  203 1    
   162   81  204 1    
   163   82   83 2    
   164   82   84 am   BACKBONE|DICT|INTERRES
   165   84   85 1    
   166   84  205 1    
   167   85   86 1    
   168   85   87 1    
   169   85  206 1    
   170   86  207 1    
   171   86  208 1    
   172   86  209 1    
   173   87   88 2    
   174   87   89 am   BACKBONE|DICT|INTERRES
   175   89   90 1    
   176   89  210 1    
   177   90   91 1    
   178   90   92 1    
   179   90  211 1    
   180   91  212 1    
   181   91  213 1    
   182   91  214 1    
   183   92   93 2    
   184   92   94 am   BACKBONE|DICT|INTERRES
   185   94   95 1    
   186   94  215 1    
   187   95   96 1    
   188   95   97 1    
   189   95  216 1    
   190   96  217 1    
   191   96  218 1    
   192   96  219 1    
   193   97   98 2    
   194   97   99 am   BACKBONE|DICT|INTERRES
   195   99  100 1    
   196   99  220 1    
   197  100  101 1    
   198  100  102 1    
   199  100  221 1    
   200  101  222 1    
   201  101  223 1    
   202  101  224 1    
   203  102  103 2    
   204  102  104 am   BACKBONE|DICT|INTERRES
   205  104  105 1    
   206  104  225 1    
   207  105  106 1    
   208  105  107 1    
   209  105  226 1    
   210  106  227 1    
   211  106  228 1    
   212  106  229 1    
   213  107  108 2    
   214  107  109 am   BACKBONE|DICT|INTERRES
   215  109  110 1    
   216  109  230 1    
   217  110  111 1    
   218  110  112 1    
   219  110  231 1    
   220  111  232 1    
   221  111  233 1    
   222  111  234 1    
   223  112  113 2    
   224  112  114 am   BACKBONE|DICT|INTERRES
   225  114  115 1    
   226  114  235 1    
   227  115  116 1    
   228  115  117 1    
   229  115  236 1    
   230  116  237 1    
   231  116  238 1    
   232  116  239 1    
   233  117  118 2    
   234  117  119 am   BACKBONE|DICT|INTERRES
   235  119  120 1    
   236  119  240 1    
   237  120  121 1    
   238  120  124 1    
   239  120  241 1    
   240  121  122 am   BACKBONE|DICT|INTERRES
   241  121  123 2    
   242  122  242 1    
   243  122  243 1    
   244  124  125 1    
   245  124  244 1    
   246  124  245 1    
   247  125  126 1    
   248  126  246 1    
   249  126  247 1    
@<TRIPOS>SUBSTRUCTURE
     1 UNK         1 GROUP             0       ****    0 ROOT    
