@<TRIPOS>MOLECULE
3R540
247   249    1
SMALL
USER_CHARGES


@<TRIPOS>ATOM
      1 CA          2.3834  -11.1137  -49.1829 C.3       0 UNK        -0.1800 
      2 C           2.5546  -12.4616  -48.4981 C.2       0 UNK         0.5000 
      3 O           3.3562  -12.5798  -47.5708 O.2       0 UNK        -0.5000 
      4 N           1.7897  -13.4720  -48.9349 N.am      1 UNK        -0.5000 
      5 CA          1.8408  -14.8638  -48.4570 C.3       1 UNK         0.1400 
      6 C6          0.9526  -15.8013  -49.3092 C.3       23 UNK        -0.0398 
      7 S7          1.5046  -15.8824  -51.0465 S.3       23 UNK        -0.2404 
      8 C8          0.0560  -16.6372  -51.8573 C.3       23 UNK        -0.0205 
      9 C9         -0.3699  -17.9472  -51.2068 C.ar      23 UNK        -0.0193 
     10 C10        -1.6633  -18.0875  -50.6942 C.ar      23 UNK        -0.1150 
     11 C11        -2.0632  -19.2836  -50.0930 C.ar      23 UNK        -0.0193 
     12 C12        -1.1534  -20.3373  -49.9951 C.ar      23 UNK        -0.1150 
     13 C13         0.1476  -20.2058  -50.4858 C.ar      23 UNK        -0.0193 
     14 C14         0.5285  -19.0143  -51.1067 C.ar      23 UNK        -0.1150 
     15 C15         1.1409  -21.3471  -50.3339 C.3       23 UNK        -0.0205 
     16 S16         2.2425  -21.1364  -48.8983 S.3       23 UNK        -0.2404 
     17 C17         1.0981  -20.9813  -47.4826 C.3       23 UNK        -0.0398 
     18 CA          0.7470  -22.3340  -46.8180 C.3       11 UNK         0.1400 
     19 N           0.5269  -22.1832  -45.3779 N.am      11 UNK        -0.5000 
     20 C           0.3816  -23.1956  -44.5127 C.2       10 UNK         0.5000 
     21 O           0.4469  -24.3811  -44.8338 O.2       10 UNK        -0.5000 
     22 CA          0.0440  -22.8158  -43.0614 C.3       10 UNK         0.1400 
     23 CB          1.3070  -22.4191  -42.2823 C.3       10 UNK        -0.1800 
     24 N          -0.9330  -21.7278  -43.0135 N.am      10 UNK        -0.5000 
     25 C          -2.2264  -21.8693  -43.3368 C.2       9 UNK         0.5000 
     26 O          -2.7430  -22.9499  -43.6219 O.2       9 UNK        -0.5000 
     27 CA         -3.0702  -20.5822  -43.3943 C.3       9 UNK         0.1400 
     28 CB         -3.6142  -20.2261  -42.0031 C.3       9 UNK        -0.1800 
     29 N          -2.3177  -19.4466  -43.9334 N.am      9 UNK        -0.5000 
     30 C          -1.9397  -19.3414  -45.2174 C.2       8 UNK         0.5000 
     31 O          -2.2177  -20.1756  -46.0743 O.2       8 UNK        -0.5000 
     32 CA         -1.0638  -18.1385  -45.6136 C.3       8 UNK         0.1400 
     33 CB         -1.9340  -16.9806  -46.1237 C.3       8 UNK        -0.1800 
     34 N          -0.2147  -17.6680  -44.5223 N.am      8 UNK        -0.5000 
     35 C           0.7443  -18.3885  -43.9251 C.2       7 UNK         0.5000 
     36 O           1.0494  -19.5301  -44.2719 O.2       7 UNK        -0.5000 
     37 CA          1.4289  -17.7599  -42.6947 C.3       7 UNK         0.1400 
     38 CB          2.8325  -17.2551  -43.0548 C.3       7 UNK        -0.1800 
     39 N           0.6628  -16.6752  -42.0643 N.am      7 UNK        -0.5000 
     40 C          -0.5408  -16.8263  -41.4873 C.2       6 UNK         0.5000 
     41 O          -1.1572  -17.8931  -41.4920 O.2       6 UNK        -0.5000 
     42 CA         -1.1565  -15.5872  -40.8131 C.3       6 UNK         0.1400 
     43 CB         -2.1887  -15.9459  -39.7275 C.3       6 UNK        -0.1800 
     44 N          -0.1114  -14.7414  -40.2391 N.am      6 UNK        -0.5000 
     45 C          -0.1083  -13.4043  -40.2524 C.2       5 UNK         0.5000 
     46 O          -1.0212  -12.7257  -40.7273 O.2       5 UNK        -0.5000 
     47 CA          1.1217  -12.6924  -39.6638 C.3       5 UNK         0.1400 
     48 CB          2.1943  -13.6346  -39.0779 C.3       5 UNK        -0.1800 
     49 N           1.7159  -11.8985  -40.7299 N.am      5 UNK        -0.5000 
     50 C           2.1846  -10.6504  -40.6200 C.2       4 UNK         0.5000 
     51 O           2.1839  -10.0161  -39.5633 O.2       4 UNK        -0.5000 
     52 CA          2.7266   -9.9929  -41.9115 C.3       4 UNK         0.1400 
     53 CB          3.8649   -8.9871  -41.6380 C.3       4 UNK        -0.1800 
     54 N           3.1110  -10.9582  -42.9511 N.am      4 UNK        -0.5000 
     55 C           4.0821  -11.8834  -42.8879 C.2       3 UNK         0.5000 
     56 O           4.8679  -11.9913  -41.9452 O.2       3 UNK        -0.5000 
     57 CA          4.1572  -12.8693  -44.0750 C.3       3 UNK         0.1400 
     58 CB          4.8839  -14.1800  -43.7104 C.3       3 UNK        -0.1800 
     59 N           2.8499  -13.1627  -44.6792 N.am      3 UNK        -0.5000 
     60 C           1.7770  -13.7014  -44.0756 C.2       2 UNK         0.5000 
     61 O           1.7351  -13.9925  -42.8797 O.2       2 UNK        -0.5000 
     62 CA          0.5256  -13.9547  -44.9389 C.3       2 UNK         0.1400 
     63 CB         -0.5219  -12.8594  -44.6951 C.3       2 UNK        -0.1800 
     64 N           0.8069  -14.0406  -46.3720 N.am      2 UNK        -0.5000 
     65 C           1.5011  -15.0268  -46.9592 C.2       1 UNK         0.5000 
     66 O           1.8908  -16.0291  -46.3620 O.2       1 UNK        -0.5000 
     67 C          -0.4371  -23.0409  -47.5188 C.2       11 UNK         0.5000 
     68 O          -0.2152  -23.8614  -48.4100 O.2       11 UNK        -0.5000 
     69 N          -1.6735  -22.7494  -47.0884 N.am      12 UNK        -0.5000 
     70 CA         -2.9012  -23.4021  -47.5499 C.3       12 UNK         0.1400 
     71 CB         -4.1269  -22.6757  -46.9783 C.3       12 UNK        -0.1800 
     72 C          -2.9575  -24.9013  -47.2064 C.2       12 UNK         0.5000 
     73 O          -3.4714  -25.6857  -48.0025 O.2       12 UNK        -0.5000 
     74 N          -2.4125  -25.2801  -46.0436 N.am      13 UNK        -0.5000 
     75 CA         -2.2595  -26.6775  -45.6423 C.3       13 UNK         0.1400 
     76 CB         -2.0384  -26.7552  -44.1236 C.3       13 UNK        -0.1800 
     77 C          -1.1152  -27.3701  -46.4065 C.2       13 UNK         0.5000 
     78 O          -1.2530  -28.5351  -46.7814 O.2       13 UNK        -0.5000 
     79 N          -0.0091  -26.6439  -46.6163 N.am      14 UNK        -0.5000 
     80 CA          1.2031  -27.1417  -47.2615 C.3       14 UNK         0.1400 
     81 CB          2.3714  -26.1939  -46.9498 C.3       14 UNK        -0.1800 
     82 C           1.0694  -27.3395  -48.7821 C.2       14 UNK         0.5000 
     83 O           1.5599  -28.3482  -49.2925 O.2       14 UNK        -0.5000 
     84 N           0.4534  -26.3765  -49.4829 N.am      15 UNK        -0.5000 
     85 CA          0.4419  -26.3309  -50.9473 C.3       15 UNK         0.1400 
     86 CB          1.6887  -25.5783  -51.4474 C.3       15 UNK        -0.1800 
     87 C          -0.8298  -25.7132  -51.5486 C.2       15 UNK         0.5000 
     88 O          -1.3162  -26.2383  -52.5505 O.2       15 UNK        -0.5000 
     89 N          -1.3249  -24.6091  -50.9651 N.am      16 UNK        -0.5000 
     90 CA         -2.4230  -23.7723  -51.4791 C.3       16 UNK         0.1400 
     91 CB         -3.7795  -24.5014  -51.3828 C.3       16 UNK        -0.1800 
     92 C          -2.1394  -23.2331  -52.8985 C.2       16 UNK         0.5000 
     93 O          -2.8718  -23.5316  -53.8430 O.2       16 UNK        -0.5000 
     94 N          -1.0419  -22.4756  -53.0243 N.am      17 UNK        -0.5000 
     95 CA         -0.5030  -21.9864  -54.2968 C.3       17 UNK         0.1400 
     96 CB          0.9509  -21.5389  -54.0795 C.3       17 UNK        -0.1800 
     97 C          -1.3196  -20.8606  -54.9661 C.2       17 UNK         0.5000 
     98 O          -1.0536  -20.5511  -56.1288 O.2       17 UNK        -0.5000 
     99 N          -2.2742  -20.2551  -54.2442 N.am      18 UNK        -0.5000 
    100 CA        -3.1724  -19.2177  -54.7546 C.3       18 UNK         0.1400 
    101 CB        -4.0318  -18.6746  -53.6026 C.3       18 UNK        -0.1800 
    102 C         -4.0720  -19.7453  -55.8883 C.2       18 UNK         0.5000 
    103 O         -4.8217  -20.6992  -55.6735 O.2       18 UNK        -0.5000 
    104 N         -4.0077  -19.1025  -57.0622 N.am      19 UNK        -0.5000 
    105 CA        -4.7648  -19.4779  -58.2630 C.3       19 UNK         0.1400 
    106 CB        -4.2477  -18.6628  -59.4581 C.3       19 UNK        -0.1800 
    107 C         -6.2899  -19.3080  -58.1131 C.2       19 UNK         0.5000 
    108 O         -7.0510  -20.0449  -58.7404 O.2       19 UNK        -0.5000 
    109 N         -6.7028  -18.3594  -57.2629 N.am      20 UNK        -0.5000 
    110 CA        -8.0959  -18.1058  -56.8886 C.3       20 UNK         0.1400 
    111 CB        -8.2343  -16.6150  -56.5356 C.3       20 UNK        -0.1800 
    112 C         -8.5800  -18.9919  -55.7188 C.2       20 UNK         0.5000 
    113 O         -9.7361  -18.8582  -55.3147 O.2       20 UNK        -0.5000 
    114 N         -7.6934  -19.8550  -55.1959 N.am      21 UNK        -0.5000 
    115 CA        -7.7992  -20.6696  -53.9807 C.3       21 UNK         0.1400 
    116 CB        -9.0639  -21.5524  -53.9785 C.3       21 UNK        -0.1800 
    117 C         -7.6812  -19.8304  -52.6930 C.2       21 UNK         0.5000 
    118 O         -7.9079  -18.6181  -52.6987 O.2       21 UNK        -0.5000 
    119 N         -7.3010  -20.5036  -51.6028 N.am      22 UNK        -0.5000 
    120 CA        -7.0729  -19.8939  -50.2807 C.3       22 UNK         0.1400 
    121 C         -8.3637  -19.6971  -49.4315 C.2       22 UNK         0.5000 
    122 N         -9.5280  -20.1654  -49.8645 N.am      22 UNK        -0.7600 
    123 O         -8.3101  -19.0976  -48.3613 O.2       22 UNK        -0.5000 
    124 C124       -5.9901  -20.6613  -49.4806 C.3       23 UNK        -0.0398 
    125 S125       -4.3976  -20.7454  -50.3680 S.3       23 UNK        -0.2404 
    126 C126       -3.4634  -19.4344  -49.5202 C.3       23 UNK        -0.0205 
    127 H127        1.6349  -11.1530  -49.9747 H         1 UNK         0.0600 
    128 H128        3.3281  -10.7953  -49.6234 H         1 UNK         0.0600 
    129 H129        2.0732  -10.3613  -48.4578 H         1 UNK         0.0600 
    130 H130        1.1576  -13.3074  -49.7057 H         1 UNK         0.3000 
    131 H131        2.8756  -15.1956  -48.5659 H         1 UNK         0.0600 
    132 H132        0.9746  -16.8185  -48.9119 H         1 UNK         0.0800 
    133 H133       -0.0898  -15.4794  -49.2761 H         1 UNK         0.0800 
    134 H134       -0.7635  -15.9169  -51.8526 H         1 UNK         0.0800 
    135 H135        0.2941  -16.8246  -52.9051 H         1 UNK         0.0800 
    136 H136       -2.3600  -17.2639  -50.7622 H         1 UNK         0.1150 
    137 H137       -1.4603  -21.2523  -49.5127 H         1 UNK         0.1150 
    138 H138        1.5336  -18.9064  -51.4897 H         1 UNK         0.1150 
    139 H139        0.6240  -22.3023  -50.2631 H         1 UNK         0.0800 
    140 H140        1.7632  -21.4114  -51.2268 H         1 UNK         0.0800 
    141 H141        0.2090  -20.4084  -47.7394 H         1 UNK         0.0800 
    142 H142        1.6298  -20.3538  -46.7662 H         1 UNK         0.0800 
    143 H143        1.6130  -22.9905  -46.9166 H         1 UNK         0.0600 
    144 H144        0.5153  -21.2345  -45.0145 H         1 UNK         0.3000 
    145 H145       -0.3899  -23.6936  -42.5773 H         1 UNK         0.0600 
    146 H146        2.0304  -23.2354  -42.2761 H         1 UNK         0.0600 
    147 H147        1.8003  -21.5498  -42.7174 H         1 UNK         0.0600 
    148 H148        1.0718  -22.1858  -41.2438 H         1 UNK         0.0600 
    149 H149       -0.5782  -20.8016  -42.8246 H         1 UNK         0.3000 
    150 H150       -3.9209  -20.7704  -44.0530 H         1 UNK         0.0600 
    151 H151       -4.2378  -19.3327  -42.0395 H         1 UNK         0.0600 
    152 H152       -2.8102  -20.0446  -41.2889 H         1 UNK         0.0600 
    153 H153       -4.2277  -21.0359  -41.6064 H         1 UNK         0.0600 
    154 H154       -2.0143  -18.7468  -43.2661 H         1 UNK         0.3000 
    155 H155       -0.4109  -18.4560  -46.4286 H         1 UNK         0.0600 
    156 H156       -2.5865  -16.5908  -45.3415 H         1 UNK         0.0600 
    157 H157       -2.5679  -17.3056  -46.9501 H         1 UNK         0.0600 
    158 H158       -1.3225  -16.1582  -46.4933 H         1 UNK         0.0600 
    159 H159       -0.4082  -16.7495  -44.1584 H         1 UNK         0.3000 
    160 H160        1.5389  -18.5543  -41.9536 H         1 UNK         0.0600 
    161 H161        3.4483  -18.0640  -43.4500 H         1 UNK         0.0600 
    162 H162        2.7963  -16.4750  -43.8145 H         1 UNK         0.0600 
    163 H163        3.3451  -16.8531  -42.1809 H         1 UNK         0.0600 
    164 H164        1.0888  -15.7535  -42.0789 H         1 UNK         0.3000 
    165 H165       -1.6717  -15.0447  -41.6084 H         1 UNK         0.0600 
    166 H166       -2.6292  -15.0494  -39.2911 H         1 UNK         0.0600 
    167 H167       -3.0065  -16.5381  -40.1402 H         1 UNK         0.0600 
    168 H168       -1.7360  -16.5239  -38.9211 H         1 UNK         0.0600 
    169 H169        0.6836  -15.2256  -39.8452 H         1 UNK         0.3000 
    170 H170        0.7541  -12.0428  -38.8670 H         1 UNK         0.0600 
    171 H171        3.0205  -13.0625  -38.6552 H         1 UNK         0.0600 
    172 H172        1.7884  -14.2490  -38.2734 H         1 UNK         0.0600 
    173 H173        2.6126  -14.2971  -39.8374 H         1 UNK         0.0600 
    174 H174        1.7443  -12.3583  -41.6335 H         1 UNK         0.3000 
    175 H175        1.8899   -9.4289  -42.3259 H         1 UNK         0.0600 
    176 H176        4.7116   -9.4572  -41.1375 H         1 UNK         0.0600 
    177 H177        4.2272   -8.5397  -42.5635 H         1 UNK         0.0600 
    178 H178        3.5219   -8.1726  -40.9991 H         1 UNK         0.0600 
    179 H179        2.5273  -10.9615  -43.7755 H         1 UNK         0.3000 
    180 H180        4.7431  -12.3707  -44.8484 H         1 UNK         0.0600 
    181 H181        5.9212  -13.9886  -43.4338 H         1 UNK         0.0600 
    182 H182        4.8951  -14.8736  -44.5514 H         1 UNK         0.0600 
    183 H183        4.4090  -14.6811  -42.8668 H         1 UNK         0.0600 
    184 H184        2.7941  -12.9696  -45.6748 H         1 UNK         0.3000 
    185 H185        0.0997  -14.9054  -44.6182 H         1 UNK         0.0600 
    186 H186       -1.4460  -13.0713  -45.2333 H         1 UNK         0.0600 
    187 H187       -0.7747  -12.7876  -43.6360 H         1 UNK         0.0600 
    188 H188       -0.1634  -11.8800  -45.0142 H         1 UNK         0.0600 
    189 H189        0.5253  -13.2546  -46.9397 H         1 UNK         0.3000 
    190 H190       -1.7953  -21.9872  -46.4274 H         1 UNK         0.3000 
    191 H191       -2.9375  -23.3099  -48.6343 H         1 UNK         0.0600 
    192 H192       -4.1527  -22.7209  -45.8900 H         1 UNK         0.0600 
    193 H193       -5.0513  -23.1210  -47.3479 H         1 UNK         0.0600 
    194 H194       -4.1356  -21.6266  -47.2684 H         1 UNK         0.0600 
    195 H195       -2.0217  -24.5770  -45.4309 H         1 UNK         0.3000 
    196 H196       -3.1855  -27.2095  -45.8713 H         1 UNK         0.0600 
    197 H197       -1.9731  -27.7926  -43.7935 H         1 UNK         0.0600 
    198 H198       -2.8630  -26.2919  -43.5816 H         1 UNK         0.0600 
    199 H199       -1.1180  -26.2573  -43.8191 H         1 UNK         0.0600 
    200 H200        0.0423  -25.7153  -46.2094 H         1 UNK         0.3000 
    201 H201        1.4391  -28.1132  -46.8218 H         1 UNK         0.0600 
    202 H202        2.5138  -26.0799  -45.8750 H         1 UNK         0.0600 
    203 H203        2.2086  -25.2038  -47.3747 H         1 UNK         0.0600 
    204 H204        3.3052  -26.5769  -47.3632 H         1 UNK         0.0600 
    205 H205        0.0872  -25.5656  -48.9901 H         1 UNK         0.3000 
    206 H206        0.4873  -27.3503  -51.3372 H         1 UNK         0.0600 
    207 H207        1.6909  -25.4979  -52.5354 H         1 UNK         0.0600 
    208 H208        1.7359  -24.5670  -51.0419 H         1 UNK         0.0600 
    209 H209        2.6039  -26.0959  -51.1597 H         1 UNK         0.0600 
    210 H210       -0.8691  -24.2712  -50.1225 H         1 UNK         0.3000 
    211 H211       -2.4744  -22.8993  -50.8324 H         1 UNK         0.0600 
    212 H212       -3.8113  -25.3928  -52.0094 H         1 UNK         0.0600 
    213 H213       -4.5931  -23.8488  -51.7019 H         1 UNK         0.0600 
    214 H214       -3.9970  -24.8050  -50.3614 H         1 UNK         0.0600 
    215 H215       -0.4986  -22.2667  -52.2020 H         1 UNK         0.3000 
    216 H216       -0.4914  -22.8261  -54.9950 H         1 UNK         0.0600 
    217 H217        1.0084  -20.6624  -53.4346 H         1 UNK         0.0600 
    218 H218        1.4226  -21.2743  -55.0267 H         1 UNK         0.0600 
    219 H219        1.5499  -22.3328  -53.6329 H         1 UNK         0.0600 
    220 H220       -2.4404  -20.5769  -53.3027 H         1 UNK         0.3000 
    221 H221       -2.5586  -18.3997  -55.1372 H         1 UNK         0.0600 
    222 H222       -4.6145  -19.4647  -53.1283 H         1 UNK         0.0600 
    223 H223       -3.4152  -18.2079  -52.8369 H         1 UNK         0.0600 
    224 H224       -4.7340  -17.9186  -53.9565 H         1 UNK         0.0600 
    225 H225       -3.3603  -18.3340  -57.1644 H         1 UNK         0.3000 
    226 H226       -4.5723  -20.5343  -58.4621 H         1 UNK         0.0600 
    227 H227       -3.1859  -18.8419  -59.6283 H         1 UNK         0.0600 
    228 H228       -4.7725  -18.9368  -60.3744 H         1 UNK         0.0600 
    229 H229       -4.3888  -17.5919  -59.3068 H         1 UNK         0.0600 
    230 H230       -6.0031  -17.8000  -56.7975 H         1 UNK         0.3000 
    231 H231       -8.7430  -18.3133  -57.7434 H         1 UNK         0.0600 
    232 H232       -7.6320  -16.3511  -55.6653 H         1 UNK         0.0600 
    233 H233       -7.9222  -15.9816  -57.3662 H         1 UNK         0.0600 
    234 H234       -9.2698  -16.3593  -56.3072 H         1 UNK         0.0600 
    235 H235       -6.7766  -19.8897  -55.6249 H         1 UNK         0.3000 
    236 H236       -6.9342  -21.3342  -54.0071 H         1 UNK         0.0600 
    237 H237       -9.9721  -20.9691  -53.8260 H         1 UNK         0.0600 
    238 H238       -9.1667  -22.0976  -54.9168 H         1 UNK         0.0600 
    239 H239       -9.0202  -22.2922  -53.1787 H         1 UNK         0.0600 
    240 H240       -7.1255  -21.4955  -51.6671 H         1 UNK         0.3000 
    241 H241       -6.6842  -18.8863  -50.4421 H         1 UNK         0.0600 
    242 H242      -10.3570  -20.0266  -49.3079 H         1 UNK         0.3800 
    243 H243       -9.5904  -20.6500  -50.7451 H         1 UNK         0.3800 
    244 H244       -5.8279  -20.1990  -48.5053 H         1 UNK         0.0800 
    245 H245       -6.3208  -21.6812  -49.2783 H         1 UNK         0.0800 
    246 H246       -3.3869  -19.6659  -48.4576 H         1 UNK         0.0800 
    247 H247       -4.0155  -18.4966  -49.5973 H         1 UNK         0.0800 
@<TRIPOS>BOND
     1    1    2 1    
     2    1  127 1    
     3    1  128 1    
     4    1  129 1    
     5    2    3 2    
     6    2    4 am   BACKBONE|DICT|INTERRES
     7    4    5 1    
     8    4  130 1    
     9    5    6 1    
    10    5   65 1    
    11    5  131 1    
    12    6    7 1    
    13    6  132 1    
    14    6  133 1    
    15    7    8 1    
    16    8    9 1    
    17    8  134 1    
    18    8  135 1    
    19    9   10 ar   
    20    9   14 ar   
    21   10   11 ar   
    22   10  136 1    
    23   11   12 ar   
    24   11  126 1    
    25   12   13 ar   
    26   12  137 1    
    27   13   14 ar   
    28   13   15 1    
    29   14  138 1    
    30   15   16 1    
    31   15  139 1    
    32   15  140 1    
    33   16   17 1    
    34   17   18 1    
    35   17  141 1    
    36   17  142 1    
    37   18   19 1    
    38   18   67 1    
    39   18  143 1    
    40   19   20 am   BACKBONE|DICT|INTERRES
    41   19  144 1    
    42   20   21 2    
    43   20   22 1    
    44   22   23 1    
    45   22   24 1    
    46   22  145 1    
    47   23  146 1    
    48   23  147 1    
    49   23  148 1    
    50   24   25 am   BACKBONE|DICT|INTERRES
    51   24  149 1    
    52   25   26 2    
    53   25   27 1    
    54   27   28 1    
    55   27   29 1    
    56   27  150 1    
    57   28  151 1    
    58   28  152 1    
    59   28  153 1    
    60   29   30 am   BACKBONE|DICT|INTERRES
    61   29  154 1    
    62   30   31 2    
    63   30   32 1    
    64   32   33 1    
    65   32   34 1    
    66   32  155 1    
    67   33  156 1    
    68   33  157 1    
    69   33  158 1    
    70   34   35 am   BACKBONE|DICT|INTERRES
    71   34  159 1    
    72   35   36 2    
    73   35   37 1    
    74   37   38 1    
    75   37   39 1    
    76   37  160 1    
    77   38  161 1    
    78   38  162 1    
    79   38  163 1    
    80   39   40 am   BACKBONE|DICT|INTERRES
    81   39  164 1    
    82   40   41 2    
    83   40   42 1    
    84   42   43 1    
    85   42   44 1    
    86   42  165 1    
    87   43  166 1    
    88   43  167 1    
    89   43  168 1    
    90   44   45 am   BACKBONE|DICT|INTERRES
    91   44  169 1    
    92   45   46 2    
    93   45   47 1    
    94   47   48 1    
    95   47   49 1    
    96   47  170 1    
    97   48  171 1    
    98   48  172 1    
    99   48  173 1    
   100   49   50 am   BACKBONE|DICT|INTERRES
   101   49  174 1    
   102   50   51 2    
   103   50   52 1    
   104   52   53 1    
   105   52   54 1    
   106   52  175 1    
   107   53  176 1    
   108   53  177 1    
   109   53  178 1    
   110   54   55 am   BACKBONE|DICT|INTERRES
   111   54  179 1    
   112   55   56 2    
   113   55   57 1    
   114   57   58 1    
   115   57   59 1    
   116   57  180 1    
   117   58  181 1    
   118   58  182 1    
   119   58  183 1    
   120   59   60 am   BACKBONE|DICT|INTERRES
   121   59  184 1    
   122   60   61 2    
   123   60   62 1    
   124   62   63 1    
   125   62   64 1    
   126   62  185 1    
   127   63  186 1    
   128   63  187 1    
   129   63  188 1    
   130   64   65 am   BACKBONE|DICT|INTERRES
   131   64  189 1    
   132   65   66 2    
   133   67   68 2    
   134   67   69 am   BACKBONE|DICT|INTERRES
   135   69   70 1    
   136   69  190 1    
   137   70   71 1    
   138   70   72 1    
   139   70  191 1    
   140   71  192 1    
   141   71  193 1    
   142   71  194 1    
   143   72   73 2    
   144   72   74 am   BACKBONE|DICT|INTERRES
   145   74   75 1    
   146   74  195 1    
   147   75   76 1    
   148   75   77 1    
   149   75  196 1    
   150   76  197 1    
   151   76  198 1    
   152   76  199 1    
   153   77   78 2    
   154   77   79 am   BACKBONE|DICT|INTERRES
   155   79   80 1    
   156   79  200 1    
   157   80   81 1    
   158   80   82 1    
   159   80  201 1    
   160   81  202 1    
   161   81  203 1    
   162   81  204 1    
   163   82   83 2    
   164   82   84 am   BACKBONE|DICT|INTERRES
   165   84   85 1    
   166   84  205 1    
   167   85   86 1    
   168   85   87 1    
   169   85  206 1    
   170   86  207 1    
   171   86  208 1    
   172   86  209 1    
   173   87   88 2    
   174   87   89 am   BACKBONE|DICT|INTERRES
   175   89   90 1    
   176   89  210 1    
   177   90   91 1    
   178   90   92 1    
   179   90  211 1    
   180   91  212 1    
   181   91  213 1    
   182   91  214 1    
   183   92   93 2    
   184   92   94 am   BACKBONE|DICT|INTERRES
   185   94   95 1    
   186   94  215 1    
   187   95   96 1    
   188   95   97 1    
   189   95  216 1    
   190   96  217 1    
   191   96  218 1    
   192   96  219 1    
   193   97   98 2    
   194   97   99 am   BACKBONE|DICT|INTERRES
   195   99  100 1    
   196   99  220 1    
   197  100  101 1    
   198  100  102 1    
   199  100  221 1    
   200  101  222 1    
   201  101  223 1    
   202  101  224 1    
   203  102  103 2    
   204  102  104 am   BACKBONE|DICT|INTERRES
   205  104  105 1    
   206  104  225 1    
   207  105  106 1    
   208  105  107 1    
   209  105  226 1    
   210  106  227 1    
   211  106  228 1    
   212  106  229 1    
   213  107  108 2    
   214  107  109 am   BACKBONE|DICT|INTERRES
   215  109  110 1    
   216  109  230 1    
   217  110  111 1    
   218  110  112 1    
   219  110  231 1    
   220  111  232 1    
   221  111  233 1    
   222  111  234 1    
   223  112  113 2    
   224  112  114 am   BACKBONE|DICT|INTERRES
   225  114  115 1    
   226  114  235 1    
   227  115  116 1    
   228  115  117 1    
   229  115  236 1    
   230  116  237 1    
   231  116  238 1    
   232  116  239 1    
   233  117  118 2    
   234  117  119 am   BACKBONE|DICT|INTERRES
   235  119  120 1    
   236  119  240 1    
   237  120  121 1    
   238  120  124 1    
   239  120  241 1    
   240  121  122 am   BACKBONE|DICT|INTERRES
   241  121  123 2    
   242  122  242 1    
   243  122  243 1    
   244  124  125 1    
   245  124  244 1    
   246  124  245 1    
   247  125  126 1    
   248  126  246 1    
   249  126  247 1    
@<TRIPOS>SUBSTRUCTURE
     1 UNK         1 GROUP             0       ****    0 ROOT    
