@<TRIPOS>MOLECULE
3R540
247   249    1
SMALL
USER_CHARGES


@<TRIPOS>ATOM
      1 CA          0.5713  -11.2287  -44.4380 C.3       0 UNK        -0.1800 
      2 C           1.5006  -11.3410  -45.6366 C.2       0 UNK         0.5000 
      3 O           2.6323  -10.8594  -45.5891 O.2       0 UNK        -0.5000 
      4 N           1.0298  -11.9871  -46.7105 N.am      1 UNK        -0.5000 
      5 CA          1.7523  -12.1708  -47.9778 C.3       1 UNK         0.1400 
      6 C6          0.8145  -12.6629  -49.1060 C.3       23 UNK        -0.0398 
      7 S7         -0.0581  -14.2235  -48.7224 S.3       23 UNK        -0.2404 
      8 C8          0.6144  -15.3213  -50.0114 C.3       23 UNK        -0.0205 
      9 C9         -0.0914  -16.6706  -50.0647 C.ar      23 UNK        -0.0193 
     10 C10        -1.4866  -16.7383  -50.1277 C.ar      23 UNK        -0.1150 
     11 C11        -2.1408  -17.9677  -50.2385 C.ar      23 UNK        -0.0193 
     12 C12        -1.3834  -19.1424  -50.2749 C.ar      23 UNK        -0.1150 
     13 C13         0.0131  -19.0951  -50.2060 C.ar      23 UNK        -0.0193 
     14 C14         0.6521  -17.8539  -50.1076 C.ar      23 UNK        -0.1150 
     15 C15         0.8188  -20.3887  -50.2819 C.3       23 UNK        -0.0205 
     16 S16         2.1079  -20.5591  -48.9960 S.3       23 UNK        -0.2404 
     17 C17         1.1928  -20.3122  -47.4354 C.3       23 UNK        -0.0398 
     18 CA          0.6330  -21.6205  -46.8213 C.3       11 UNK         0.1400 
     19 N           0.4125  -21.5025  -45.3769 N.am      11 UNK        -0.5000 
     20 C          -0.0103  -22.4868  -44.5692 C.2       10 UNK         0.5000 
     21 O          -0.1929  -23.6464  -44.9374 O.2       10 UNK        -0.5000 
     22 CA         -0.3447  -22.0993  -43.1175 C.3       10 UNK         0.1400 
     23 CB          0.9258  -22.0371  -42.2572 C.3       10 UNK        -0.1800 
     24 N          -1.0736  -20.8324  -43.0292 N.am      10 UNK        -0.5000 
     25 C          -2.2953  -20.6266  -43.5437 C.2       9 UNK         0.5000 
     26 O          -2.9579  -21.5034  -44.0976 O.2       9 UNK        -0.5000 
     27 CA         -2.8540  -19.1939  -43.4723 C.3       9 UNK         0.1400 
     28 CB         -3.4315  -18.8986  -42.0802 C.3       9 UNK        -0.1800 
     29 N          -1.8556  -18.1823  -43.8191 N.am      9 UNK        -0.5000 
     30 C          -1.2705  -18.0717  -45.0205 C.2       8 UNK         0.5000 
     31 O          -1.5536  -18.7811  -45.9857 O.2       8 UNK        -0.5000 
     32 CA         -0.1336  -17.0401  -45.1441 C.3       8 UNK         0.1400 
     33 CB         -0.6866  -15.6216  -45.3420 C.3       8 UNK        -0.1800 
     34 N           0.7624  -17.0614  -43.9865 N.am      8 UNK        -0.5000 
     35 C           1.5256  -18.1088  -43.6411 C.2       7 UNK         0.5000 
     36 O           1.5846  -19.1521  -44.2882 O.2       7 UNK        -0.5000 
     37 CA          2.3198  -17.9928  -42.3304 C.3       7 UNK         0.1400 
     38 CB          3.6281  -17.2164  -42.5403 C.3       7 UNK        -0.1800 
     39 N           1.5295  -17.3700  -41.2697 N.am      7 UNK        -0.5000 
     40 C           0.4640  -17.9435  -40.6915 C.2       6 UNK         0.5000 
     41 O           0.0676  -19.0771  -40.9593 O.2       6 UNK        -0.5000 
     42 CA         -0.3159  -17.0859  -39.6792 C.3       6 UNK         0.1400 
     43 CB          0.3327  -17.1633  -38.2892 C.3       6 UNK        -0.1800 
     44 N          -0.4105  -15.6859  -40.0945 N.am      6 UNK        -0.5000 
     45 C          -1.0864  -15.2582  -41.1707 C.2       5 UNK         0.5000 
     46 O          -1.7458  -15.9955  -41.9021 O.2       5 UNK        -0.5000 
     47 CA         -0.9512  -13.7648  -41.5171 C.3       5 UNK         0.1400 
     48 CB         -1.9833  -12.9304  -40.7450 C.3       5 UNK        -0.1800 
     49 N           0.3945  -13.2496  -41.2498 N.am      5 UNK        -0.5000 
     50 C           1.4878  -13.6234  -41.9250 C.2       4 UNK         0.5000 
     51 O           1.4747  -14.4261  -42.8630 O.2       4 UNK        -0.5000 
     52 CA          2.8181  -13.0242  -41.4591 C.3       4 UNK         0.1400 
     53 CB          3.4532  -13.8911  -40.3569 C.3       4 UNK        -0.1800 
     54 N           3.7018  -12.9325  -42.6135 N.am      4 UNK        -0.5000 
     55 C           4.7787  -12.1474  -42.7187 C.2       3 UNK         0.5000 
     56 O           5.1957  -11.4476  -41.7942 O.2       3 UNK        -0.5000 
     57 CA          5.4874  -12.0817  -44.0877 C.3       3 UNK         0.1400 
     58 CB          7.0073  -12.3221  -43.9745 C.3       3 UNK        -0.1800 
     59 N           4.8720  -12.9117  -45.1326 N.am      3 UNK        -0.5000 
     60 C           4.9327  -14.2416  -45.3038 C.2       2 UNK         0.5000 
     61 O           5.5585  -14.9978  -44.5617 O.2       2 UNK        -0.5000 
     62 CA          4.1338  -14.8237  -46.4919 C.3       2 UNK         0.1400 
     63 CB          3.5826  -16.2257  -46.1896 C.3       2 UNK        -0.1800 
     64 N           3.0118  -13.9587  -46.8587 N.am      2 UNK        -0.5000 
     65 C           3.0101  -13.0592  -47.8504 C.2       1 UNK         0.5000 
     66 O           3.9550  -12.8885  -48.6210 O.2       1 UNK        -0.5000 
     67 C          -0.6510  -22.0672  -47.5436 C.2       11 UNK         0.5000 
     68 O          -0.6206  -23.0492  -48.2848 O.2       11 UNK        -0.5000 
     69 N          -1.7628  -21.3658  -47.2807 N.am      12 UNK        -0.5000 
     70 CA         -3.0782  -21.6644  -47.8397 C.3       12 UNK         0.1400 
     71 CB         -4.0760  -20.5703  -47.4367 C.3       12 UNK        -0.1800 
     72 C          -3.5976  -23.0598  -47.4546 C.2       12 UNK         0.5000 
     73 O          -4.1262  -23.7585  -48.3184 O.2       12 UNK        -0.5000 
     74 N          -3.4061  -23.4580  -46.1910 N.am      13 UNK        -0.5000 
     75 CA         -3.7554  -24.7853  -45.6871 C.3       13 UNK         0.1400 
     76 CB         -3.6083  -24.8100  -44.1580 C.3       13 UNK        -0.1800 
     77 C          -2.9255  -25.9089  -46.3365 C.2       13 UNK         0.5000 
     78 O          -3.4916  -26.9305  -46.7270 O.2       13 UNK        -0.5000 
     79 N          -1.6069  -25.6997  -46.4472 N.am      14 UNK        -0.5000 
     80 CA         -0.6612  -26.6673  -47.0020 C.3       14 UNK         0.1400 
     81 CB          0.7702  -26.2574  -46.6221 C.3       14 UNK        -0.1800 
     82 C          -0.7848  -26.8333  -48.5263 C.2       14 UNK         0.5000 
     83 O          -0.7802  -27.9637  -49.0151 O.2       14 UNK        -0.5000 
     84 N          -0.8752  -25.7104  -49.2499 N.am      15 UNK        -0.5000 
     85 CA         -0.8442  -25.6686  -50.7134 C.3       15 UNK         0.1400 
     86 CB         -0.1190  -24.3856  -51.1520 C.3       15 UNK        -0.1800 
     87 C          -2.2367  -25.7584  -51.3666 C.2       15 UNK         0.5000 
     88 O          -2.3109  -25.7293  -52.5946 O.2       15 UNK        -0.5000 
     89 N          -3.3051  -25.8376  -50.5574 N.am      16 UNK        -0.5000 
     90 CA         -4.7196  -25.8388  -50.9562 C.3       16 UNK         0.1400 
     91 CB         -5.0721  -27.1028  -51.7680 C.3       16 UNK        -0.1800 
     92 C          -5.0983  -24.5274  -51.6736 C.2       16 UNK         0.5000 
     93 O          -5.5309  -24.5365  -52.8288 O.2       16 UNK        -0.5000 
     94 N          -4.8644  -23.4150  -50.9622 N.am      17 UNK        -0.5000 
     95 CA         -5.0204  -22.0227  -51.3926 C.3       17 UNK         0.1400 
     96 CB         -6.5106  -21.6593  -51.5287 C.3       17 UNK        -0.1800 
     97 C          -4.1886  -21.7013  -52.6495 C.2       17 UNK         0.5000 
     98 O          -4.6782  -21.0450  -53.5668 O.2       17 UNK        -0.5000 
     99 N          -2.9526  -22.2209  -52.6789 N.am      18 UNK        -0.5000 
    100 CA        -1.9595  -22.1918  -53.7625 C.3       18 UNK         0.1400 
    101 CB        -1.5539  -20.7508  -54.1251 C.3       18 UNK        -0.1800 
    102 C         -2.3698  -22.9924  -55.0159 C.2       18 UNK         0.5000 
    103 O         -1.5733  -23.7900  -55.5116 O.2       18 UNK        -0.5000 
    104 N         -3.5952  -22.7698  -55.4974 N.am      19 UNK        -0.5000 
    105 CA        -4.2187  -23.4215  -56.6434 C.3       19 UNK         0.1400 
    106 CB        -3.5619  -22.9519  -57.9595 C.3       19 UNK        -0.1800 
    107 C         -5.7303  -23.1430  -56.5972 C.2       19 UNK         0.5000 
    108 O         -6.2831  -22.5826  -57.5441 O.2       19 UNK        -0.5000 
    109 N         -6.3639  -23.4779  -55.4630 N.am      20 UNK        -0.5000 
    110 CA        -7.7799  -23.2823  -55.1101 C.3       20 UNK         0.1400 
    111 CB        -8.7243  -23.9491  -56.1297 C.3       20 UNK        -0.1800 
    112 C         -8.1891  -21.8191  -54.8333 C.2       20 UNK         0.5000 
    113 O         -9.1350  -21.5995  -54.0756 O.2       20 UNK        -0.5000 
    114 N         -7.4639  -20.8499  -55.3965 N.am      21 UNK        -0.5000 
    115 CA        -7.5465  -19.4289  -55.0925 C.3       21 UNK         0.1400 
    116 CB        -8.6533  -18.7639  -55.9287 C.3       21 UNK        -0.1800 
    117 C         -6.1704  -18.8175  -55.3825 C.2       21 UNK         0.5000 
    118 O         -5.6475  -19.0036  -56.4841 O.2       21 UNK        -0.5000 
    119 N         -5.6054  -18.1202  -54.3920 N.am      22 UNK        -0.5000 
    120 CA        -4.2658  -17.5122  -54.4530 C.3       22 UNK         0.1400 
    121 C         -4.2456  -16.0430  -54.9688 C.2       22 UNK         0.5000 
    122 N         -5.3832  -15.4225  -55.2583 N.am      22 UNK        -0.7600 
    123 O         -3.1767  -15.4609  -55.1324 O.2       22 UNK        -0.5000 
    124 C124       -3.4994  -17.6845  -53.1153 C.3       23 UNK        -0.0398 
    125 S125       -4.3524  -16.9936  -51.6556 S.3       23 UNK        -0.2404 
    126 C126       -3.6629  -18.0263  -50.3179 C.3       23 UNK        -0.0205 
    127 H127       -0.0797  -10.3617  -44.5473 H         1 UNK         0.0600 
    128 H128        1.1461  -11.1074  -43.5202 H         1 UNK         0.0600 
    129 H129       -0.0498  -12.1189  -44.3364 H         1 UNK         0.0600 
    130 H130        0.0944  -12.3689  -46.6909 H         1 UNK         0.3000 
    131 H131        2.1134  -11.1836  -48.2748 H         1 UNK         0.0600 
    132 H132        0.0551  -11.9034  -49.2964 H         1 UNK         0.0800 
    133 H133        1.3647  -12.7580  -50.0439 H         1 UNK         0.0800 
    134 H134        1.6840  -15.4505  -49.8375 H         1 UNK         0.0800 
    135 H135        0.5083  -14.8430  -50.9860 H         1 UNK         0.0800 
    136 H136       -2.0680  -15.8272  -50.1078 H         1 UNK         0.1150 
    137 H137       -1.8810  -20.0964  -50.3683 H         1 UNK         0.1150 
    138 H138        1.7317  -17.8119  -50.0749 H         1 UNK         0.1150 
    139 H139        0.1601  -21.2557  -50.2341 H         1 UNK         0.0800 
    140 H140        1.3004  -20.4347  -51.2593 H         1 UNK         0.0800 
    141 H141        0.4196  -19.5537  -47.5599 H         1 UNK         0.0800 
    142 H142        1.9153  -19.8721  -46.7483 H         1 UNK         0.0800 
    143 H143        1.3771  -22.4089  -46.9533 H         1 UNK         0.0600 
    144 H144        0.5956  -20.5894  -44.9680 H         1 UNK         0.3000 
    145 H145       -0.9891  -22.8798  -42.7080 H         1 UNK         0.0600 
    146 H146        0.6849  -21.8355  -41.2133 H         1 UNK         0.0600 
    147 H147        1.4648  -22.9847  -42.2895 H         1 UNK         0.0600 
    148 H148        1.6087  -21.2598  -42.5987 H         1 UNK         0.0600 
    149 H149       -0.6116  -20.0742  -42.5368 H         1 UNK         0.3000 
    150 H150       -3.6664  -19.1193  -44.1980 H         1 UNK         0.0600 
    151 H151       -4.1958  -19.6290  -41.8118 H         1 UNK         0.0600 
    152 H152       -3.8969  -17.9134  -42.0482 H         1 UNK         0.0600 
    153 H153       -2.6620  -18.9292  -41.3089 H         1 UNK         0.0600 
    154 H154       -1.6056  -17.5201  -43.0902 H         1 UNK         0.3000 
    155 H155        0.4542  -17.2987  -46.0276 H         1 UNK         0.0600 
    156 H156       -1.2778  -15.2941  -44.4874 H         1 UNK         0.0600 
    157 H157       -1.3294  -15.5762  -46.2219 H         1 UNK         0.0600 
    158 H158        0.1185  -14.9016  -45.4878 H         1 UNK         0.0600 
    159 H159        0.8105  -16.2154  -43.4283 H         1 UNK         0.3000 
    160 H160        2.5795  -19.0037  -42.0094 H         1 UNK         0.0600 
    161 H161        3.4490  -16.1861  -42.8463 H         1 UNK         0.0600 
    162 H162        4.2368  -17.6825  -43.3162 H         1 UNK         0.0600 
    163 H163        4.2260  -17.1973  -41.6293 H         1 UNK         0.0600 
    164 H164        1.7653  -16.4223  -41.0208 H         1 UNK         0.3000 
    165 H165       -1.3281  -17.4897  -39.6085 H         1 UNK         0.0600 
    166 H166       -0.2536  -16.6175  -37.5499 H         1 UNK         0.0600 
    167 H167        0.4015  -18.1974  -37.9486 H         1 UNK         0.0600 
    168 H168        1.3421  -16.7498  -38.2898 H         1 UNK         0.0600 
    169 H169        0.0989  -15.0102  -39.5450 H         1 UNK         0.3000 
    170 H170       -1.1533  -13.6526  -42.5842 H         1 UNK         0.0600 
    171 H171       -2.9962  -13.2843  -40.9417 H         1 UNK         0.0600 
    172 H172       -1.8209  -12.9813  -39.6677 H         1 UNK         0.0600 
    173 H173       -1.9434  -11.8822  -41.0421 H         1 UNK         0.0600 
    174 H174        0.4814  -12.5836  -40.4953 H         1 UNK         0.3000 
    175 H175        2.6310  -12.0196  -41.0741 H         1 UNK         0.0600 
    176 H176        3.6970  -14.8894  -40.7191 H         1 UNK         0.0600 
    177 H177        4.3726  -13.4424  -39.9811 H         1 UNK         0.0600 
    178 H178        2.7799  -14.0033  -39.5063 H         1 UNK         0.0600 
    179 H179        3.4021  -13.4734  -43.4135 H         1 UNK         0.3000 
    180 H180        5.3534  -11.0549  -44.4310 H         1 UNK         0.0600 
    181 H181        7.2360  -13.2923  -43.5334 H         1 UNK         0.0600 
    182 H182        7.4738  -11.5651  -43.3432 H         1 UNK         0.0600 
    183 H183        7.4903  -12.2714  -44.9503 H         1 UNK         0.0600 
    184 H184        4.2793  -12.3926  -45.7687 H         1 UNK         0.3000 
    185 H185        4.8282  -14.9122  -47.3297 H         1 UNK         0.0600 
    186 H186        4.3850  -16.9342  -45.9812 H         1 UNK         0.0600 
    187 H187        2.9285  -16.2017  -45.3215 H         1 UNK         0.0600 
    188 H188        3.0113  -16.6194  -47.0308 H         1 UNK         0.0600 
    189 H189        2.1922  -14.0130  -46.2717 H         1 UNK         0.3000 
    190 H190       -1.7002  -20.5501  -46.6758 H         1 UNK         0.3000 
    191 H191       -2.9730  -21.6457  -48.9248 H         1 UNK         0.0600 
    192 H192       -4.2286  -20.5429  -46.3576 H         1 UNK         0.0600 
    193 H193       -5.0479  -20.7349  -47.9036 H         1 UNK         0.0600 
    194 H194       -3.7259  -19.5857  -47.7457 H         1 UNK         0.0600 
    195 H195       -3.0112  -22.8017  -45.5226 H         1 UNK         0.3000 
    196 H196       -4.8050  -24.9673  -45.9274 H         1 UNK         0.0600 
    197 H197       -3.8813  -25.7857  -43.7544 H         1 UNK         0.0600 
    198 H198       -4.2567  -24.0700  -43.6885 H         1 UNK         0.0600 
    199 H199       -2.5843  -24.6000  -43.8479 H         1 UNK         0.0600 
    200 H200       -1.2097  -24.8425  -46.0714 H         1 UNK         0.3000 
    201 H201       -0.8632  -27.6385  -46.5452 H         1 UNK         0.0600 
    202 H202        0.8973  -26.2309  -45.5397 H         1 UNK         0.0600 
    203 H203        1.0227  -25.2700  -47.0115 H         1 UNK         0.0600 
    204 H204        1.4996  -26.9650  -47.0182 H         1 UNK         0.0600 
    205 H205       -0.8590  -24.8089  -48.7752 H         1 UNK         0.3000 
    206 H206       -0.2627  -26.5156  -51.0837 H         1 UNK         0.0600 
    207 H207        0.8449  -24.2838  -50.6527 H         1 UNK         0.0600 
    208 H208        0.0752  -24.3971  -52.2247 H         1 UNK         0.0600 
    209 H209       -0.7061  -23.4949  -50.9285 H         1 UNK         0.0600 
    210 H210       -3.1334  -25.8158  -49.5612 H         1 UNK         0.3000 
    211 H211       -5.3015  -25.8693  -50.0337 H         1 UNK         0.0600 
    212 H212       -4.5594  -27.1301  -52.7298 H         1 UNK         0.0600 
    213 H213       -6.1428  -27.1459  -51.9706 H         1 UNK         0.0600 
    214 H214       -4.8075  -28.0077  -51.2212 H         1 UNK         0.0600 
    215 H215       -4.5347  -23.5462  -50.0057 H         1 UNK         0.3000 
    216 H216       -4.6106  -21.4018  -50.5971 H         1 UNK         0.0600 
    217 H217       -6.6414  -20.6210  -51.8361 H         1 UNK         0.0600 
    218 H218       -7.0308  -21.7836  -50.5792 H         1 UNK         0.0600 
    219 H219       -7.0101  -22.2879  -52.2632 H         1 UNK         0.0600 
    220 H220       -2.6994  -22.8084  -51.8989 H         1 UNK         0.3000 
    221 H221       -1.0720  -22.6793  -53.3600 H         1 UNK         0.0600 
    222 H222       -2.3673  -20.2068  -54.6050 H         1 UNK         0.0600 
    223 H223       -1.2444  -20.1917  -53.2420 H         1 UNK         0.0600 
    224 H224       -0.7139  -20.7507  -54.8205 H         1 UNK         0.0600 
    225 H225       -4.1721  -22.0967  -54.9955 H         1 UNK         0.3000 
    226 H226       -4.0853  -24.5009  -56.5494 H         1 UNK         0.0600 
    227 H227       -2.5071  -23.2222  -58.0019 H         1 UNK         0.0600 
    228 H228       -4.0434  -23.4121  -58.8231 H         1 UNK         0.0600 
    229 H229       -3.6347  -21.8700  -58.0778 H         1 UNK         0.0600 
    230 H230       -5.8155  -23.8898  -54.7120 H         1 UNK         0.3000 
    231 H231       -7.9084  -23.8110  -54.1644 H         1 UNK         0.0600 
    232 H232       -8.4564  -24.9929  -56.2928 H         1 UNK         0.0600 
    233 H233       -8.7112  -23.4418  -57.0944 H         1 UNK         0.0600 
    234 H234       -9.7541  -23.9304  -55.7711 H         1 UNK         0.0600 
    235 H235       -6.7222  -21.1087  -56.0369 H         1 UNK         0.3000 
    236 H236       -7.7742  -19.3022  -54.0317 H         1 UNK         0.0600 
    237 H237       -8.7064  -17.6940  -55.7244 H         1 UNK         0.0600 
    238 H238       -8.4775  -18.8878  -56.9980 H         1 UNK         0.0600 
    239 H239       -9.6309  -19.1879  -55.6993 H         1 UNK         0.0600 
    240 H240       -6.0892  -18.0145  -53.5123 H         1 UNK         0.3000 
    241 H241       -3.6845  -18.0632  -55.1948 H         1 UNK         0.0600 
    242 H242       -5.3597  -14.4743  -55.5996 H         1 UNK         0.3800 
    243 H243       -6.2666  -15.8904  -55.1360 H         1 UNK         0.3800 
    244 H244       -3.3401  -18.7470  -52.9367 H         1 UNK         0.0800 
    245 H245       -2.5014  -17.2472  -53.1785 H         1 UNK         0.0800 
    246 H246       -4.0059  -19.0517  -50.4553 H         1 UNK         0.0800 
    247 H247       -4.0758  -17.6877  -49.3670 H         1 UNK         0.0800 
@<TRIPOS>BOND
     1    1    2 1    
     2    1  127 1    
     3    1  128 1    
     4    1  129 1    
     5    2    3 2    
     6    2    4 am   BACKBONE|DICT|INTERRES
     7    4    5 1    
     8    4  130 1    
     9    5    6 1    
    10    5   65 1    
    11    5  131 1    
    12    6    7 1    
    13    6  132 1    
    14    6  133 1    
    15    7    8 1    
    16    8    9 1    
    17    8  134 1    
    18    8  135 1    
    19    9   10 ar   
    20    9   14 ar   
    21   10   11 ar   
    22   10  136 1    
    23   11   12 ar   
    24   11  126 1    
    25   12   13 ar   
    26   12  137 1    
    27   13   14 ar   
    28   13   15 1    
    29   14  138 1    
    30   15   16 1    
    31   15  139 1    
    32   15  140 1    
    33   16   17 1    
    34   17   18 1    
    35   17  141 1    
    36   17  142 1    
    37   18   19 1    
    38   18   67 1    
    39   18  143 1    
    40   19   20 am   BACKBONE|DICT|INTERRES
    41   19  144 1    
    42   20   21 2    
    43   20   22 1    
    44   22   23 1    
    45   22   24 1    
    46   22  145 1    
    47   23  146 1    
    48   23  147 1    
    49   23  148 1    
    50   24   25 am   BACKBONE|DICT|INTERRES
    51   24  149 1    
    52   25   26 2    
    53   25   27 1    
    54   27   28 1    
    55   27   29 1    
    56   27  150 1    
    57   28  151 1    
    58   28  152 1    
    59   28  153 1    
    60   29   30 am   BACKBONE|DICT|INTERRES
    61   29  154 1    
    62   30   31 2    
    63   30   32 1    
    64   32   33 1    
    65   32   34 1    
    66   32  155 1    
    67   33  156 1    
    68   33  157 1    
    69   33  158 1    
    70   34   35 am   BACKBONE|DICT|INTERRES
    71   34  159 1    
    72   35   36 2    
    73   35   37 1    
    74   37   38 1    
    75   37   39 1    
    76   37  160 1    
    77   38  161 1    
    78   38  162 1    
    79   38  163 1    
    80   39   40 am   BACKBONE|DICT|INTERRES
    81   39  164 1    
    82   40   41 2    
    83   40   42 1    
    84   42   43 1    
    85   42   44 1    
    86   42  165 1    
    87   43  166 1    
    88   43  167 1    
    89   43  168 1    
    90   44   45 am   BACKBONE|DICT|INTERRES
    91   44  169 1    
    92   45   46 2    
    93   45   47 1    
    94   47   48 1    
    95   47   49 1    
    96   47  170 1    
    97   48  171 1    
    98   48  172 1    
    99   48  173 1    
   100   49   50 am   BACKBONE|DICT|INTERRES
   101   49  174 1    
   102   50   51 2    
   103   50   52 1    
   104   52   53 1    
   105   52   54 1    
   106   52  175 1    
   107   53  176 1    
   108   53  177 1    
   109   53  178 1    
   110   54   55 am   BACKBONE|DICT|INTERRES
   111   54  179 1    
   112   55   56 2    
   113   55   57 1    
   114   57   58 1    
   115   57   59 1    
   116   57  180 1    
   117   58  181 1    
   118   58  182 1    
   119   58  183 1    
   120   59   60 am   BACKBONE|DICT|INTERRES
   121   59  184 1    
   122   60   61 2    
   123   60   62 1    
   124   62   63 1    
   125   62   64 1    
   126   62  185 1    
   127   63  186 1    
   128   63  187 1    
   129   63  188 1    
   130   64   65 am   BACKBONE|DICT|INTERRES
   131   64  189 1    
   132   65   66 2    
   133   67   68 2    
   134   67   69 am   BACKBONE|DICT|INTERRES
   135   69   70 1    
   136   69  190 1    
   137   70   71 1    
   138   70   72 1    
   139   70  191 1    
   140   71  192 1    
   141   71  193 1    
   142   71  194 1    
   143   72   73 2    
   144   72   74 am   BACKBONE|DICT|INTERRES
   145   74   75 1    
   146   74  195 1    
   147   75   76 1    
   148   75   77 1    
   149   75  196 1    
   150   76  197 1    
   151   76  198 1    
   152   76  199 1    
   153   77   78 2    
   154   77   79 am   BACKBONE|DICT|INTERRES
   155   79   80 1    
   156   79  200 1    
   157   80   81 1    
   158   80   82 1    
   159   80  201 1    
   160   81  202 1    
   161   81  203 1    
   162   81  204 1    
   163   82   83 2    
   164   82   84 am   BACKBONE|DICT|INTERRES
   165   84   85 1    
   166   84  205 1    
   167   85   86 1    
   168   85   87 1    
   169   85  206 1    
   170   86  207 1    
   171   86  208 1    
   172   86  209 1    
   173   87   88 2    
   174   87   89 am   BACKBONE|DICT|INTERRES
   175   89   90 1    
   176   89  210 1    
   177   90   91 1    
   178   90   92 1    
   179   90  211 1    
   180   91  212 1    
   181   91  213 1    
   182   91  214 1    
   183   92   93 2    
   184   92   94 am   BACKBONE|DICT|INTERRES
   185   94   95 1    
   186   94  215 1    
   187   95   96 1    
   188   95   97 1    
   189   95  216 1    
   190   96  217 1    
   191   96  218 1    
   192   96  219 1    
   193   97   98 2    
   194   97   99 am   BACKBONE|DICT|INTERRES
   195   99  100 1    
   196   99  220 1    
   197  100  101 1    
   198  100  102 1    
   199  100  221 1    
   200  101  222 1    
   201  101  223 1    
   202  101  224 1    
   203  102  103 2    
   204  102  104 am   BACKBONE|DICT|INTERRES
   205  104  105 1    
   206  104  225 1    
   207  105  106 1    
   208  105  107 1    
   209  105  226 1    
   210  106  227 1    
   211  106  228 1    
   212  106  229 1    
   213  107  108 2    
   214  107  109 am   BACKBONE|DICT|INTERRES
   215  109  110 1    
   216  109  230 1    
   217  110  111 1    
   218  110  112 1    
   219  110  231 1    
   220  111  232 1    
   221  111  233 1    
   222  111  234 1    
   223  112  113 2    
   224  112  114 am   BACKBONE|DICT|INTERRES
   225  114  115 1    
   226  114  235 1    
   227  115  116 1    
   228  115  117 1    
   229  115  236 1    
   230  116  237 1    
   231  116  238 1    
   232  116  239 1    
   233  117  118 2    
   234  117  119 am   BACKBONE|DICT|INTERRES
   235  119  120 1    
   236  119  240 1    
   237  120  121 1    
   238  120  124 1    
   239  120  241 1    
   240  121  122 am   BACKBONE|DICT|INTERRES
   241  121  123 2    
   242  122  242 1    
   243  122  243 1    
   244  124  125 1    
   245  124  244 1    
   246  124  245 1    
   247  125  126 1    
   248  126  246 1    
   249  126  247 1    
@<TRIPOS>SUBSTRUCTURE
     1 UNK         1 GROUP             0       ****    0 ROOT    
