@<TRIPOS>MOLECULE
3R540
247   249    1
SMALL
USER_CHARGES


@<TRIPOS>ATOM
      1 CA         -0.1788  -12.3895  -49.0001 C.3       0 UNK        -0.1800 
      2 C           1.3281  -12.5978  -49.0332 C.2       0 UNK         0.5000 
      3 O           1.9942  -12.1307  -49.9582 O.2       0 UNK        -0.5000 
      4 N           1.8669  -13.2873  -48.0211 N.am      1 UNK        -0.5000 
      5 CA          3.3066  -13.4759  -47.8186 C.3       1 UNK         0.1400 
      6 C6          3.6279  -14.7662  -47.0158 C.3       23 UNK        -0.0398 
      7 S7          2.8848  -16.2713  -47.7172 S.3       23 UNK        -0.2404 
      8 C8          4.1566  -16.8641  -48.8699 C.3       23 UNK        -0.0205 
      9 C9          3.6637  -18.1171  -49.5772 C.ar      23 UNK        -0.0193 
     10 C10         2.9012  -18.0124  -50.7449 C.ar      23 UNK        -0.1150 
     11 C11         2.3977  -19.1592  -51.3659 C.ar      23 UNK        -0.0193 
     12 C12         2.6613  -20.4136  -50.8119 C.ar      23 UNK        -0.1150 
     13 C13         3.4114  -20.5338  -49.6408 C.ar      23 UNK        -0.0193 
     14 C14         3.9292  -19.3804  -49.0393 C.ar      23 UNK        -0.1150 
     15 C15         3.6180  -21.9159  -49.0291 C.3       23 UNK        -0.0205 
     16 S16         3.3304  -21.9810  -47.2286 S.3       23 UNK        -0.2404 
     17 C17         1.6984  -21.1832  -47.0375 C.3       23 UNK        -0.0398 
     18 CA          0.5744  -22.1809  -46.6686 C.3       11 UNK         0.1400 
     19 N          -0.3785  -21.6034  -45.7166 N.am      11 UNK        -0.5000 
     20 C          -1.2972  -22.3058  -45.0414 C.2       10 UNK         0.5000 
     21 O          -1.4146  -23.5285  -45.1294 O.2       10 UNK        -0.5000 
     22 CA         -2.2684  -21.5082  -44.1496 C.3       10 UNK         0.1400 
     23 CB         -1.6166  -21.1565  -42.8042 C.3       10 UNK        -0.1800 
     24 N          -2.7566  -20.2863  -44.7922 N.am      10 UNK        -0.5000 
     25 C          -3.5435  -20.2676  -45.8780 C.2       9 UNK         0.5000 
     26 O          -3.9669  -21.2824  -46.4295 O.2       9 UNK        -0.5000 
     27 CA         -3.8667  -18.8881  -46.4821 C.3       9 UNK         0.1400 
     28 CB         -4.9899  -18.1922  -45.7000 C.3       9 UNK        -0.1800 
     29 N          -2.6965  -18.0121  -46.5443 N.am      9 UNK        -0.5000 
     30 C          -1.5855  -18.2788  -47.2441 C.2       8 UNK         0.5000 
     31 O          -1.4415  -19.2741  -47.9489 O.2       8 UNK        -0.5000 
     32 CA         -0.4147  -17.2991  -47.0931 C.3       8 UNK         0.1400 
     33 CB         -0.6381  -16.0530  -47.9605 C.3       8 UNK        -0.1800 
     34 N          -0.1810  -16.9089  -45.7014 N.am      8 UNK        -0.5000 
     35 C           0.1609  -17.7605  -44.7229 C.2       7 UNK         0.5000 
     36 O           0.3414  -18.9641  -44.8937 O.2       7 UNK        -0.5000 
     37 CA          0.2490  -17.1855  -43.2999 C.3       7 UNK         0.1400 
     38 CB          1.6036  -16.5008  -43.0618 C.3       7 UNK        -0.1800 
     39 N          -0.8395  -16.2470  -43.0341 N.am      7 UNK        -0.5000 
     40 C          -2.1336  -16.5930  -42.9586 C.2       6 UNK         0.5000 
     41 O          -2.5387  -17.7542  -43.0233 O.2       6 UNK        -0.5000 
     42 CA         -3.1424  -15.4339  -42.8534 C.3       6 UNK         0.1400 
     43 CB         -3.3128  -14.9941  -41.3918 C.3       6 UNK        -0.1800 
     44 N          -2.7427  -14.2807  -43.6647 N.am      6 UNK        -0.5000 
     45 C          -2.6784  -14.2846  -45.0047 C.2       5 UNK         0.5000 
     46 O          -3.0340  -15.2387  -45.6944 O.2       5 UNK        -0.5000 
     47 CA         -2.0651  -13.0434  -45.6822 C.3       5 UNK         0.1400 
     48 CB         -3.1592  -12.0412  -46.0757 C.3       5 UNK        -0.1800 
     49 N          -1.0755  -12.3776  -44.8297 N.am      5 UNK        -0.5000 
     50 C           0.1490  -12.8588  -44.5798 C.2       4 UNK         0.5000 
     51 O           0.6303  -13.8370  -45.1604 O.2       4 UNK        -0.5000 
     52 CA          0.9174  -12.1796  -43.4347 C.3       4 UNK         0.1400 
     53 CB          0.2667  -12.5535  -42.0833 C.3       4 UNK        -0.1800 
     54 N           2.3175  -12.5987  -43.4596 N.am      4 UNK        -0.5000 
     55 C           3.2967  -12.1125  -42.6835 C.2       3 UNK         0.5000 
     56 O           3.1380  -11.2093  -41.8611 O.2       3 UNK        -0.5000 
     57 CA          4.6967  -12.7300  -42.8632 C.3       3 UNK         0.1400 
     58 CB          4.6884  -14.2439  -42.5884 C.3       3 UNK        -0.1800 
     59 N           5.2282  -12.4813  -44.2005 N.am      3 UNK        -0.5000 
     60 C           5.6155  -11.2851  -44.6691 C.2       2 UNK         0.5000 
     61 O           5.6934  -10.2683  -43.9789 O.2       2 UNK        -0.5000 
     62 CA          5.9532  -11.2092  -46.1745 C.3       2 UNK         0.1400 
     63 CB          7.4629  -11.3846  -46.3989 C.3       2 UNK        -0.1800 
     64 N           5.2285  -12.1995  -46.9801 N.am      2 UNK        -0.5000 
     65 C           3.8937  -12.2418  -47.1005 C.2       1 UNK         0.5000 
     66 O           3.1465  -11.3869  -46.6155 O.2       1 UNK        -0.5000 
     67 C          -0.1401  -22.7394  -47.9176 C.2       11 UNK         0.5000 
     68 O           0.1838  -23.8399  -48.3637 O.2       11 UNK        -0.5000 
     69 N          -1.1474  -22.0079  -48.4175 N.am      12 UNK        -0.5000 
     70 CA         -2.0425  -22.4427  -49.4873 C.3       12 UNK         0.1400 
     71 CB         -2.9560  -21.2865  -49.9209 C.3       12 UNK        -0.1800 
     72 C          -2.8786  -23.6699  -49.0925 C.2       12 UNK         0.5000 
     73 O          -3.0847  -24.5412  -49.9321 O.2       12 UNK        -0.5000 
     74 N          -3.3280  -23.7441  -47.8315 N.am      13 UNK        -0.5000 
     75 CA         -4.0567  -24.8925  -47.2879 C.3       13 UNK         0.1400 
     76 CB         -4.6269  -24.5576  -45.9012 C.3       13 UNK        -0.1800 
     77 C          -3.1803  -26.1547  -47.2302 C.2       13 UNK         0.5000 
     78 O          -3.6384  -27.2263  -47.6261 O.2       13 UNK        -0.5000 
     79 N          -1.9215  -25.9933  -46.7974 N.am      14 UNK        -0.5000 
     80 CA         -0.9027  -27.0460  -46.7889 C.3       14 UNK         0.1400 
     81 CB          0.3384  -26.5498  -46.0317 C.3       14 UNK        -0.1800 
     82 C          -0.5295  -27.5300  -48.2050 C.2       14 UNK         0.5000 
     83 O          -0.3222  -28.7273  -48.4041 O.2       14 UNK        -0.5000 
     84 N          -0.4881  -26.5983  -49.1669 N.am      15 UNK        -0.5000 
     85 CA         -0.2584  -26.8623  -50.5896 C.3       15 UNK         0.1400 
     86 CB          0.1976  -25.5569  -51.2620 C.3       15 UNK        -0.1800 
     87 C          -1.4875  -27.4400  -51.3256 C.2       15 UNK         0.5000 
     88 O          -1.3452  -27.8724  -52.4700 O.2       15 UNK        -0.5000 
     89 N          -2.6629  -27.4159  -50.6780 N.am      16 UNK        -0.5000 
     90 CA         -3.9870  -27.7745  -51.2010 C.3       16 UNK         0.1400 
     91 CB         -4.0600  -29.2734  -51.5582 C.3       16 UNK        -0.1800 
     92 C          -4.4523  -26.8503  -52.3496 C.2       16 UNK         0.5000 
     93 O          -5.1668  -27.2865  -53.2535 O.2       16 UNK        -0.5000 
     94 N          -4.0565  -25.5745  -52.2776 N.am      17 UNK        -0.5000 
     95 CA         -4.3499  -24.5116  -53.2343 C.3       17 UNK         0.1400 
     96 CB         -3.0707  -23.6821  -53.4385 C.3       17 UNK        -0.1800 
     97 C          -5.5433  -23.6746  -52.7330 C.2       17 UNK         0.5000 
     98 O          -5.4288  -22.4643  -52.5149 O.2       17 UNK        -0.5000 
     99 N          -6.6690  -24.3649  -52.4988 N.am      18 UNK        -0.5000 
    100 CA        -7.9826  -23.8519  -52.0789 C.3       18 UNK         0.1400 
    101 CB        -8.5687  -22.9439  -53.1805 C.3       18 UNK        -0.1800 
    102 C         -8.0190  -23.1488  -50.7025 C.2       18 UNK         0.5000 
    103 O         -9.0689  -22.6241  -50.3300 O.2       18 UNK        -0.5000 
    104 N         -6.8838  -23.1274  -49.9861 N.am      19 UNK        -0.5000 
    105 CA        -6.6234  -22.3745  -48.7527 C.3       19 UNK         0.1400 
    106 CB        -7.4759  -22.9154  -47.5860 C.3       19 UNK        -0.1800 
    107 C         -6.7521  -20.8457  -48.9311 C.2       19 UNK         0.5000 
    108 O         -7.0328  -20.1413  -47.9601 O.2       19 UNK        -0.5000 
    109 N         -6.5641  -20.3559  -50.1663 N.am      20 UNK        -0.5000 
    110 CA        -6.8400  -18.9651  -50.5275 C.3       20 UNK         0.1400 
    111 CB        -8.3557  -18.7778  -50.7336 C.3       20 UNK        -0.1800 
    112 C         -6.0730  -18.4640  -51.7608 C.2       20 UNK         0.5000 
    113 O         -5.9839  -17.2463  -51.9268 O.2       20 UNK        -0.5000 
    114 N         -5.5355  -19.3581  -52.6093 N.am      21 UNK        -0.5000 
    115 CA        -4.9194  -18.9911  -53.8947 C.3       21 UNK         0.1400 
    116 CB        -4.5340  -20.2650  -54.6559 C.3       21 UNK        -0.1800 
    117 C         -3.6976  -18.0567  -53.7830 C.2       21 UNK         0.5000 
    118 O         -3.4421  -17.2784  -54.7029 O.2       21 UNK        -0.5000 
    119 N         -2.9850  -18.1416  -52.6550 N.am      22 UNK        -0.5000 
    120 CA        -1.8448  -17.2793  -52.3091 C.3       22 UNK         0.1400 
    121 C         -2.2517  -15.9252  -51.6548 C.2       22 UNK         0.5000 
    122 N         -3.5281  -15.6456  -51.4144 N.am      22 UNK        -0.7600 
    123 O         -1.3893  -15.0989  -51.3733 O.2       22 UNK        -0.5000 
    124 C124       -0.8049  -18.0384  -51.4476 C.3       23 UNK        -0.0398 
    125 S125       -0.1768  -19.5271  -52.2993 S.3       23 UNK        -0.2404 
    126 C126        1.5518  -19.0595  -52.6251 C.3       23 UNK        -0.0205 
    127 H127       -0.7023  -13.3441  -49.0420 H         1 UNK         0.0600 
    128 H128       -0.5046  -11.7917  -49.8516 H         1 UNK         0.0600 
    129 H129       -0.4693  -11.8654  -48.0899 H         1 UNK         0.0600 
    130 H130        1.2832  -13.6006  -47.2555 H         1 UNK         0.3000 
    131 H131        3.7943  -13.5561  -48.7924 H         1 UNK         0.0600 
    132 H132        4.7044  -14.9240  -46.9352 H         1 UNK         0.0800 
    133 H133        3.2555  -14.6788  -45.9937 H         1 UNK         0.0800 
    134 H134        4.3853  -16.0849  -49.5985 H         1 UNK         0.0800 
    135 H135        5.0798  -17.0715  -48.3269 H         1 UNK         0.0800 
    136 H136        2.6846  -17.0366  -51.1567 H         1 UNK         0.1150 
    137 H137        2.2548  -21.2967  -51.2851 H         1 UNK         0.1150 
    138 H138        4.5052  -19.4623  -48.1283 H         1 UNK         0.1150 
    139 H139        2.9580  -22.6463  -49.5007 H         1 UNK         0.0800 
    140 H140        4.6378  -22.2425  -49.2356 H         1 UNK         0.0800 
    141 H141        1.4308  -20.5771  -47.9042 H         1 UNK         0.0800 
    142 H142        1.8422  -20.4665  -46.2305 H         1 UNK         0.0800 
    143 H143        1.0282  -23.0321  -46.1560 H         1 UNK         0.0600 
    144 H144       -0.3067  -20.6025  -45.5501 H         1 UNK         0.3000 
    145 H145       -3.1313  -22.1467  -43.9492 H         1 UNK         0.0600 
    146 H146       -2.3233  -20.6527  -42.1444 H         1 UNK         0.0600 
    147 H147       -1.2737  -22.0552  -42.2901 H         1 UNK         0.0600 
    148 H148       -0.7546  -20.5013  -42.9309 H         1 UNK         0.0600 
    149 H149       -2.4693  -19.4052  -44.3809 H         1 UNK         0.3000 
    150 H150       -4.2158  -19.0474  -47.5043 H         1 UNK         0.0600 
    151 H151       -5.8855  -18.8141  -45.6707 H         1 UNK         0.0600 
    152 H152       -5.2658  -17.2462  -46.1663 H         1 UNK         0.0600 
    153 H153       -4.6987  -17.9853  -44.6702 H         1 UNK         0.0600 
    154 H154       -2.7504  -17.1346  -46.0352 H         1 UNK         0.3000 
    155 H155        0.4839  -17.8088  -47.4447 H         1 UNK         0.0600 
    156 H156       -0.5126  -16.2941  -49.0150 H         1 UNK         0.0600 
    157 H157        0.0802  -15.2738  -47.7200 H         1 UNK         0.0600 
    158 H158       -1.6363  -15.6335  -47.8410 H         1 UNK         0.0600 
    159 H159       -0.2777  -15.9278  -45.4792 H         1 UNK         0.3000 
    160 H160        0.1596  -18.0153  -42.5954 H         1 UNK         0.0600 
    161 H161        2.4222  -17.2110  -43.1846 H         1 UNK         0.0600 
    162 H162        1.6729  -16.0967  -42.0518 H         1 UNK         0.0600 
    163 H163        1.7763  -15.6855  -43.7626 H         1 UNK         0.0600 
    164 H164       -0.5979  -15.2699  -42.9956 H         1 UNK         0.3000 
    165 H165       -4.1060  -15.7940  -43.2200 H         1 UNK         0.0600 
    166 H166       -4.0749  -14.2202  -41.2996 H         1 UNK         0.0600 
    167 H167       -3.6249  -15.8320  -40.7669 H         1 UNK         0.0600 
    168 H168       -2.3837  -14.6023  -40.9756 H         1 UNK         0.0600 
    169 H169       -2.4622  -13.4493  -43.1682 H         1 UNK         0.3000 
    170 H170       -1.5705  -13.3836  -46.5931 H         1 UNK         0.0600 
    171 H171       -3.8973  -12.5074  -46.7298 H         1 UNK         0.0600 
    172 H172       -3.6890  -11.6574  -45.2030 H         1 UNK         0.0600 
    173 H173       -2.7393  -11.1920  -46.6151 H         1 UNK         0.0600 
    174 H174       -1.3912  -11.5565  -44.3331 H         1 UNK         0.3000 
    175 H175        0.8724  -11.0992  -43.5845 H         1 UNK         0.0600 
    176 H176        0.3605  -13.6196  -41.8742 H         1 UNK         0.0600 
    177 H177        0.7217  -12.0149  -41.2528 H         1 UNK         0.0600 
    178 H178       -0.7946  -12.3049  -42.0642 H         1 UNK         0.0600 
    179 H179        2.5165  -13.3141  -44.1450 H         1 UNK         0.3000 
    180 H180        5.3633  -12.2617  -42.1357 H         1 UNK         0.0600 
    181 H181        4.1223  -14.7947  -43.3397 H         1 UNK         0.0600 
    182 H182        4.2446  -14.4627  -41.6162 H         1 UNK         0.0600 
    183 H183        5.7022  -14.6444  -42.5783 H         1 UNK         0.0600 
    184 H184        5.2289  -13.2604  -44.8392 H         1 UNK         0.3000 
    185 H185        5.6674  -10.2154  -46.5257 H         1 UNK         0.0600 
    186 H186        8.0301  -10.6450  -45.8321 H         1 UNK         0.0600 
    187 H187        7.8053  -12.3715  -46.0849 H         1 UNK         0.0600 
    188 H188        7.7237  -11.2559  -47.4496 H         1 UNK         0.0600 
    189 H189        5.7917  -12.9118  -47.4223 H         1 UNK         0.3000 
    190 H190       -1.3188  -21.0769  -48.0417 H         1 UNK         0.3000 
    191 H191       -1.4247  -22.7212  -50.3428 H         1 UNK         0.0600 
    192 H192       -3.5604  -20.9156  -49.0938 H         1 UNK         0.0600 
    193 H193       -3.6363  -21.5977  -50.7133 H         1 UNK         0.0600 
    194 H194       -2.3724  -20.4527  -50.3068 H         1 UNK         0.0600 
    195 H195       -3.1865  -22.9542  -47.2100 H         1 UNK         0.3000 
    196 H196       -4.8962  -25.0979  -47.9555 H         1 UNK         0.0600 
    197 H197       -5.2739  -25.3603  -45.5458 H         1 UNK         0.0600 
    198 H198       -5.2222  -23.6464  -45.9232 H         1 UNK         0.0600 
    199 H199       -3.8428  -24.4208  -45.1579 H         1 UNK         0.0600 
    200 H200       -1.6412  -25.0802  -46.4535 H         1 UNK         0.3000 
    201 H201       -1.3122  -27.8998  -46.2451 H         1 UNK         0.0600 
    202 H202        0.0871  -26.2573  -45.0120 H         1 UNK         0.0600 
    203 H203        0.7950  -25.6899  -46.5218 H         1 UNK         0.0600 
    204 H204        1.0958  -27.3321  -45.9696 H         1 UNK         0.0600 
    205 H205       -0.5906  -25.6243  -48.8994 H         1 UNK         0.3000 
    206 H206        0.5492  -27.5915  -50.6798 H         1 UNK         0.0600 
    207 H207        1.0829  -25.1479  -50.7747 H         1 UNK         0.0600 
    208 H208        0.4508  -25.7224  -52.3098 H         1 UNK         0.0600 
    209 H209       -0.5835  -24.7973  -51.2313 H         1 UNK         0.0600 
    210 H210       -2.6659  -27.0189  -49.7474 H         1 UNK         0.3000 
    211 H211       -4.6848  -27.6017  -50.3805 H         1 UNK         0.0600 
    212 H212       -3.4454  -29.5161  -52.4254 H         1 UNK         0.0600 
    213 H213       -5.0832  -29.5694  -51.7918 H         1 UNK         0.0600 
    214 H214       -3.7264  -29.8929  -50.7256 H         1 UNK         0.0600 
    215 H215       -3.5479  -25.2819  -51.4432 H         1 UNK         0.3000 
    216 H216       -4.6276  -24.9426  -54.1981 H         1 UNK         0.0600 
    217 H217       -2.8052  -23.1116  -52.5481 H         1 UNK         0.0600 
    218 H218       -2.2232  -24.3215  -53.6865 H         1 UNK         0.0600 
    219 H219       -3.1929  -22.9830  -54.2641 H         1 UNK         0.0600 
    220 H220       -6.6356  -25.3609  -52.6732 H         1 UNK         0.3000 
    221 H221       -8.6314  -24.7239  -51.9871 H         1 UNK         0.0600 
    222 H222       -8.0024  -22.0179  -53.2873 H         1 UNK         0.0600 
    223 H223       -8.5720  -23.4479  -54.1469 H         1 UNK         0.0600 
    224 H224       -9.6005  -22.6696  -52.9579 H         1 UNK         0.0600 
    225 H225       -6.0798  -23.5741  -50.4036 H         1 UNK         0.3000 
    226 H226       -5.5800  -22.5453  -48.5013 H         1 UNK         0.0600 
    227 H227       -7.3490  -23.9916  -47.4703 H         1 UNK         0.0600 
    228 H228       -7.1860  -22.4512  -46.6427 H         1 UNK         0.0600 
    229 H229       -8.5376  -22.7156  -47.7304 H         1 UNK         0.0600 
    230 H230       -6.3310  -20.9983  -50.9112 H         1 UNK         0.3000 
    231 H231       -6.5228  -18.3215  -49.7038 H         1 UNK         0.0600 
    232 H232       -8.9111  -18.9880  -49.8195 H         1 UNK         0.0600 
    233 H233       -8.7359  -19.4386  -51.5137 H         1 UNK         0.0600 
    234 H234       -8.5926  -17.7534  -51.0239 H         1 UNK         0.0600 
    235 H235       -5.6131  -20.3524  -52.4356 H         1 UNK         0.3000 
    236 H236       -5.6764  -18.4645  -54.4796 H         1 UNK         0.0600 
    237 H237       -4.1317  -20.0283  -55.6417 H         1 UNK         0.0600 
    238 H238       -3.7697  -20.8204  -54.1141 H         1 UNK         0.0600 
    239 H239       -5.3936  -20.9190  -54.8032 H         1 UNK         0.0600 
    240 H240       -3.2705  -18.8115  -51.9577 H         1 UNK         0.3000 
    241 H241       -1.3400  -17.0022  -53.2366 H         1 UNK         0.0600 
    242 H242       -3.7632  -14.7578  -51.0014 H         1 UNK         0.3800 
    243 H243       -4.2715  -16.2873  -51.6691 H         1 UNK         0.3800 
    244 H244       -1.2442  -18.3422  -50.4972 H         1 UNK         0.0800 
    245 H245        0.0344  -17.3888  -51.1957 H         1 UNK         0.0800 
    246 H246        1.9612  -19.7298  -53.3821 H         1 UNK         0.0800 
    247 H247        1.5902  -18.0556  -53.0510 H         1 UNK         0.0800 
@<TRIPOS>BOND
     1    1    2 1    
     2    1  127 1    
     3    1  128 1    
     4    1  129 1    
     5    2    3 2    
     6    2    4 am   BACKBONE|DICT|INTERRES
     7    4    5 1    
     8    4  130 1    
     9    5    6 1    
    10    5   65 1    
    11    5  131 1    
    12    6    7 1    
    13    6  132 1    
    14    6  133 1    
    15    7    8 1    
    16    8    9 1    
    17    8  134 1    
    18    8  135 1    
    19    9   10 ar   
    20    9   14 ar   
    21   10   11 ar   
    22   10  136 1    
    23   11   12 ar   
    24   11  126 1    
    25   12   13 ar   
    26   12  137 1    
    27   13   14 ar   
    28   13   15 1    
    29   14  138 1    
    30   15   16 1    
    31   15  139 1    
    32   15  140 1    
    33   16   17 1    
    34   17   18 1    
    35   17  141 1    
    36   17  142 1    
    37   18   19 1    
    38   18   67 1    
    39   18  143 1    
    40   19   20 am   BACKBONE|DICT|INTERRES
    41   19  144 1    
    42   20   21 2    
    43   20   22 1    
    44   22   23 1    
    45   22   24 1    
    46   22  145 1    
    47   23  146 1    
    48   23  147 1    
    49   23  148 1    
    50   24   25 am   BACKBONE|DICT|INTERRES
    51   24  149 1    
    52   25   26 2    
    53   25   27 1    
    54   27   28 1    
    55   27   29 1    
    56   27  150 1    
    57   28  151 1    
    58   28  152 1    
    59   28  153 1    
    60   29   30 am   BACKBONE|DICT|INTERRES
    61   29  154 1    
    62   30   31 2    
    63   30   32 1    
    64   32   33 1    
    65   32   34 1    
    66   32  155 1    
    67   33  156 1    
    68   33  157 1    
    69   33  158 1    
    70   34   35 am   BACKBONE|DICT|INTERRES
    71   34  159 1    
    72   35   36 2    
    73   35   37 1    
    74   37   38 1    
    75   37   39 1    
    76   37  160 1    
    77   38  161 1    
    78   38  162 1    
    79   38  163 1    
    80   39   40 am   BACKBONE|DICT|INTERRES
    81   39  164 1    
    82   40   41 2    
    83   40   42 1    
    84   42   43 1    
    85   42   44 1    
    86   42  165 1    
    87   43  166 1    
    88   43  167 1    
    89   43  168 1    
    90   44   45 am   BACKBONE|DICT|INTERRES
    91   44  169 1    
    92   45   46 2    
    93   45   47 1    
    94   47   48 1    
    95   47   49 1    
    96   47  170 1    
    97   48  171 1    
    98   48  172 1    
    99   48  173 1    
   100   49   50 am   BACKBONE|DICT|INTERRES
   101   49  174 1    
   102   50   51 2    
   103   50   52 1    
   104   52   53 1    
   105   52   54 1    
   106   52  175 1    
   107   53  176 1    
   108   53  177 1    
   109   53  178 1    
   110   54   55 am   BACKBONE|DICT|INTERRES
   111   54  179 1    
   112   55   56 2    
   113   55   57 1    
   114   57   58 1    
   115   57   59 1    
   116   57  180 1    
   117   58  181 1    
   118   58  182 1    
   119   58  183 1    
   120   59   60 am   BACKBONE|DICT|INTERRES
   121   59  184 1    
   122   60   61 2    
   123   60   62 1    
   124   62   63 1    
   125   62   64 1    
   126   62  185 1    
   127   63  186 1    
   128   63  187 1    
   129   63  188 1    
   130   64   65 am   BACKBONE|DICT|INTERRES
   131   64  189 1    
   132   65   66 2    
   133   67   68 2    
   134   67   69 am   BACKBONE|DICT|INTERRES
   135   69   70 1    
   136   69  190 1    
   137   70   71 1    
   138   70   72 1    
   139   70  191 1    
   140   71  192 1    
   141   71  193 1    
   142   71  194 1    
   143   72   73 2    
   144   72   74 am   BACKBONE|DICT|INTERRES
   145   74   75 1    
   146   74  195 1    
   147   75   76 1    
   148   75   77 1    
   149   75  196 1    
   150   76  197 1    
   151   76  198 1    
   152   76  199 1    
   153   77   78 2    
   154   77   79 am   BACKBONE|DICT|INTERRES
   155   79   80 1    
   156   79  200 1    
   157   80   81 1    
   158   80   82 1    
   159   80  201 1    
   160   81  202 1    
   161   81  203 1    
   162   81  204 1    
   163   82   83 2    
   164   82   84 am   BACKBONE|DICT|INTERRES
   165   84   85 1    
   166   84  205 1    
   167   85   86 1    
   168   85   87 1    
   169   85  206 1    
   170   86  207 1    
   171   86  208 1    
   172   86  209 1    
   173   87   88 2    
   174   87   89 am   BACKBONE|DICT|INTERRES
   175   89   90 1    
   176   89  210 1    
   177   90   91 1    
   178   90   92 1    
   179   90  211 1    
   180   91  212 1    
   181   91  213 1    
   182   91  214 1    
   183   92   93 2    
   184   92   94 am   BACKBONE|DICT|INTERRES
   185   94   95 1    
   186   94  215 1    
   187   95   96 1    
   188   95   97 1    
   189   95  216 1    
   190   96  217 1    
   191   96  218 1    
   192   96  219 1    
   193   97   98 2    
   194   97   99 am   BACKBONE|DICT|INTERRES
   195   99  100 1    
   196   99  220 1    
   197  100  101 1    
   198  100  102 1    
   199  100  221 1    
   200  101  222 1    
   201  101  223 1    
   202  101  224 1    
   203  102  103 2    
   204  102  104 am   BACKBONE|DICT|INTERRES
   205  104  105 1    
   206  104  225 1    
   207  105  106 1    
   208  105  107 1    
   209  105  226 1    
   210  106  227 1    
   211  106  228 1    
   212  106  229 1    
   213  107  108 2    
   214  107  109 am   BACKBONE|DICT|INTERRES
   215  109  110 1    
   216  109  230 1    
   217  110  111 1    
   218  110  112 1    
   219  110  231 1    
   220  111  232 1    
   221  111  233 1    
   222  111  234 1    
   223  112  113 2    
   224  112  114 am   BACKBONE|DICT|INTERRES
   225  114  115 1    
   226  114  235 1    
   227  115  116 1    
   228  115  117 1    
   229  115  236 1    
   230  116  237 1    
   231  116  238 1    
   232  116  239 1    
   233  117  118 2    
   234  117  119 am   BACKBONE|DICT|INTERRES
   235  119  120 1    
   236  119  240 1    
   237  120  121 1    
   238  120  124 1    
   239  120  241 1    
   240  121  122 am   BACKBONE|DICT|INTERRES
   241  121  123 2    
   242  122  242 1    
   243  122  243 1    
   244  124  125 1    
   245  124  244 1    
   246  124  245 1    
   247  125  126 1    
   248  126  246 1    
   249  126  247 1    
@<TRIPOS>SUBSTRUCTURE
     1 UNK         1 GROUP             0       ****    0 ROOT    
