@<TRIPOS>MOLECULE
3R540
247   249    1
SMALL
USER_CHARGES


@<TRIPOS>ATOM
      1 CA         -0.9184   -9.1007  -47.3940 C.3       0 UNK        -0.1800 
      2 C          -1.7655  -10.3358  -47.0926 C.2       0 UNK         0.5000 
      3 O          -2.9753  -10.2078  -46.9147 O.2       0 UNK        -0.5000 
      4 N          -1.1935  -11.5467  -47.0412 N.am      1 UNK        -0.5000 
      5 CA          0.2367  -11.8573  -47.1585 C.3       1 UNK         0.1400 
      6 C6          0.4457  -13.3130  -47.6549 C.3       23 UNK        -0.0398 
      7 S7          2.0213  -13.5330  -48.5519 S.3       23 UNK        -0.2404 
      8 C8          1.4523  -13.8538  -50.2519 C.3       23 UNK        -0.0205 
      9 C9          0.8884  -15.2582  -50.4173 C.ar      23 UNK        -0.0193 
     10 C10        -0.4293  -15.4505  -50.8461 C.ar      23 UNK        -0.1150 
     11 C11        -0.9361  -16.7415  -51.0317 C.ar      23 UNK        -0.0193 
     12 C12        -0.1097  -17.8392  -50.7737 C.ar      23 UNK        -0.1150 
     13 C13         1.2041  -17.6646  -50.3300 C.ar      23 UNK        -0.0193 
     14 C14         1.6975  -16.3695  -50.1612 C.ar      23 UNK        -0.1150 
     15 C15         2.0998  -18.8670  -50.0538 C.3       23 UNK        -0.0205 
     16 S16         1.7983  -19.6030  -48.4105 S.3       23 UNK        -0.2404 
     17 C17         0.2482  -20.5064  -48.7240 C.3       23 UNK        -0.0398 
     18 CA          0.0173  -21.7356  -47.8148 C.3       11 UNK         0.1400 
     19 N           0.0877  -21.4093  -46.3917 N.am      11 UNK        -0.5000 
     20 C           0.1190  -22.3108  -45.4014 C.2       10 UNK         0.5000 
     21 O           0.1285  -23.5293  -45.5783 O.2       10 UNK        -0.5000 
     22 CA          0.0803  -21.7444  -43.9726 C.3       10 UNK         0.1400 
     23 CB          1.4854  -21.3265  -43.5137 C.3       10 UNK        -0.1800 
     24 N          -0.8380  -20.6080  -43.8715 N.am      10 UNK        -0.5000 
     25 C          -2.1722  -20.7260  -43.9565 C.2       9 UNK         0.5000 
     26 O          -2.7527  -21.8020  -44.0954 O.2       9 UNK        -0.5000 
     27 CA         -3.0009  -19.4305  -43.9279 C.3       9 UNK         0.1400 
     28 CB         -3.3808  -19.0694  -42.4855 C.3       9 UNK        -0.1800 
     29 N          -2.3267  -18.3023  -44.5748 N.am      9 UNK        -0.5000 
     30 C          -2.0555  -18.2544  -45.8884 C.2       8 UNK         0.5000 
     31 O          -2.3244  -19.1770  -46.6581 O.2       8 UNK        -0.5000 
     32 CA         -1.3308  -17.0197  -46.4542 C.3       8 UNK         0.1400 
     33 CB         -2.0681  -16.4377  -47.6741 C.3       8 UNK        -0.1800 
     34 N          -1.0001  -15.9978  -45.4560 N.am      8 UNK        -0.5000 
     35 C          -1.7979  -15.1005  -44.8582 C.2       7 UNK         0.5000 
     36 O          -2.9904  -14.9455  -45.1194 O.2       7 UNK        -0.5000 
     37 CA         -1.1190  -14.2468  -43.7641 C.3       7 UNK         0.1400 
     38 CB         -2.1196  -13.5274  -42.8367 C.3       7 UNK        -0.1800 
     39 N          -0.1284  -15.0087  -42.9930 N.am      7 UNK        -0.5000 
     40 C          -0.3719  -16.1012  -42.2511 C.2       6 UNK         0.5000 
     41 O          -1.4995  -16.5564  -42.0664 O.2       6 UNK        -0.5000 
     42 CA          0.8603  -16.8381  -41.6880 C.3       6 UNK         0.1400 
     43 CB          0.5294  -18.2375  -41.1311 C.3       6 UNK        -0.1800 
     44 N           1.9492  -16.9124  -42.6668 N.am      6 UNK        -0.5000 
     45 C           1.9158  -17.4579  -43.8937 C.2       5 UNK         0.5000 
     46 O           0.9481  -18.0815  -44.3336 O.2       5 UNK        -0.5000 
     47 CA          3.1356  -17.2161  -44.8075 C.3       5 UNK         0.1400 
     48 CB          2.7015  -16.5413  -46.1207 C.3       5 UNK        -0.1800 
     49 N           4.1340  -16.3588  -44.1655 N.am      5 UNK        -0.5000 
     50 C           5.2213  -16.7905  -43.5120 C.2       4 UNK         0.5000 
     51 O           5.5588  -17.9726  -43.4497 O.2       4 UNK        -0.5000 
     52 CA          6.0574  -15.7226  -42.7747 C.3       4 UNK         0.1400 
     53 CB          7.2115  -15.2371  -43.6649 C.3       4 UNK        -0.1800 
     54 N           5.2725  -14.5624  -42.3406 N.am      4 UNK        -0.5000 
     55 C           4.2769  -14.5932  -41.4423 C.2       3 UNK         0.5000 
     56 O           3.9442  -15.6082  -40.8325 O.2       3 UNK        -0.5000 
     57 CA          3.4715  -13.2941  -41.2386 C.3       3 UNK         0.1400 
     58 CB          3.9947  -12.5229  -40.0182 C.3       3 UNK        -0.1800 
     59 N           3.4815  -12.4100  -42.4080 N.am      3 UNK        -0.5000 
     60 C           2.9705  -12.7125  -43.6086 C.2       2 UNK         0.5000 
     61 O           2.4067  -13.7826  -43.8623 O.2       2 UNK        -0.5000 
     62 CA          3.2147  -11.6695  -44.7152 C.3       2 UNK         0.1400 
     63 CB          4.6567  -11.7866  -45.2355 C.3       2 UNK        -0.1800 
     64 N           2.3080  -11.8220  -45.8496 N.am      2 UNK        -0.5000 
     65 C           0.9959  -11.5675  -45.8389 C.2       1 UNK         0.5000 
     66 O           0.4012  -11.1200  -44.8551 O.2       1 UNK        -0.5000 
     67 C          -1.3281  -22.4086  -48.1576 C.2       11 UNK         0.5000 
     68 O          -1.3389  -23.4456  -48.8206 O.2       11 UNK        -0.5000 
     69 N          -2.4345  -21.8201  -47.6778 N.am      12 UNK        -0.5000 
     70 CA         -3.7985  -22.3193  -47.8582 C.3       12 UNK         0.1400 
     71 CB         -4.8037  -21.2860  -47.3318 C.3       12 UNK        -0.1800 
     72 C          -4.0295  -23.6937  -47.2112 C.2       12 UNK         0.5000 
     73 O          -4.7101  -24.5258  -47.8075 O.2       12 UNK        -0.5000 
     74 N          -3.4333  -23.9292  -46.0343 N.am      13 UNK        -0.5000 
     75 CA         -3.4485  -25.2248  -45.3543 C.3       13 UNK         0.1400 
     76 CB         -2.8811  -25.0714  -43.9351 C.3       13 UNK        -0.1800 
     77 C          -2.6833  -26.3134  -46.1300 C.2       13 UNK         0.5000 
     78 O          -3.1438  -27.4542  -46.1816 O.2       13 UNK        -0.5000 
     79 N          -1.5422  -25.9420  -46.7270 N.am      14 UNK        -0.5000 
     80 CA         -0.7035  -26.8316  -47.5290 C.3       14 UNK         0.1400 
     81 CB          0.6843  -26.1981  -47.7153 C.3       14 UNK        -0.1800 
     82 C          -1.3368  -27.1799  -48.8886 C.2       14 UNK         0.5000 
     83 O          -1.3595  -28.3525  -49.2647 O.2       14 UNK        -0.5000 
     84 N          -1.8348  -26.1605  -49.6011 N.am      15 UNK        -0.5000 
     85 CA         -2.4219  -26.2980  -50.9372 C.3       15 UNK         0.1400 
     86 CB         -2.3346  -24.9449  -51.6521 C.3       15 UNK        -0.1800 
     87 C          -3.8798  -26.7961  -50.9256 C.2       15 UNK         0.5000 
     88 O          -4.3621  -27.2595  -51.9588 O.2       15 UNK        -0.5000 
     89 N          -4.5526  -26.6689  -49.7735 N.am      16 UNK        -0.5000 
     90 CA         -5.9527  -27.0055  -49.4876 C.3       16 UNK         0.1400 
     91 CB         -6.2606  -28.4848  -49.8006 C.3       16 UNK        -0.1800 
     92 C          -6.9837  -26.0387  -50.1121 C.2       16 UNK         0.5000 
     93 O          -8.1845  -26.2978  -50.0129 O.2       16 UNK        -0.5000 
     94 N          -6.5230  -24.9304  -50.7044 N.am      17 UNK        -0.5000 
     95 CA         -7.3368  -23.8530  -51.2563 C.3       17 UNK         0.1400 
     96 CB         -7.9502  -24.2711  -52.6054 C.3       17 UNK        -0.1800 
     97 C          -6.4456  -22.6201  -51.4350 C.2       17 UNK         0.5000 
     98 O          -5.2938  -22.7648  -51.8492 O.2       17 UNK        -0.5000 
     99 N          -6.9939  -21.4279  -51.1673 N.am      18 UNK        -0.5000 
    100 CA        -6.2942  -20.1457  -51.3094 C.3       18 UNK         0.1400 
    101 CB        -7.1444  -19.0270  -50.6909 C.3       18 UNK        -0.1800 
    102 C         -5.9344  -19.8096  -52.7709 C.2       18 UNK         0.5000 
    103 O         -4.8722  -19.2415  -53.0268 O.2       18 UNK        -0.5000 
    104 N         -6.8098  -20.2078  -53.7048 N.am      19 UNK        -0.5000 
    105 CA        -6.6202  -20.0443  -55.1475 C.3       19 UNK         0.1400 
    106 CB        -7.9435  -20.3502  -55.8655 C.3       19 UNK        -0.1800 
    107 C         -5.4851  -20.9211  -55.7099 C.2       19 UNK         0.5000 
    108 O         -4.8283  -20.5174  -56.6694 O.2       19 UNK        -0.5000 
    109 N         -5.2710  -22.0946  -55.0988 N.am      20 UNK        -0.5000 
    110 CA        -4.1593  -22.9934  -55.4082 C.3       20 UNK         0.1400 
    111 CB        -4.5323  -24.4218  -54.9802 C.3       20 UNK        -0.1800 
    112 C         -2.8573  -22.5421  -54.7219 C.2       20 UNK         0.5000 
    113 O         -1.7775  -22.7260  -55.2838 O.2       20 UNK        -0.5000 
    114 N         -2.9901  -21.9746  -53.5162 N.am      21 UNK        -0.5000 
    115 CA        -1.9009  -21.4934  -52.6747 C.3       21 UNK         0.1400 
    116 CB        -2.4727  -21.1252  -51.3013 C.3       21 UNK        -0.1800 
    117 C         -1.1410  -20.2998  -53.2708 C.2       21 UNK         0.5000 
    118 O          0.0901  -20.3229  -53.2931 O.2       21 UNK        -0.5000 
    119 N         -1.8806  -19.2687  -53.6995 N.am      22 UNK        -0.5000 
    120 CA        -1.3162  -18.0423  -54.2813 C.3       22 UNK         0.1400 
    121 C         -0.6549  -18.3143  -55.6633 C.2       22 UNK         0.5000 
    122 N          0.5199  -17.7540  -55.9188 N.am      22 UNK        -0.7600 
    123 O         -1.2195  -18.9856  -56.5237 O.2       22 UNK        -0.5000 
    124 C124       -2.3735  -16.9150  -54.4129 C.3       23 UNK        -0.0398 
    125 S125       -2.9331  -16.0302  -52.9056 S.3       23 UNK        -0.2404 
    126 C126       -2.3928  -16.9639  -51.4322 C.3       23 UNK        -0.0205 
    127 H127       -0.4597   -9.1765  -48.3797 H         1 UNK         0.0600 
    128 H128       -0.1352   -8.9682  -46.6482 H         1 UNK         0.0600 
    129 H129       -1.5368   -8.2029  -47.3853 H         1 UNK         0.0600 
    130 H130       -1.7874  -12.3334  -46.8250 H         1 UNK         0.3000 
    131 H131        0.6550  -11.1914  -47.9151 H         1 UNK         0.0600 
    132 H132       -0.3638  -13.5930  -48.3295 H         1 UNK         0.0800 
    133 H133        0.4049  -14.0272  -46.8324 H         1 UNK         0.0800 
    134 H134        0.7218  -13.0965  -50.5409 H         1 UNK         0.0800 
    135 H135        2.2981  -13.7376  -50.9307 H         1 UNK         0.0800 
    136 H136       -1.0650  -14.5966  -51.0332 H         1 UNK         0.1150 
    137 H137       -0.4935  -18.8367  -50.9077 H         1 UNK         0.1150 
    138 H138        2.7149  -16.2222  -49.8267 H         1 UNK         0.1150 
    139 H139        1.9673  -19.6174  -50.8348 H         1 UNK         0.0800 
    140 H140        3.1473  -18.5666  -50.1066 H         1 UNK         0.0800 
    141 H141       -0.5761  -19.7961  -48.6407 H         1 UNK         0.0800 
    142 H142        0.2825  -20.8440  -49.7596 H         1 UNK         0.0800 
    143 H143        0.8080  -22.4596  -48.0236 H         1 UNK         0.0600 
    144 H144        0.0693  -20.4287  -46.1532 H         1 UNK         0.3000 
    145 H145       -0.2747  -22.5332  -43.3058 H         1 UNK         0.0600 
    146 H146        1.4689  -20.9207  -42.5023 H         1 UNK         0.0600 
    147 H147        2.1608  -22.1828  -43.5090 H         1 UNK         0.0600 
    148 H148        1.9202  -20.5743  -44.1721 H         1 UNK         0.0600 
    149 H149       -0.4241  -19.6838  -43.8215 H         1 UNK         0.3000 
    150 H150       -3.9256  -19.6166  -44.4774 H         1 UNK         0.0600 
    151 H151       -4.0045  -19.8475  -42.0439 H         1 UNK         0.0600 
    152 H152       -3.9439  -18.1369  -42.4435 H         1 UNK         0.0600 
    153 H153       -2.5008  -18.9622  -41.8511 H         1 UNK         0.0600 
    154 H154       -2.0526  -17.5312  -43.9788 H         1 UNK         0.3000 
    155 H155       -0.3720  -17.3927  -46.8157 H         1 UNK         0.0600 
    156 H156       -1.5213  -15.6034  -48.1084 H         1 UNK         0.0600 
    157 H157       -3.0733  -16.0972  -47.4278 H         1 UNK         0.0600 
    158 H158       -2.1699  -17.1959  -48.4499 H         1 UNK         0.0600 
    159 H159       -0.0621  -16.0792  -45.0897 H         1 UNK         0.3000 
    160 H160       -0.5575  -13.4799  -44.2927 H         1 UNK         0.0600 
    161 H161       -1.6006  -12.9316  -42.0860 H         1 UNK         0.0600 
    162 H162       -2.7561  -12.8478  -43.4046 H         1 UNK         0.0600 
    163 H163       -2.7729  -14.2291  -42.3177 H         1 UNK         0.0600 
    164 H164        0.8352  -14.7137  -43.1258 H         1 UNK         0.3000 
    165 H165        1.2263  -16.2310  -40.8592 H         1 UNK         0.0600 
    166 H166        0.0935  -18.8838  -41.8909 H         1 UNK         0.0600 
    167 H167        1.4222  -18.7288  -40.7446 H         1 UNK         0.0600 
    168 H168       -0.1863  -18.1717  -40.3109 H         1 UNK         0.0600 
    169 H169        2.8047  -16.4539  -42.3790 H         1 UNK         0.3000 
    170 H170        3.5652  -18.1907  -45.0472 H         1 UNK         0.0600 
    171 H171        1.9902  -17.1592  -46.6676 H         1 UNK         0.0600 
    172 H172        2.2296  -15.5746  -45.9434 H         1 UNK         0.0600 
    173 H173        3.5536  -16.3784  -46.7807 H         1 UNK         0.0600 
    174 H174        3.9118  -15.3713  -44.1437 H         1 UNK         0.3000 
    175 H175        6.4824  -16.1929  -41.8855 H         1 UNK         0.0600 
    176 H176        6.8448  -14.7341  -44.5607 H         1 UNK         0.0600 
    177 H177        7.8579  -14.5417  -43.1292 H         1 UNK         0.0600 
    178 H178        7.8334  -16.0728  -43.9887 H         1 UNK         0.0600 
    179 H179        5.4839  -13.6826  -42.7870 H         1 UNK         0.3000 
    180 H180        2.4352  -13.5795  -41.0452 H         1 UNK         0.0600 
    181 H181        5.0229  -12.1887  -40.1630 H         1 UNK         0.0600 
    182 H182        3.9752  -13.1469  -39.1236 H         1 UNK         0.0600 
    183 H183        3.3813  -11.6453  -39.8131 H         1 UNK         0.0600 
    184 H184        3.9361  -11.5165  -42.2841 H         1 UNK         0.3000 
    185 H185        3.0694  -10.6735  -44.2916 H         1 UNK         0.0600 
    186 H186        5.3823  -11.6260  -44.4372 H         1 UNK         0.0600 
    187 H187        4.8513  -12.7713  -45.6636 H         1 UNK         0.0600 
    188 H188        4.8590  -11.0420  -46.0058 H         1 UNK         0.0600 
    189 H189        2.7057  -12.2328  -46.6839 H         1 UNK         0.3000 
    190 H190       -2.3441  -20.9396  -47.1746 H         1 UNK         0.3000 
    191 H191       -3.9772  -22.4383  -48.9268 H         1 UNK         0.0600 
    192 H192       -4.6913  -20.3305  -47.8448 H         1 UNK         0.0600 
    193 H193       -5.8291  -21.6220  -47.4913 H         1 UNK         0.0600 
    194 H194       -4.6756  -21.1109  -46.2635 H         1 UNK         0.0600 
    195 H195       -2.9456  -23.1729  -45.5650 H         1 UNK         0.3000 
    196 H196       -4.4882  -25.5478  -45.2695 H         1 UNK         0.0600 
    197 H197       -2.8773  -26.0268  -43.4091 H         1 UNK         0.0600 
    198 H198       -3.4809  -24.3787  -43.3447 H         1 UNK         0.0600 
    199 H199       -1.8564  -24.6985  -43.9490 H         1 UNK         0.0600 
    200 H200       -1.2173  -24.9892  -46.6137 H         1 UNK         0.3000 
    201 H201       -0.5719  -27.7639  -46.9757 H         1 UNK         0.0600 
    202 H202        1.1688  -26.0244  -46.7543 H         1 UNK         0.0600 
    203 H203        0.6279  -25.2421  -48.2363 H         1 UNK         0.0600 
    204 H204        1.3371  -26.8510  -48.2959 H         1 UNK         0.0600 
    205 H205       -1.7394  -25.2136  -49.2389 H         1 UNK         0.3000 
    206 H206       -1.8307  -27.0184  -51.5066 H         1 UNK         0.0600 
    207 H207       -1.3136  -24.5637  -51.6545 H         1 UNK         0.0600 
    208 H208       -2.6537  -25.0292  -52.6907 H         1 UNK         0.0600 
    209 H209       -2.9720  -24.2048  -51.1704 H         1 UNK         0.0600 
    210 H210       -4.0781  -26.2036  -49.0088 H         1 UNK         0.3000 
    211 H211       -6.0584  -26.8819  -48.4089 H         1 UNK         0.0600 
    212 H212       -6.2813  -28.6794  -50.8729 H         1 UNK         0.0600 
    213 H213       -7.2341  -28.7725  -49.4023 H         1 UNK         0.0600 
    214 H214       -5.5197  -29.1460  -49.3512 H         1 UNK         0.0600 
    215 H215       -5.5258  -24.7639  -50.7321 H         1 UNK         0.3000 
    216 H216       -8.1339  -23.6133  -50.5495 H         1 UNK         0.0600 
    217 H217       -8.6349  -25.1109  -52.4883 H         1 UNK         0.0600 
    218 H218       -7.1822  -24.5665  -53.3210 H         1 UNK         0.0600 
    219 H219       -8.5182  -23.4530  -53.0497 H         1 UNK         0.0600 
    220 H220       -7.9482  -21.3860  -50.8391 H         1 UNK         0.3000 
    221 H221       -5.3669  -20.2093  -50.7390 H         1 UNK         0.0600 
    222 H222       -6.6348  -18.0651  -50.7640 H         1 UNK         0.0600 
    223 H223       -8.1081  -18.9274  -51.1919 H         1 UNK         0.0600 
    224 H224       -7.3319  -19.2137  -49.6333 H         1 UNK         0.0600 
    225 H225       -7.6593  -20.6625  -53.4051 H         1 UNK         0.3000 
    226 H226       -6.3587  -19.0014  -55.3395 H         1 UNK         0.0600 
    227 H227       -7.8429  -20.2153  -56.9433 H         1 UNK         0.0600 
    228 H228       -8.2685  -21.3769  -55.6920 H         1 UNK         0.0600 
    229 H229       -8.7382  -19.6841  -55.5290 H         1 UNK         0.0600 
    230 H230       -5.8442  -22.3386  -54.3052 H         1 UNK         0.3000 
    231 H231       -3.9886  -22.9962  -56.4869 H         1 UNK         0.0600 
    232 H232       -3.7270  -25.1207  -55.2098 H         1 UNK         0.0600 
    233 H233       -5.4232  -24.7698  -55.5030 H         1 UNK         0.0600 
    234 H234       -4.7263  -24.4876  -53.9092 H         1 UNK         0.0600 
    235 H235       -3.9143  -21.9441  -53.1024 H         1 UNK         0.3000 
    236 H236       -1.1891  -22.3103  -52.5439 H         1 UNK         0.0600 
    237 H237       -2.9440  -21.9829  -50.8315 H         1 UNK         0.0600 
    238 H238       -1.6991  -20.7736  -50.6304 H         1 UNK         0.0600 
    239 H239       -3.2108  -20.3312  -51.3676 H         1 UNK         0.0600 
    240 H240       -2.8918  -19.3225  -53.6370 H         1 UNK         0.3000 
    241 H241       -0.5310  -17.6880  -53.6128 H         1 UNK         0.0600 
    242 H242        0.9505  -17.9088  -56.8174 H         1 UNK         0.3800 
    243 H243        1.0003  -17.1940  -55.2315 H         1 UNK         0.3800 
    244 H244       -3.2612  -17.3054  -54.9140 H         1 UNK         0.0800 
    245 H245       -1.9965  -16.1305  -55.0719 H         1 UNK         0.0800 
    246 H246       -3.0134  -16.6294  -50.6009 H         1 UNK         0.0800 
    247 H247       -2.6256  -18.0198  -51.5513 H         1 UNK         0.0800 
@<TRIPOS>BOND
     1    1    2 1    
     2    1  127 1    
     3    1  128 1    
     4    1  129 1    
     5    2    3 2    
     6    2    4 am   BACKBONE|DICT|INTERRES
     7    4    5 1    
     8    4  130 1    
     9    5    6 1    
    10    5   65 1    
    11    5  131 1    
    12    6    7 1    
    13    6  132 1    
    14    6  133 1    
    15    7    8 1    
    16    8    9 1    
    17    8  134 1    
    18    8  135 1    
    19    9   10 ar   
    20    9   14 ar   
    21   10   11 ar   
    22   10  136 1    
    23   11   12 ar   
    24   11  126 1    
    25   12   13 ar   
    26   12  137 1    
    27   13   14 ar   
    28   13   15 1    
    29   14  138 1    
    30   15   16 1    
    31   15  139 1    
    32   15  140 1    
    33   16   17 1    
    34   17   18 1    
    35   17  141 1    
    36   17  142 1    
    37   18   19 1    
    38   18   67 1    
    39   18  143 1    
    40   19   20 am   BACKBONE|DICT|INTERRES
    41   19  144 1    
    42   20   21 2    
    43   20   22 1    
    44   22   23 1    
    45   22   24 1    
    46   22  145 1    
    47   23  146 1    
    48   23  147 1    
    49   23  148 1    
    50   24   25 am   BACKBONE|DICT|INTERRES
    51   24  149 1    
    52   25   26 2    
    53   25   27 1    
    54   27   28 1    
    55   27   29 1    
    56   27  150 1    
    57   28  151 1    
    58   28  152 1    
    59   28  153 1    
    60   29   30 am   BACKBONE|DICT|INTERRES
    61   29  154 1    
    62   30   31 2    
    63   30   32 1    
    64   32   33 1    
    65   32   34 1    
    66   32  155 1    
    67   33  156 1    
    68   33  157 1    
    69   33  158 1    
    70   34   35 am   BACKBONE|DICT|INTERRES
    71   34  159 1    
    72   35   36 2    
    73   35   37 1    
    74   37   38 1    
    75   37   39 1    
    76   37  160 1    
    77   38  161 1    
    78   38  162 1    
    79   38  163 1    
    80   39   40 am   BACKBONE|DICT|INTERRES
    81   39  164 1    
    82   40   41 2    
    83   40   42 1    
    84   42   43 1    
    85   42   44 1    
    86   42  165 1    
    87   43  166 1    
    88   43  167 1    
    89   43  168 1    
    90   44   45 am   BACKBONE|DICT|INTERRES
    91   44  169 1    
    92   45   46 2    
    93   45   47 1    
    94   47   48 1    
    95   47   49 1    
    96   47  170 1    
    97   48  171 1    
    98   48  172 1    
    99   48  173 1    
   100   49   50 am   BACKBONE|DICT|INTERRES
   101   49  174 1    
   102   50   51 2    
   103   50   52 1    
   104   52   53 1    
   105   52   54 1    
   106   52  175 1    
   107   53  176 1    
   108   53  177 1    
   109   53  178 1    
   110   54   55 am   BACKBONE|DICT|INTERRES
   111   54  179 1    
   112   55   56 2    
   113   55   57 1    
   114   57   58 1    
   115   57   59 1    
   116   57  180 1    
   117   58  181 1    
   118   58  182 1    
   119   58  183 1    
   120   59   60 am   BACKBONE|DICT|INTERRES
   121   59  184 1    
   122   60   61 2    
   123   60   62 1    
   124   62   63 1    
   125   62   64 1    
   126   62  185 1    
   127   63  186 1    
   128   63  187 1    
   129   63  188 1    
   130   64   65 am   BACKBONE|DICT|INTERRES
   131   64  189 1    
   132   65   66 2    
   133   67   68 2    
   134   67   69 am   BACKBONE|DICT|INTERRES
   135   69   70 1    
   136   69  190 1    
   137   70   71 1    
   138   70   72 1    
   139   70  191 1    
   140   71  192 1    
   141   71  193 1    
   142   71  194 1    
   143   72   73 2    
   144   72   74 am   BACKBONE|DICT|INTERRES
   145   74   75 1    
   146   74  195 1    
   147   75   76 1    
   148   75   77 1    
   149   75  196 1    
   150   76  197 1    
   151   76  198 1    
   152   76  199 1    
   153   77   78 2    
   154   77   79 am   BACKBONE|DICT|INTERRES
   155   79   80 1    
   156   79  200 1    
   157   80   81 1    
   158   80   82 1    
   159   80  201 1    
   160   81  202 1    
   161   81  203 1    
   162   81  204 1    
   163   82   83 2    
   164   82   84 am   BACKBONE|DICT|INTERRES
   165   84   85 1    
   166   84  205 1    
   167   85   86 1    
   168   85   87 1    
   169   85  206 1    
   170   86  207 1    
   171   86  208 1    
   172   86  209 1    
   173   87   88 2    
   174   87   89 am   BACKBONE|DICT|INTERRES
   175   89   90 1    
   176   89  210 1    
   177   90   91 1    
   178   90   92 1    
   179   90  211 1    
   180   91  212 1    
   181   91  213 1    
   182   91  214 1    
   183   92   93 2    
   184   92   94 am   BACKBONE|DICT|INTERRES
   185   94   95 1    
   186   94  215 1    
   187   95   96 1    
   188   95   97 1    
   189   95  216 1    
   190   96  217 1    
   191   96  218 1    
   192   96  219 1    
   193   97   98 2    
   194   97   99 am   BACKBONE|DICT|INTERRES
   195   99  100 1    
   196   99  220 1    
   197  100  101 1    
   198  100  102 1    
   199  100  221 1    
   200  101  222 1    
   201  101  223 1    
   202  101  224 1    
   203  102  103 2    
   204  102  104 am   BACKBONE|DICT|INTERRES
   205  104  105 1    
   206  104  225 1    
   207  105  106 1    
   208  105  107 1    
   209  105  226 1    
   210  106  227 1    
   211  106  228 1    
   212  106  229 1    
   213  107  108 2    
   214  107  109 am   BACKBONE|DICT|INTERRES
   215  109  110 1    
   216  109  230 1    
   217  110  111 1    
   218  110  112 1    
   219  110  231 1    
   220  111  232 1    
   221  111  233 1    
   222  111  234 1    
   223  112  113 2    
   224  112  114 am   BACKBONE|DICT|INTERRES
   225  114  115 1    
   226  114  235 1    
   227  115  116 1    
   228  115  117 1    
   229  115  236 1    
   230  116  237 1    
   231  116  238 1    
   232  116  239 1    
   233  117  118 2    
   234  117  119 am   BACKBONE|DICT|INTERRES
   235  119  120 1    
   236  119  240 1    
   237  120  121 1    
   238  120  124 1    
   239  120  241 1    
   240  121  122 am   BACKBONE|DICT|INTERRES
   241  121  123 2    
   242  122  242 1    
   243  122  243 1    
   244  124  125 1    
   245  124  244 1    
   246  124  245 1    
   247  125  126 1    
   248  126  246 1    
   249  126  247 1    
@<TRIPOS>SUBSTRUCTURE
     1 UNK         1 GROUP             0       ****    0 ROOT    
