@<TRIPOS>MOLECULE
3R540
247   249    1
SMALL
USER_CHARGES


@<TRIPOS>ATOM
      1 CA          2.9014  -12.5891  -45.8433 C.3       0 UNK        -0.1800 
      2 C           2.2818  -12.7881  -47.2192 C.2       0 UNK         0.5000 
      3 O           2.9148  -12.4811  -48.2292 O.2       0 UNK        -0.5000 
      4 N           1.0498  -13.3025  -47.2589 N.am      1 UNK        -0.5000 
      5 CA          0.3054  -13.6384  -48.4702 C.3       1 UNK         0.1400 
      6 C6         -0.2564  -12.3777  -49.1884 C.3       23 UNK        -0.0398 
      7 S7         -1.0031  -12.6166  -50.8436 S.3       23 UNK        -0.2404 
      8 C8          0.2344  -13.5855  -51.7764 C.3       23 UNK        -0.0205 
      9 C9          0.0855  -15.0872  -51.5596 C.ar      23 UNK        -0.0193 
     10 C10        -1.1356  -15.7164  -51.8142 C.ar      23 UNK        -0.1150 
     11 C11        -1.2975  -17.0815  -51.5726 C.ar      23 UNK        -0.0193 
     12 C12        -0.2201  -17.8214  -51.0759 C.ar      23 UNK        -0.1150 
     13 C13         1.0171  -17.2139  -50.8325 C.ar      23 UNK        -0.0193 
     14 C14         1.1623  -15.8488  -51.0957 C.ar      23 UNK        -0.1150 
     15 C15         2.2234  -17.9872  -50.2990 C.3       23 UNK        -0.0205 
     16 S16         1.8532  -19.5574  -49.4423 S.3       23 UNK        -0.2404 
     17 C17         0.8808  -19.0034  -47.9981 C.3       23 UNK        -0.0398 
     18 CA         -0.4531  -19.7780  -47.8441 C.3       11 UNK         0.1400 
     19 N          -0.2258  -21.2177  -47.7428 N.am      11 UNK        -0.5000 
     20 C          -0.9568  -22.1564  -48.3494 C.2       10 UNK         0.5000 
     21 O          -1.8738  -21.9064  -49.1272 O.2       10 UNK        -0.5000 
     22 CA         -0.6102  -23.6267  -48.0348 C.3       10 UNK         0.1400 
     23 CB          0.2296  -24.2364  -49.1665 C.3       10 UNK        -0.1800 
     24 N           0.0993  -23.8175  -46.7664 N.am      10 UNK        -0.5000 
     25 C          -0.4106  -23.5577  -45.5549 C.2       9 UNK         0.5000 
     26 O          -1.5399  -23.1072  -45.3659 O.2       9 UNK        -0.5000 
     27 CA          0.5212  -23.7897  -44.3517 C.3       9 UNK         0.1400 
     28 CB          0.4988  -25.2682  -43.9358 C.3       9 UNK        -0.1800 
     29 N           1.9135  -23.3611  -44.5418 N.am      9 UNK        -0.5000 
     30 C           2.3188  -22.1542  -44.9613 C.2       8 UNK         0.5000 
     31 O           1.5679  -21.2917  -45.4191 O.2       8 UNK        -0.5000 
     32 CA          3.8174  -21.8383  -44.8386 C.3       8 UNK         0.1400 
     33 CB          4.4342  -21.6026  -46.2261 C.3       8 UNK        -0.1800 
     34 N           4.0207  -20.6458  -44.0163 N.am      8 UNK        -0.5000 
     35 C           3.7410  -20.5372  -42.7116 C.2       7 UNK         0.5000 
     36 O           3.3530  -21.4820  -42.0234 O.2       7 UNK        -0.5000 
     37 CA          3.9102  -19.1522  -42.0499 C.3       7 UNK         0.1400 
     38 CB          5.3569  -18.9456  -41.5637 C.3       7 UNK        -0.1800 
     39 N           3.4480  -18.0035  -42.8434 N.am      7 UNK        -0.5000 
     40 C           3.9315  -17.5203  -43.9989 C.2       6 UNK         0.5000 
     41 O           4.8622  -18.0344  -44.6201 O.2       6 UNK        -0.5000 
     42 CA          3.2611  -16.2588  -44.5786 C.3       6 UNK         0.1400 
     43 CB          2.3401  -16.6391  -45.7430 C.3       6 UNK        -0.1800 
     44 N           2.4993  -15.4841  -43.5960 N.am      6 UNK        -0.5000 
     45 C           3.0558  -14.7613  -42.6114 C.2       5 UNK         0.5000 
     46 O           4.2717  -14.6119  -42.4861 O.2       5 UNK        -0.5000 
     47 CA          2.1132  -14.1063  -41.5782 C.3       5 UNK         0.1400 
     48 CB          1.9485  -12.6072  -41.8731 C.3       5 UNK        -0.1800 
     49 N           0.7835  -14.7140  -41.4876 N.am      5 UNK        -0.5000 
     50 C           0.5193  -15.9909  -41.1792 C.2       4 UNK         0.5000 
     51 O           1.3855  -16.8238  -40.9084 O.2       4 UNK        -0.5000 
     52 CA         -0.9579  -16.4274  -41.2262 C.3       4 UNK         0.1400 
     53 CB         -1.5741  -16.3698  -39.8208 C.3       4 UNK        -0.1800 
     54 N          -1.8230  -15.6895  -42.1560 N.am      4 UNK        -0.5000 
     55 C          -1.6031  -15.4751  -43.4606 C.2       3 UNK         0.5000 
     56 O          -0.5382  -15.7193  -44.0358 O.2       3 UNK        -0.5000 
     57 CA         -2.7702  -14.8636  -44.2446 C.3       3 UNK         0.1400 
     58 CB         -2.8118  -13.3364  -44.0583 C.3       3 UNK        -0.1800 
     59 N          -2.6065  -15.1851  -45.6557 N.am      3 UNK        -0.5000 
     60 C          -3.5607  -15.1831  -46.5904 C.2       2 UNK         0.5000 
     61 O          -4.7456  -14.9535  -46.3418 O.2       2 UNK        -0.5000 
     62 CA         -3.1050  -15.4411  -48.0472 C.3       2 UNK         0.1400 
     63 CB         -4.2486  -15.2654  -49.0616 C.3       2 UNK        -0.1800 
     64 N          -1.9964  -14.5663  -48.4426 N.am      2 UNK        -0.5000 
     65 C          -0.7209  -14.7181  -48.0687 C.2       1 UNK         0.5000 
     66 O          -0.3469  -15.6622  -47.3726 O.2       1 UNK        -0.5000 
     67 C          -1.2198  -19.3162  -46.5902 C.2       11 UNK         0.5000 
     68 O          -2.2636  -18.6689  -46.7032 O.2       11 UNK        -0.5000 
     69 N          -0.6835  -19.6943  -45.4200 N.am      12 UNK        -0.5000 
     70 CA         -1.0962  -19.2743  -44.0859 C.3       12 UNK         0.1400 
     71 CB         -0.1136  -19.8434  -43.0514 C.3       12 UNK        -0.1800 
     72 C          -2.5426  -19.6227  -43.7126 C.2       12 UNK         0.5000 
     73 O          -3.2079  -18.8018  -43.0797 O.2       12 UNK        -0.5000 
     74 N          -3.0258  -20.8028  -44.1248 N.am      13 UNK        -0.5000 
     75 CA         -4.3877  -21.2805  -43.8669 C.3       13 UNK         0.1400 
     76 CB         -4.4024  -22.8186  -43.9203 C.3       13 UNK        -0.1800 
     77 C          -5.4234  -20.6439  -44.8192 C.2       13 UNK         0.5000 
     78 O          -6.2207  -21.3591  -45.4275 O.2       13 UNK        -0.5000 
     79 N          -5.3760  -19.3096  -44.9490 N.am      14 UNK        -0.5000 
     80 CA         -6.2308  -18.4537  -45.7784 C.3       14 UNK         0.1400 
     81 CB         -7.6301  -18.3328  -45.1416 C.3       14 UNK        -0.1800 
     82 C          -6.2769  -18.9140  -47.2500 C.2       14 UNK         0.5000 
     83 O          -7.3590  -19.1386  -47.7943 O.2       14 UNK        -0.5000 
     84 N          -5.0859  -19.1084  -47.8372 N.am      15 UNK        -0.5000 
     85 CA         -4.8275  -19.6394  -49.1836 C.3       15 UNK         0.1400 
     86 CB         -5.5944  -18.8473  -50.2683 C.3       15 UNK        -0.1800 
     87 C          -5.0755  -21.1525  -49.3431 C.2       15 UNK         0.5000 
     88 O          -4.8582  -21.6643  -50.4414 O.2       15 UNK        -0.5000 
     89 N          -5.5373  -21.8395  -48.2850 N.am      16 UNK        -0.5000 
     90 CA         -5.8083  -23.2804  -48.2118 C.3       16 UNK         0.1400 
     91 CB         -4.4823  -24.0587  -48.1157 C.3       16 UNK        -0.1800 
     92 C          -6.7367  -23.7846  -49.3395 C.2       16 UNK         0.5000 
     93 O          -6.4622  -24.8133  -49.9596 O.2       16 UNK        -0.5000 
     94 N          -7.8086  -23.0162  -49.5914 N.am      17 UNK        -0.5000 
     95 CA         -8.7888  -23.1873  -50.6712 C.3       17 UNK         0.1400 
     96 CB         -9.5781  -24.5041  -50.5086 C.3       17 UNK        -0.1800 
     97 C          -8.1692  -23.0111  -52.0763 C.2       17 UNK         0.5000 
     98 O          -8.5125  -23.7495  -53.0011 O.2       17 UNK        -0.5000 
     99 N          -7.2789  -22.0147  -52.1977 N.am      18 UNK        -0.5000 
    100 CA        -6.5151  -21.6246  -53.3873 C.3       18 UNK         0.1400 
    101 CB        -7.4467  -21.1316  -54.5147 C.3       18 UNK        -0.1800 
    102 C         -5.5406  -22.7315  -53.8329 C.2       18 UNK         0.5000 
    103 O         -5.6344  -23.2402  -54.9526 O.2       18 UNK        -0.5000 
    104 N         -4.6305  -23.0944  -52.9217 N.am      19 UNK        -0.5000 
    105 CA        -3.5581  -24.0634  -53.1389 C.3       19 UNK         0.1400 
    106 CB        -2.8912  -24.3658  -51.7888 C.3       19 UNK        -0.1800 
    107 C         -2.5113  -23.5870  -54.1664 C.2       19 UNK         0.5000 
    108 O         -2.3883  -22.3898  -54.4343 O.2       19 UNK        -0.5000 
    109 N         -1.7364  -24.5449  -54.6931 N.am      20 UNK        -0.5000 
    110 CA        -0.7097  -24.3494  -55.7247 C.3       20 UNK         0.1400 
    111 CB        -0.1955  -25.7276  -56.1706 C.3       20 UNK        -0.1800 
    112 C          0.4699  -23.4395  -55.3175 C.2       20 UNK         0.5000 
    113 O          1.2198  -23.0013  -56.1907 O.2       20 UNK        -0.5000 
    114 N          0.6169  -23.1673  -54.0137 N.am      21 UNK        -0.5000 
    115 CA         1.5860  -22.2211  -53.4599 C.3       21 UNK         0.1400 
    116 CB         1.6553  -22.4168  -51.9383 C.3       21 UNK        -0.1800 
    117 C          1.2661  -20.7498  -53.7971 C.2       21 UNK         0.5000 
    118 O          2.1822  -19.9264  -53.8066 O.2       21 UNK        -0.5000 
    119 N         -0.0114  -20.4434  -54.0589 N.am      22 UNK        -0.5000 
    120 CA        -0.4893  -19.1052  -54.4285 C.3       22 UNK         0.1400 
    121 C         -0.0712  -18.7047  -55.8690 C.2       22 UNK         0.5000 
    122 N          0.3191  -17.4553  -56.0836 N.am      22 UNK        -0.7600 
    123 O         -0.1416  -19.5000  -56.8033 O.2       22 UNK        -0.5000 
    124 C124       -2.0232  -18.9729  -54.2537 C.3       23 UNK        -0.0398 
    125 S125       -2.5907  -19.3764  -52.5662 S.3       23 UNK        -0.2404 
    126 C126       -2.6586  -17.7255  -51.7942 C.3       23 UNK        -0.0205 
    127 H127        2.2261  -12.9072  -45.0497 H         1 UNK         0.0600 
    128 H128        3.1402  -11.5374  -45.6856 H         1 UNK         0.0600 
    129 H129        3.8217  -13.1664  -45.7572 H         1 UNK         0.0600 
    130 H130        0.6032  -13.5984  -46.4012 H         1 UNK         0.3000 
    131 H131        1.0164  -14.1257  -49.1319 H         1 UNK         0.0600 
    132 H132       -0.9887  -11.8793  -48.5512 H         1 UNK         0.0800 
    133 H133        0.5460  -11.6513  -49.3214 H         1 UNK         0.0800 
    134 H134        1.2371  -13.2420  -51.5169 H         1 UNK         0.0800 
    135 H135        0.1062  -13.3793  -52.8397 H         1 UNK         0.0800 
    136 H136       -1.9699  -15.1317  -52.1758 H         1 UNK         0.1150 
    137 H137       -0.3518  -18.8769  -50.8911 H         1 UNK         0.1150 
    138 H138        2.1151  -15.3713  -50.9133 H         1 UNK         0.1150 
    139 H139        2.8825  -18.2073  -51.1397 H         1 UNK         0.0800 
    140 H140        2.7921  -17.3548  -49.6153 H         1 UNK         0.0800 
    141 H141        0.6881  -17.9335  -48.0796 H         1 UNK         0.0800 
    142 H142        1.5093  -19.1357  -47.1166 H         1 UNK         0.0800 
    143 H143       -1.0764  -19.5534  -48.7119 H         1 UNK         0.0600 
    144 H144        0.4972  -21.5067  -47.0942 H         1 UNK         0.3000 
    145 H145       -1.5503  -24.1773  -47.9756 H         1 UNK         0.0600 
    146 H146        1.2017  -23.7490  -49.2487 H         1 UNK         0.0600 
    147 H147        0.3987  -25.3010  -49.0043 H         1 UNK         0.0600 
    148 H148       -0.2747  -24.1324  -50.1277 H         1 UNK         0.0600 
    149 H149        1.0466  -24.1615  -46.8226 H         1 UNK         0.3000 
    150 H150        0.1200  -23.2083  -43.5205 H         1 UNK         0.0600 
    151 H151        1.0464  -25.4254  -43.0064 H         1 UNK         0.0600 
    152 H152       -0.5230  -25.6130  -43.7701 H         1 UNK         0.0600 
    153 H153        0.9418  -25.9084  -44.6996 H         1 UNK         0.0600 
    154 H154        2.6139  -23.9988  -44.1920 H         1 UNK         0.3000 
    155 H155        4.3306  -22.6771  -44.3645 H         1 UNK         0.0600 
    156 H156        4.3058  -22.4771  -46.8651 H         1 UNK         0.0600 
    157 H157        5.5040  -21.4063  -46.1535 H         1 UNK         0.0600 
    158 H158        3.9727  -20.7542  -46.7342 H         1 UNK         0.0600 
    159 H159        4.3405  -19.8061  -44.4913 H         1 UNK         0.3000 
    160 H160        3.2713  -19.1581  -41.1652 H         1 UNK         0.0600 
    161 H161        5.4600  -18.0033  -41.0254 H         1 UNK         0.0600 
    162 H162        6.0686  -18.9401  -42.3896 H         1 UNK         0.0600 
    163 H163        5.6557  -19.7436  -40.8829 H         1 UNK         0.0600 
    164 H164        2.6773  -17.4975  -42.4202 H         1 UNK         0.3000 
    165 H165        4.0571  -15.6239  -44.9730 H         1 UNK         0.0600 
    166 H166        1.4836  -17.2264  -45.4089 H         1 UNK         0.0600 
    167 H167        1.9642  -15.7485  -46.2405 H         1 UNK         0.0600 
    168 H168        2.8751  -17.2219  -46.4937 H         1 UNK         0.0600 
    169 H169        1.4874  -15.5522  -43.6472 H         1 UNK         0.3000 
    170 H170        2.5889  -14.2127  -40.6013 H         1 UNK         0.0600 
    171 H171        1.4077  -12.4375  -42.8045 H         1 UNK         0.0600 
    172 H172        1.4024  -12.1067  -41.0733 H         1 UNK         0.0600 
    173 H173        2.9175  -12.1137  -41.9601 H         1 UNK         0.0600 
    174 H174        0.0023  -14.1179  -41.7170 H         1 UNK         0.3000 
    175 H175       -0.9695  -17.4665  -41.5508 H         1 UNK         0.0600 
    176 H176       -1.6466  -15.3445  -39.4560 H         1 UNK         0.0600 
    177 H177       -2.5745  -16.8032  -39.8102 H         1 UNK         0.0600 
    178 H178       -0.9725  -16.9318  -39.1048 H         1 UNK         0.0600 
    179 H179       -2.7220  -15.4228  -41.7815 H         1 UNK         0.3000 
    180 H180       -3.7001  -15.3078  -43.8833 H         1 UNK         0.0600 
    181 H181       -1.8998  -12.8635  -44.4252 H         1 UNK         0.0600 
    182 H182       -2.9210  -13.0701  -43.0064 H         1 UNK         0.0600 
    183 H183       -3.6541  -12.8946  -44.5909 H         1 UNK         0.0600 
    184 H184       -1.6610  -15.4495  -45.9263 H         1 UNK         0.3000 
    185 H185       -2.7703  -16.4783  -48.1050 H         1 UNK         0.0600 
    186 H186       -3.9252  -15.5205  -50.0705 H         1 UNK         0.0600 
    187 H187       -5.0924  -15.9103  -48.8152 H         1 UNK         0.0600 
    188 H188       -4.6160  -14.2387  -49.0780 H         1 UNK         0.0600 
    189 H189       -2.2366  -13.7728  -49.0203 H         1 UNK         0.3000 
    190 H190        0.1577  -20.2687  -45.4449 H         1 UNK         0.3000 
    191 H191       -1.0141  -18.1911  -44.0636 H         1 UNK         0.0600 
    192 H192       -0.0489  -20.9284  -43.1170 H         1 UNK         0.0600 
    193 H193        0.8870  -19.4388  -43.2011 H         1 UNK         0.0600 
    194 H194       -0.4135  -19.6036  -42.0317 H         1 UNK         0.0600 
    195 H195       -2.4280  -21.4243  -44.6615 H         1 UNK         0.3000 
    196 H196       -4.6718  -20.9903  -42.8532 H         1 UNK         0.0600 
    197 H197       -3.6643  -23.2456  -43.2413 H         1 UNK         0.0600 
    198 H198       -4.1874  -23.1874  -44.9232 H         1 UNK         0.0600 
    199 H199       -5.3771  -23.2116  -43.6290 H         1 UNK         0.0600 
    200 H200       -4.6690  -18.8307  -44.3996 H         1 UNK         0.3000 
    201 H201       -5.7778  -17.4617  -45.7768 H         1 UNK         0.0600 
    202 H202       -8.2548  -17.6348  -45.7001 H         1 UNK         0.0600 
    203 H203       -7.5661  -17.9626  -44.1185 H         1 UNK         0.0600 
    204 H204       -8.1483  -19.2922  -45.1189 H         1 UNK         0.0600 
    205 H205       -4.2504  -18.9361  -47.2855 H         1 UNK         0.3000 
    206 H206       -3.7591  -19.4996  -49.3514 H         1 UNK         0.0600 
    207 H207       -6.6659  -19.0436  -50.2431 H         1 UNK         0.0600 
    208 H208       -5.2543  -19.1219  -51.2663 H         1 UNK         0.0600 
    209 H209       -5.4498  -17.7741  -50.1624 H         1 UNK         0.0600 
    210 H210       -5.7291  -21.3316  -47.4287 H         1 UNK         0.3000 
    211 H211       -6.3510  -23.4455  -47.2801 H         1 UNK         0.0600 
    212 H212       -3.8975  -23.7292  -47.2572 H         1 UNK         0.0600 
    213 H213       -4.6557  -25.1290  -48.0002 H         1 UNK         0.0600 
    214 H214       -3.8706  -23.9141  -49.0048 H         1 UNK         0.0600 
    215 H215       -7.9292  -22.1897  -49.0217 H         1 UNK         0.3000 
    216 H216       -9.5029  -22.3702  -50.5588 H         1 UNK         0.0600 
    217 H217      -10.4053  -24.5518  -51.2177 H         1 UNK         0.0600 
    218 H218       -8.9520  -25.3797  -50.6817 H         1 UNK         0.0600 
    219 H219      -10.0043  -24.5879  -49.5090 H         1 UNK         0.0600 
    220 H220       -7.0045  -21.5400  -51.3493 H         1 UNK         0.3000 
    221 H221       -5.8956  -20.7773  -53.0887 H         1 UNK         0.0600 
    222 H222       -8.0841  -21.9282  -54.8989 H         1 UNK         0.0600 
    223 H223       -8.0910  -20.3239  -54.1678 H         1 UNK         0.0600 
    224 H224       -6.8666  -20.7467  -55.3541 H         1 UNK         0.0600 
    225 H225       -4.6288  -22.6120  -52.0246 H         1 UNK         0.3000 
    226 H226       -4.0093  -24.9825  -53.5181 H         1 UNK         0.0600 
    227 H227       -2.0611  -25.0647  -51.8963 H         1 UNK         0.0600 
    228 H228       -2.5038  -23.4589  -51.3224 H         1 UNK         0.0600 
    229 H229       -3.6049  -24.8199  -51.1021 H         1 UNK         0.0600 
    230 H230       -1.8868  -25.5001  -54.4016 H         1 UNK         0.3000 
    231 H231       -1.1934  -23.8735  -56.5801 H         1 UNK         0.0600 
    232 H232        0.5433  -25.6325  -56.9675 H         1 UNK         0.0600 
    233 H233       -1.0059  -26.3467  -56.5559 H         1 UNK         0.0600 
    234 H234        0.2775  -26.2648  -55.3475 H         1 UNK         0.0600 
    235 H235       -0.0436  -23.5720  -53.3680 H         1 UNK         0.3000 
    236 H236        2.5668  -22.4527  -53.8803 H         1 UNK         0.0600 
    237 H237        1.9083  -23.4457  -51.6827 H         1 UNK         0.0600 
    238 H238        2.4220  -21.7771  -51.5000 H         1 UNK         0.0600 
    239 H239        0.7082  -22.1681  -51.4570 H         1 UNK         0.0600 
    240 H240       -0.7115  -21.1767  -54.0659 H         1 UNK         0.3000 
    241 H241       -0.0149  -18.3976  -53.7480 H         1 UNK         0.0600 
    242 H242        0.5776  -17.1771  -57.0176 H         1 UNK         0.3800 
    243 H243        0.3801  -16.7840  -55.3337 H         1 UNK         0.3800 
    244 H244       -2.3523  -17.9634  -54.5057 H         1 UNK         0.0800 
    245 H245       -2.5401  -19.6407  -54.9452 H         1 UNK         0.0800 
    246 H246       -3.1253  -17.8134  -50.8163 H         1 UNK         0.0800 
    247 H247       -3.3073  -17.0814  -52.3897 H         1 UNK         0.0800 
@<TRIPOS>BOND
     1    1    2 1    
     2    1  127 1    
     3    1  128 1    
     4    1  129 1    
     5    2    3 2    
     6    2    4 am   BACKBONE|DICT|INTERRES
     7    4    5 1    
     8    4  130 1    
     9    5    6 1    
    10    5   65 1    
    11    5  131 1    
    12    6    7 1    
    13    6  132 1    
    14    6  133 1    
    15    7    8 1    
    16    8    9 1    
    17    8  134 1    
    18    8  135 1    
    19    9   10 ar   
    20    9   14 ar   
    21   10   11 ar   
    22   10  136 1    
    23   11   12 ar   
    24   11  126 1    
    25   12   13 ar   
    26   12  137 1    
    27   13   14 ar   
    28   13   15 1    
    29   14  138 1    
    30   15   16 1    
    31   15  139 1    
    32   15  140 1    
    33   16   17 1    
    34   17   18 1    
    35   17  141 1    
    36   17  142 1    
    37   18   19 1    
    38   18   67 1    
    39   18  143 1    
    40   19   20 am   BACKBONE|DICT|INTERRES
    41   19  144 1    
    42   20   21 2    
    43   20   22 1    
    44   22   23 1    
    45   22   24 1    
    46   22  145 1    
    47   23  146 1    
    48   23  147 1    
    49   23  148 1    
    50   24   25 am   BACKBONE|DICT|INTERRES
    51   24  149 1    
    52   25   26 2    
    53   25   27 1    
    54   27   28 1    
    55   27   29 1    
    56   27  150 1    
    57   28  151 1    
    58   28  152 1    
    59   28  153 1    
    60   29   30 am   BACKBONE|DICT|INTERRES
    61   29  154 1    
    62   30   31 2    
    63   30   32 1    
    64   32   33 1    
    65   32   34 1    
    66   32  155 1    
    67   33  156 1    
    68   33  157 1    
    69   33  158 1    
    70   34   35 am   BACKBONE|DICT|INTERRES
    71   34  159 1    
    72   35   36 2    
    73   35   37 1    
    74   37   38 1    
    75   37   39 1    
    76   37  160 1    
    77   38  161 1    
    78   38  162 1    
    79   38  163 1    
    80   39   40 am   BACKBONE|DICT|INTERRES
    81   39  164 1    
    82   40   41 2    
    83   40   42 1    
    84   42   43 1    
    85   42   44 1    
    86   42  165 1    
    87   43  166 1    
    88   43  167 1    
    89   43  168 1    
    90   44   45 am   BACKBONE|DICT|INTERRES
    91   44  169 1    
    92   45   46 2    
    93   45   47 1    
    94   47   48 1    
    95   47   49 1    
    96   47  170 1    
    97   48  171 1    
    98   48  172 1    
    99   48  173 1    
   100   49   50 am   BACKBONE|DICT|INTERRES
   101   49  174 1    
   102   50   51 2    
   103   50   52 1    
   104   52   53 1    
   105   52   54 1    
   106   52  175 1    
   107   53  176 1    
   108   53  177 1    
   109   53  178 1    
   110   54   55 am   BACKBONE|DICT|INTERRES
   111   54  179 1    
   112   55   56 2    
   113   55   57 1    
   114   57   58 1    
   115   57   59 1    
   116   57  180 1    
   117   58  181 1    
   118   58  182 1    
   119   58  183 1    
   120   59   60 am   BACKBONE|DICT|INTERRES
   121   59  184 1    
   122   60   61 2    
   123   60   62 1    
   124   62   63 1    
   125   62   64 1    
   126   62  185 1    
   127   63  186 1    
   128   63  187 1    
   129   63  188 1    
   130   64   65 am   BACKBONE|DICT|INTERRES
   131   64  189 1    
   132   65   66 2    
   133   67   68 2    
   134   67   69 am   BACKBONE|DICT|INTERRES
   135   69   70 1    
   136   69  190 1    
   137   70   71 1    
   138   70   72 1    
   139   70  191 1    
   140   71  192 1    
   141   71  193 1    
   142   71  194 1    
   143   72   73 2    
   144   72   74 am   BACKBONE|DICT|INTERRES
   145   74   75 1    
   146   74  195 1    
   147   75   76 1    
   148   75   77 1    
   149   75  196 1    
   150   76  197 1    
   151   76  198 1    
   152   76  199 1    
   153   77   78 2    
   154   77   79 am   BACKBONE|DICT|INTERRES
   155   79   80 1    
   156   79  200 1    
   157   80   81 1    
   158   80   82 1    
   159   80  201 1    
   160   81  202 1    
   161   81  203 1    
   162   81  204 1    
   163   82   83 2    
   164   82   84 am   BACKBONE|DICT|INTERRES
   165   84   85 1    
   166   84  205 1    
   167   85   86 1    
   168   85   87 1    
   169   85  206 1    
   170   86  207 1    
   171   86  208 1    
   172   86  209 1    
   173   87   88 2    
   174   87   89 am   BACKBONE|DICT|INTERRES
   175   89   90 1    
   176   89  210 1    
   177   90   91 1    
   178   90   92 1    
   179   90  211 1    
   180   91  212 1    
   181   91  213 1    
   182   91  214 1    
   183   92   93 2    
   184   92   94 am   BACKBONE|DICT|INTERRES
   185   94   95 1    
   186   94  215 1    
   187   95   96 1    
   188   95   97 1    
   189   95  216 1    
   190   96  217 1    
   191   96  218 1    
   192   96  219 1    
   193   97   98 2    
   194   97   99 am   BACKBONE|DICT|INTERRES
   195   99  100 1    
   196   99  220 1    
   197  100  101 1    
   198  100  102 1    
   199  100  221 1    
   200  101  222 1    
   201  101  223 1    
   202  101  224 1    
   203  102  103 2    
   204  102  104 am   BACKBONE|DICT|INTERRES
   205  104  105 1    
   206  104  225 1    
   207  105  106 1    
   208  105  107 1    
   209  105  226 1    
   210  106  227 1    
   211  106  228 1    
   212  106  229 1    
   213  107  108 2    
   214  107  109 am   BACKBONE|DICT|INTERRES
   215  109  110 1    
   216  109  230 1    
   217  110  111 1    
   218  110  112 1    
   219  110  231 1    
   220  111  232 1    
   221  111  233 1    
   222  111  234 1    
   223  112  113 2    
   224  112  114 am   BACKBONE|DICT|INTERRES
   225  114  115 1    
   226  114  235 1    
   227  115  116 1    
   228  115  117 1    
   229  115  236 1    
   230  116  237 1    
   231  116  238 1    
   232  116  239 1    
   233  117  118 2    
   234  117  119 am   BACKBONE|DICT|INTERRES
   235  119  120 1    
   236  119  240 1    
   237  120  121 1    
   238  120  124 1    
   239  120  241 1    
   240  121  122 am   BACKBONE|DICT|INTERRES
   241  121  123 2    
   242  122  242 1    
   243  122  243 1    
   244  124  125 1    
   245  124  244 1    
   246  124  245 1    
   247  125  126 1    
   248  126  246 1    
   249  126  247 1    
@<TRIPOS>SUBSTRUCTURE
     1 UNK         1 GROUP             0       ****    0 ROOT    
