@<TRIPOS>MOLECULE
3R540
247   249    1
SMALL
USER_CHARGES


@<TRIPOS>ATOM
      1 CA          8.0106  -10.9949  -48.3818 C.3       0 UNK        -0.1800 
      2 C           6.6257  -11.3815  -48.8817 C.2       0 UNK         0.5000 
      3 O           6.3254  -11.1811  -50.0585 O.2       0 UNK        -0.5000 
      4 N           5.7900  -11.9315  -47.9900 N.am      1 UNK        -0.5000 
      5 CA          4.4136  -12.3818  -48.2420 C.3       1 UNK         0.1400 
      6 C6          4.3154  -13.6211  -49.1709 C.3       23 UNK        -0.0398 
      7 S7          4.9953  -15.1040  -48.3569 S.3       23 UNK        -0.2404 
      8 C8          3.4971  -15.7893  -47.5762 C.3       23 UNK        -0.0205 
      9 C9          2.7271  -16.6918  -48.5282 C.ar      23 UNK        -0.0193 
     10 C10         1.6848  -16.1848  -49.3107 C.ar      23 UNK        -0.1150 
     11 C11         1.0162  -17.0103  -50.2193 C.ar      23 UNK        -0.0193 
     12 C12         1.3683  -18.3612  -50.3115 C.ar      23 UNK        -0.1150 
     13 C13         2.3974  -18.8846  -49.5227 C.ar      23 UNK        -0.0193 
     14 C14         3.0758  -18.0402  -48.6387 C.ar      23 UNK        -0.1150 
     15 C15         2.8242  -20.3402  -49.6766 C.3       23 UNK        -0.0205 
     16 S16         2.8582  -21.2455  -48.0946 S.3       23 UNK        -0.2404 
     17 C17         1.0845  -21.5152  -47.7786 C.3       23 UNK        -0.0398 
     18 CA          0.8101  -22.9272  -47.2136 C.3       11 UNK         0.1400 
     19 N           1.4663  -23.1397  -45.9207 N.am      11 UNK        -0.5000 
     20 C           1.5959  -24.3273  -45.3149 C.2       10 UNK         0.5000 
     21 O           1.1968  -25.3867  -45.7944 O.2       10 UNK        -0.5000 
     22 CA          2.2322  -24.3175  -43.9135 C.3       10 UNK         0.1400 
     23 CB          3.7640  -24.3484  -44.0142 C.3       10 UNK        -0.1800 
     24 N           1.8235  -23.1585  -43.1187 N.am      10 UNK        -0.5000 
     25 C           0.5696  -22.8811  -42.7418 C.2       9 UNK         0.5000 
     26 O          -0.3915  -23.6031  -43.0034 O.2       9 UNK        -0.5000 
     27 CA          0.3325  -21.5545  -42.0005 C.3       9 UNK         0.1400 
     28 CB          0.6762  -21.6708  -40.5044 C.3       9 UNK        -0.1800 
     29 N           0.9926  -20.4034  -42.6256 N.am      9 UNK        -0.5000 
     30 C           2.2973  -20.1037  -42.7110 C.2       8 UNK         0.5000 
     31 O           3.2015  -20.8173  -42.2758 O.2       8 UNK        -0.5000 
     32 CA          2.6468  -18.7844  -43.4227 C.3       8 UNK         0.1400 
     33 CB          2.8539  -19.0285  -44.9249 C.3       8 UNK        -0.1800 
     34 N           1.6135  -17.7643  -43.2299 N.am      8 UNK        -0.5000 
     35 C           1.4042  -17.1102  -42.0774 C.2       7 UNK         0.5000 
     36 O           2.1285  -17.2199  -41.0875 O.2       7 UNK        -0.5000 
     37 CA          0.1660  -16.1989  -42.0097 C.3       7 UNK         0.1400 
     38 CB          0.5227  -14.7665  -42.4326 C.3       7 UNK        -0.1800 
     39 N          -0.9292  -16.6992  -42.8431 N.am      7 UNK        -0.5000 
     40 C          -1.7461  -17.7022  -42.4856 C.2       6 UNK         0.5000 
     41 O          -1.6941  -18.2653  -41.3923 O.2       6 UNK        -0.5000 
     42 CA         -2.7791  -18.1822  -43.5255 C.3       6 UNK         0.1400 
     43 CB         -4.1142  -17.4462  -43.3413 C.3       6 UNK        -0.1800 
     44 N          -2.3321  -18.0172  -44.9088 N.am      6 UNK        -0.5000 
     45 C          -1.2879  -18.6503  -45.4580 C.2       5 UNK         0.5000 
     46 O          -0.6378  -19.5194  -44.8759 O.2       5 UNK        -0.5000 
     47 CA         -0.8791  -18.2323  -46.8836 C.3       5 UNK         0.1400 
     48 CB         -1.5046  -19.1974  -47.9016 C.3       5 UNK        -0.1800 
     49 N          -1.2362  -16.8673  -47.2824 N.am      5 UNK        -0.5000 
     50 C          -1.0111  -15.7203  -46.6290 C.2       4 UNK         0.5000 
     51 O          -0.4798  -15.6542  -45.5185 O.2       4 UNK        -0.5000 
     52 CA         -1.5418  -14.4537  -47.3320 C.3       4 UNK         0.1400 
     53 CB         -3.0740  -14.5083  -47.4710 C.3       4 UNK        -0.1800 
     54 N          -1.1960  -13.2192  -46.6286 N.am      4 UNK        -0.5000 
     55 C           0.0068  -12.6371  -46.6466 C.2       3 UNK         0.5000 
     56 O           0.9788  -13.0829  -47.2621 O.2       3 UNK        -0.5000 
     57 CA          0.1382  -11.3412  -45.8245 C.3       3 UNK         0.1400 
     58 CB          0.4047  -11.6655  -44.3469 C.3       3 UNK        -0.1800 
     59 N           1.2432  -10.5341  -46.3324 N.am      3 UNK        -0.5000 
     60 C           1.1509   -9.6145  -47.3030 C.2       2 UNK         0.5000 
     61 O           0.0856   -9.2037  -47.7646 O.2       2 UNK        -0.5000 
     62 CA          2.4873   -9.0977  -47.8776 C.3       2 UNK         0.1400 
     63 CB          2.9900   -7.8816  -47.0848 C.3       2 UNK        -0.1800 
     64 N           3.5126  -10.1446  -47.8636 N.am      2 UNK        -0.5000 
     65 C           3.4872  -11.2215  -48.6628 C.2       1 UNK         0.5000 
     66 O           2.7578  -11.3191  -49.6518 O.2       1 UNK        -0.5000 
     67 C          -0.7036  -23.2052  -47.1237 C.2       11 UNK         0.5000 
     68 O          -1.2548  -23.8503  -48.0145 O.2       11 UNK        -0.5000 
     69 N          -1.3428  -22.7621  -46.0312 N.am      12 UNK        -0.5000 
     70 CA         -2.7515  -23.0363  -45.7470 C.3       12 UNK         0.1400 
     71 CB         -3.2406  -22.1320  -44.6076 C.3       12 UNK        -0.1800 
     72 C          -3.0142  -24.5232  -45.4474 C.2       12 UNK         0.5000 
     73 O          -3.9945  -25.0725  -45.9491 O.2       12 UNK        -0.5000 
     74 N          -2.1088  -25.1657  -44.6954 N.am      13 UNK        -0.5000 
     75 CA         -2.1259  -26.6050  -44.4138 C.3       13 UNK         0.1400 
     76 CB         -1.0495  -26.9360  -43.3696 C.3       13 UNK        -0.1800 
     77 C          -1.9463  -27.4698  -45.6784 C.2       13 UNK         0.5000 
     78 O          -2.5688  -28.5264  -45.7870 O.2       13 UNK        -0.5000 
     79 N          -1.1387  -26.9818  -46.6299 N.am      14 UNK        -0.5000 
     80 CA         -0.9439  -27.5599  -47.9620 C.3       14 UNK         0.1400 
     81 CB          0.3866  -27.0431  -48.5342 C.3       14 UNK        -0.1800 
     82 C          -2.1051  -27.2736  -48.9406 C.2       14 UNK         0.5000 
     83 O          -2.0624  -27.7588  -50.0719 O.2       14 UNK        -0.5000 
     84 N          -3.1075  -26.4957  -48.5034 N.am      15 UNK        -0.5000 
     85 CA         -4.2965  -26.0605  -49.2420 C.3       15 UNK         0.1400 
     86 CB         -5.1671  -27.2621  -49.6661 C.3       15 UNK        -0.1800 
     87 C          -3.9840  -25.0964  -50.4051 C.2       15 UNK         0.5000 
     88 O          -4.7577  -25.0158  -51.3596 O.2       15 UNK        -0.5000 
     89 N          -2.8865  -24.3384  -50.2869 N.am      16 UNK        -0.5000 
     90 CA         -2.4910  -23.2665  -51.1985 C.3       16 UNK         0.1400 
     91 CB         -0.9622  -23.3033  -51.3807 C.3       16 UNK        -0.1800 
     92 C          -2.9939  -21.9132  -50.6584 C.2       16 UNK         0.5000 
     93 O          -2.2264  -20.9532  -50.5744 O.2       16 UNK        -0.5000 
     94 N          -4.2783  -21.8663  -50.2925 N.am      17 UNK        -0.5000 
     95 CA         -4.9790  -20.7212  -49.7246 C.3       17 UNK         0.1400 
     96 CB         -4.9134  -20.8064  -48.1894 C.3       17 UNK        -0.1800 
     97 C          -6.4355  -20.7349  -50.2143 C.2       17 UNK         0.5000 
     98 O          -6.8722  -21.7226  -50.8131 O.2       17 UNK        -0.5000 
     99 N          -7.1623  -19.6438  -49.9337 N.am      18 UNK        -0.5000 
    100 CA        -8.5924  -19.4433  -50.1965 C.3       18 UNK         0.1400 
    101 CB        -9.4353  -20.3051  -49.2292 C.3       18 UNK        -0.1800 
    102 C         -8.9459  -19.6465  -51.6844 C.2       18 UNK         0.5000 
    103 O         -8.5594  -18.8184  -52.5104 O.2       18 UNK        -0.5000 
    104 N         -9.6299  -20.7536  -52.0061 N.am      19 UNK        -0.5000 
    105 CA       -10.0464  -21.1544  -53.3534 C.3       19 UNK         0.1400 
    106 CB       -10.8988  -22.4283  -53.2487 C.3       19 UNK        -0.1800 
    107 C         -8.8869  -21.3628  -54.3499 C.2       19 UNK         0.5000 
    108 O         -9.1113  -21.2730  -55.5575 O.2       19 UNK        -0.5000 
    109 N         -7.6695  -21.6038  -53.8411 N.am      20 UNK        -0.5000 
    110 CA        -6.4395  -21.6768  -54.6341 C.3       20 UNK         0.1400 
    111 CB        -5.3566  -22.3815  -53.8037 C.3       20 UNK        -0.1800 
    112 C         -5.9302  -20.2984  -55.1112 C.2       20 UNK         0.5000 
    113 O         -5.0049  -20.2577  -55.9219 O.2       20 UNK        -0.5000 
    114 N         -6.5121  -19.2053  -54.5881 N.am      21 UNK        -0.5000 
    115 CA        -6.1610  -17.7994  -54.8299 C.3       21 UNK         0.1400 
    116 CB        -6.3527  -17.4180  -56.3131 C.3       21 UNK        -0.1800 
    117 C         -4.7708  -17.4167  -54.2767 C.2       21 UNK         0.5000 
    118 O         -4.1447  -16.4822  -54.7786 O.2       21 UNK        -0.5000 
    119 N         -4.3450  -18.1336  -53.2275 N.am      22 UNK        -0.5000 
    120 CA        -3.0457  -18.0557  -52.5470 C.3       22 UNK         0.1400 
    121 C         -1.8923  -18.6639  -53.3936 C.2       22 UNK         0.5000 
    122 N         -1.2467  -19.7121  -52.9028 N.am      22 UNK        -0.7600 
    123 O         -1.5485  -18.1760  -54.4667 O.2       22 UNK        -0.5000 
    124 C124       -2.7113  -16.6322  -52.0214 C.3       23 UNK        -0.0398 
    125 S125       -1.7222  -16.6960  -50.4928 S.3       23 UNK        -0.2404 
    126 C126       -0.0462  -16.4372  -51.1446 C.3       23 UNK        -0.0205 
    127 H127        8.7752  -11.5302  -48.9448 H         1 UNK         0.0600 
    128 H128        8.1411  -11.2287  -47.3249 H         1 UNK         0.0600 
    129 H129        8.1728   -9.9254  -48.5159 H         1 UNK         0.0600 
    130 H130        6.1185  -12.0725  -47.0448 H         1 UNK         0.3000 
    131 H131        4.0249  -12.6877  -47.2691 H         1 UNK         0.0600 
    132 H132        3.2815  -13.8254  -49.4479 H         1 UNK         0.0800 
    133 H133        4.8469  -13.4521  -50.1079 H         1 UNK         0.0800 
    134 H134        3.8023  -16.3552  -46.6971 H         1 UNK         0.0800 
    135 H135        2.8578  -14.9865  -47.2068 H         1 UNK         0.0800 
    136 H136        1.4096  -15.1427  -49.2307 H         1 UNK         0.1150 
    137 H137        0.8527  -18.9979  -51.0166 H         1 UNK         0.1150 
    138 H138        3.8892  -18.4321  -48.0442 H         1 UNK         0.1150 
    139 H139        2.1817  -20.8675  -50.3837 H         1 UNK         0.0800 
    140 H140        3.8267  -20.3581  -50.1057 H         1 UNK         0.0800 
    141 H141        0.5275  -21.3582  -48.7045 H         1 UNK         0.0800 
    142 H142        0.7515  -20.7509  -47.0775 H         1 UNK         0.0800 
    143 H143        1.2230  -23.6541  -47.9167 H         1 UNK         0.0600 
    144 H144        1.8368  -22.3220  -45.4611 H         1 UNK         0.3000 
    145 H145        1.9030  -25.2169  -43.3897 H         1 UNK         0.0600 
    146 H146        4.2221  -24.4178  -43.0274 H         1 UNK         0.0600 
    147 H147        4.1542  -23.4543  -44.5025 H         1 UNK         0.0600 
    148 H148        4.1003  -25.2117  -44.5900 H         1 UNK         0.0600 
    149 H149        2.5462  -22.4945  -42.8535 H         1 UNK         0.3000 
    150 H150       -0.7362  -21.3452  -42.0714 H         1 UNK         0.0600 
    151 H151        0.0890  -22.4597  -40.0329 H         1 UNK         0.0600 
    152 H152        0.4550  -20.7418  -39.9786 H         1 UNK         0.0600 
    153 H153        1.7277  -21.9075  -40.3408 H         1 UNK         0.0600 
    154 H154        0.3610  -19.7922  -43.1318 H         1 UNK         0.3000 
    155 H155        3.5848  -18.4139  -43.0038 H         1 UNK         0.0600 
    156 H156        3.6578  -19.7451  -45.0982 H         1 UNK         0.0600 
    157 H157        3.1252  -18.1081  -45.4371 H         1 UNK         0.0600 
    158 H158        1.9582  -19.4230  -45.4024 H         1 UNK         0.0600 
    159 H159        0.9706  -17.6105  -43.9927 H         1 UNK         0.3000 
    160 H160       -0.1690  -16.1670  -40.9706 H         1 UNK         0.0600 
    161 H161        0.8975  -14.7269  -43.4557 H         1 UNK         0.0600 
    162 H162        1.2957  -14.3501  -41.7856 H         1 UNK         0.0600 
    163 H163       -0.3455  -14.1113  -42.3649 H         1 UNK         0.0600 
    164 H164       -0.9977  -16.3052  -43.7778 H         1 UNK         0.3000 
    165 H165       -2.9481  -19.2460  -43.3488 H         1 UNK         0.0600 
    166 H166       -4.8762  -17.8365  -44.0162 H         1 UNK         0.0600 
    167 H167       -4.4899  -17.5670  -42.3243 H         1 UNK         0.0600 
    168 H168       -4.0132  -16.3765  -43.5295 H         1 UNK         0.0600 
    169 H169       -2.8071  -17.3179  -45.4591 H         1 UNK         0.3000 
    170 H170        0.2076  -18.3161  -46.9428 H         1 UNK         0.0600 
    171 H171       -2.5448  -18.9433  -48.1048 H         1 UNK         0.0600 
    172 H172       -1.4904  -20.2304  -47.5556 H         1 UNK         0.0600 
    173 H173       -0.9690  -19.1684  -48.8497 H         1 UNK         0.0600 
    174 H174       -1.6511  -16.7988  -48.2029 H         1 UNK         0.3000 
    175 H175       -1.1024  -14.4181  -48.3313 H         1 UNK         0.0600 
    176 H176       -3.5641  -14.5800  -46.4991 H         1 UNK         0.0600 
    177 H177       -3.4547  -13.6181  -47.9723 H         1 UNK         0.0600 
    178 H178       -3.3944  -15.3653  -48.0645 H         1 UNK         0.0600 
    179 H179       -1.9250  -12.8131  -46.0610 H         1 UNK         0.3000 
    180 H180       -0.7944  -10.7774  -45.8974 H         1 UNK         0.0600 
    181 H181        0.5182  -10.7557  -43.7570 H         1 UNK         0.0600 
    182 H182        1.3088  -12.2626  -44.2209 H         1 UNK         0.0600 
    183 H183       -0.4246  -12.2279  -43.9173 H         1 UNK         0.0600 
    184 H184        2.1648  -10.8360  -46.0567 H         1 UNK         0.3000 
    185 H185        2.3150   -8.7874  -48.9104 H         1 UNK         0.0600 
    186 H186        3.9098   -7.4842  -47.5143 H         1 UNK         0.0600 
    187 H187        2.2526   -7.0779  -47.0968 H         1 UNK         0.0600 
    188 H188        3.1862   -8.1314  -46.0414 H         1 UNK         0.0600 
    189 H189        4.1831  -10.1156  -47.1091 H         1 UNK         0.3000 
    190 H190       -0.8256  -22.2591  -45.3250 H         1 UNK         0.3000 
    191 H191       -3.3266  -22.7877  -46.6402 H         1 UNK         0.0600 
    192 H192       -3.1674  -21.0823  -44.8893 H         1 UNK         0.0600 
    193 H193       -2.6639  -22.2783  -43.6944 H         1 UNK         0.0600 
    194 H194       -4.2868  -22.3311  -44.3723 H         1 UNK         0.0600 
    195 H195       -1.3628  -24.6264  -44.2634 H         1 UNK         0.3000 
    196 H196       -3.1004  -26.8465  -43.9846 H         1 UNK         0.0600 
    197 H197       -1.1991  -26.3645  -42.4533 H         1 UNK         0.0600 
    198 H198       -0.0484  -26.7175  -43.7406 H         1 UNK         0.0600 
    199 H199       -1.0768  -27.9932  -43.1028 H         1 UNK         0.0600 
    200 H200       -0.6026  -26.1455  -46.4242 H         1 UNK         0.3000 
    201 H201       -0.8693  -28.6443  -47.8602 H         1 UNK         0.0600 
    202 H202        1.2202  -27.2858  -47.8751 H         1 UNK         0.0600 
    203 H203        0.3717  -25.9618  -48.6714 H         1 UNK         0.0600 
    204 H204        0.6006  -27.4935  -49.5041 H         1 UNK         0.0600 
    205 H205       -3.0437  -26.1362  -47.5588 H         1 UNK         0.3000 
    206 H206       -4.8836  -25.4763  -48.5324 H         1 UNK         0.0600 
    207 H207       -4.6912  -27.8543  -50.4479 H         1 UNK         0.0600 
    208 H208       -5.3695  -27.9201  -48.8210 H         1 UNK         0.0600 
    209 H209       -6.1304  -26.9285  -50.0534 H         1 UNK         0.0600 
    210 H210       -2.3315  -24.4072  -49.4363 H         1 UNK         0.3000 
    211 H211       -2.9462  -23.4176  -52.1790 H         1 UNK         0.0600 
    212 H212       -0.4362  -23.0869  -50.4509 H         1 UNK         0.0600 
    213 H213       -0.6384  -22.5691  -52.1189 H         1 UNK         0.0600 
    214 H214       -0.6318  -24.2814  -51.7306 H         1 UNK         0.0600 
    215 H215       -4.8715  -22.6659  -50.4790 H         1 UNK         0.3000 
    216 H216       -4.5133  -19.7934  -50.0603 H         1 UNK         0.0600 
    217 H217       -5.3661  -19.9315  -47.7219 H         1 UNK         0.0600 
    218 H218       -3.8833  -20.8600  -47.8423 H         1 UNK         0.0600 
    219 H219       -5.4343  -21.6884  -47.8142 H         1 UNK         0.0600 
    220 H220       -6.7052  -18.8730  -49.4675 H         1 UNK         0.3000 
    221 H221       -8.8077  -18.3969  -49.9754 H         1 UNK         0.0600 
    222 H222       -9.2336  -21.3713  -49.3384 H         1 UNK         0.0600 
    223 H223       -9.2258  -20.0390  -48.1931 H         1 UNK         0.0600 
    224 H224      -10.5029  -20.1478  -49.3887 H         1 UNK         0.0600 
    225 H225       -9.8619  -21.3944  -51.2611 H         1 UNK         0.3000 
    226 H226      -10.6732  -20.3548  -53.7532 H         1 UNK         0.0600 
    227 H227      -11.7764  -22.2665  -52.6225 H         1 UNK         0.0600 
    228 H228      -11.2561  -22.7427  -54.2303 H         1 UNK         0.0600 
    229 H229      -10.3305  -23.2573  -52.8251 H         1 UNK         0.0600 
    230 H230       -7.5675  -21.6793  -52.8345 H         1 UNK         0.3000 
    231 H231       -6.6348  -22.2815  -55.5221 H         1 UNK         0.0600 
    232 H232       -4.4588  -22.5576  -54.3974 H         1 UNK         0.0600 
    233 H233       -5.7004  -23.3496  -53.4389 H         1 UNK         0.0600 
    234 H234       -5.0655  -21.7806  -52.9438 H         1 UNK         0.0600 
    235 H235       -7.2692  -19.3375  -53.9240 H         1 UNK         0.3000 
    236 H236       -6.8783  -17.2143  -54.2527 H         1 UNK         0.0600 
    237 H237       -5.6078  -17.8890  -56.9547 H         1 UNK         0.0600 
    238 H238       -7.3395  -17.7112  -56.6712 H         1 UNK         0.0600 
    239 H239       -6.2655  -16.3399  -56.4528 H         1 UNK         0.0600 
    240 H240       -4.9475  -18.8817  -52.9213 H         1 UNK         0.3000 
    241 H241       -3.1819  -18.6969  -51.6765 H         1 UNK         0.0600 
    242 H242       -0.4882  -20.1113  -53.4311 H         1 UNK         0.3800 
    243 H243       -1.5104  -20.1180  -52.0062 H         1 UNK         0.3800 
    244 H244       -2.2174  -16.0214  -52.7794 H         1 UNK         0.0800 
    245 H245       -3.6309  -16.1026  -51.7696 H         1 UNK         0.0800 
    246 H246        0.1162  -15.3695  -51.2994 H         1 UNK         0.0800 
    247 H247        0.0514  -16.9037  -52.1255 H         1 UNK         0.0800 
@<TRIPOS>BOND
     1    1    2 1    
     2    1  127 1    
     3    1  128 1    
     4    1  129 1    
     5    2    3 2    
     6    2    4 am   BACKBONE|DICT|INTERRES
     7    4    5 1    
     8    4  130 1    
     9    5    6 1    
    10    5   65 1    
    11    5  131 1    
    12    6    7 1    
    13    6  132 1    
    14    6  133 1    
    15    7    8 1    
    16    8    9 1    
    17    8  134 1    
    18    8  135 1    
    19    9   10 ar   
    20    9   14 ar   
    21   10   11 ar   
    22   10  136 1    
    23   11   12 ar   
    24   11  126 1    
    25   12   13 ar   
    26   12  137 1    
    27   13   14 ar   
    28   13   15 1    
    29   14  138 1    
    30   15   16 1    
    31   15  139 1    
    32   15  140 1    
    33   16   17 1    
    34   17   18 1    
    35   17  141 1    
    36   17  142 1    
    37   18   19 1    
    38   18   67 1    
    39   18  143 1    
    40   19   20 am   BACKBONE|DICT|INTERRES
    41   19  144 1    
    42   20   21 2    
    43   20   22 1    
    44   22   23 1    
    45   22   24 1    
    46   22  145 1    
    47   23  146 1    
    48   23  147 1    
    49   23  148 1    
    50   24   25 am   BACKBONE|DICT|INTERRES
    51   24  149 1    
    52   25   26 2    
    53   25   27 1    
    54   27   28 1    
    55   27   29 1    
    56   27  150 1    
    57   28  151 1    
    58   28  152 1    
    59   28  153 1    
    60   29   30 am   BACKBONE|DICT|INTERRES
    61   29  154 1    
    62   30   31 2    
    63   30   32 1    
    64   32   33 1    
    65   32   34 1    
    66   32  155 1    
    67   33  156 1    
    68   33  157 1    
    69   33  158 1    
    70   34   35 am   BACKBONE|DICT|INTERRES
    71   34  159 1    
    72   35   36 2    
    73   35   37 1    
    74   37   38 1    
    75   37   39 1    
    76   37  160 1    
    77   38  161 1    
    78   38  162 1    
    79   38  163 1    
    80   39   40 am   BACKBONE|DICT|INTERRES
    81   39  164 1    
    82   40   41 2    
    83   40   42 1    
    84   42   43 1    
    85   42   44 1    
    86   42  165 1    
    87   43  166 1    
    88   43  167 1    
    89   43  168 1    
    90   44   45 am   BACKBONE|DICT|INTERRES
    91   44  169 1    
    92   45   46 2    
    93   45   47 1    
    94   47   48 1    
    95   47   49 1    
    96   47  170 1    
    97   48  171 1    
    98   48  172 1    
    99   48  173 1    
   100   49   50 am   BACKBONE|DICT|INTERRES
   101   49  174 1    
   102   50   51 2    
   103   50   52 1    
   104   52   53 1    
   105   52   54 1    
   106   52  175 1    
   107   53  176 1    
   108   53  177 1    
   109   53  178 1    
   110   54   55 am   BACKBONE|DICT|INTERRES
   111   54  179 1    
   112   55   56 2    
   113   55   57 1    
   114   57   58 1    
   115   57   59 1    
   116   57  180 1    
   117   58  181 1    
   118   58  182 1    
   119   58  183 1    
   120   59   60 am   BACKBONE|DICT|INTERRES
   121   59  184 1    
   122   60   61 2    
   123   60   62 1    
   124   62   63 1    
   125   62   64 1    
   126   62  185 1    
   127   63  186 1    
   128   63  187 1    
   129   63  188 1    
   130   64   65 am   BACKBONE|DICT|INTERRES
   131   64  189 1    
   132   65   66 2    
   133   67   68 2    
   134   67   69 am   BACKBONE|DICT|INTERRES
   135   69   70 1    
   136   69  190 1    
   137   70   71 1    
   138   70   72 1    
   139   70  191 1    
   140   71  192 1    
   141   71  193 1    
   142   71  194 1    
   143   72   73 2    
   144   72   74 am   BACKBONE|DICT|INTERRES
   145   74   75 1    
   146   74  195 1    
   147   75   76 1    
   148   75   77 1    
   149   75  196 1    
   150   76  197 1    
   151   76  198 1    
   152   76  199 1    
   153   77   78 2    
   154   77   79 am   BACKBONE|DICT|INTERRES
   155   79   80 1    
   156   79  200 1    
   157   80   81 1    
   158   80   82 1    
   159   80  201 1    
   160   81  202 1    
   161   81  203 1    
   162   81  204 1    
   163   82   83 2    
   164   82   84 am   BACKBONE|DICT|INTERRES
   165   84   85 1    
   166   84  205 1    
   167   85   86 1    
   168   85   87 1    
   169   85  206 1    
   170   86  207 1    
   171   86  208 1    
   172   86  209 1    
   173   87   88 2    
   174   87   89 am   BACKBONE|DICT|INTERRES
   175   89   90 1    
   176   89  210 1    
   177   90   91 1    
   178   90   92 1    
   179   90  211 1    
   180   91  212 1    
   181   91  213 1    
   182   91  214 1    
   183   92   93 2    
   184   92   94 am   BACKBONE|DICT|INTERRES
   185   94   95 1    
   186   94  215 1    
   187   95   96 1    
   188   95   97 1    
   189   95  216 1    
   190   96  217 1    
   191   96  218 1    
   192   96  219 1    
   193   97   98 2    
   194   97   99 am   BACKBONE|DICT|INTERRES
   195   99  100 1    
   196   99  220 1    
   197  100  101 1    
   198  100  102 1    
   199  100  221 1    
   200  101  222 1    
   201  101  223 1    
   202  101  224 1    
   203  102  103 2    
   204  102  104 am   BACKBONE|DICT|INTERRES
   205  104  105 1    
   206  104  225 1    
   207  105  106 1    
   208  105  107 1    
   209  105  226 1    
   210  106  227 1    
   211  106  228 1    
   212  106  229 1    
   213  107  108 2    
   214  107  109 am   BACKBONE|DICT|INTERRES
   215  109  110 1    
   216  109  230 1    
   217  110  111 1    
   218  110  112 1    
   219  110  231 1    
   220  111  232 1    
   221  111  233 1    
   222  111  234 1    
   223  112  113 2    
   224  112  114 am   BACKBONE|DICT|INTERRES
   225  114  115 1    
   226  114  235 1    
   227  115  116 1    
   228  115  117 1    
   229  115  236 1    
   230  116  237 1    
   231  116  238 1    
   232  116  239 1    
   233  117  118 2    
   234  117  119 am   BACKBONE|DICT|INTERRES
   235  119  120 1    
   236  119  240 1    
   237  120  121 1    
   238  120  124 1    
   239  120  241 1    
   240  121  122 am   BACKBONE|DICT|INTERRES
   241  121  123 2    
   242  122  242 1    
   243  122  243 1    
   244  124  125 1    
   245  124  244 1    
   246  124  245 1    
   247  125  126 1    
   248  126  246 1    
   249  126  247 1    
@<TRIPOS>SUBSTRUCTURE
     1 UNK         1 GROUP             0       ****    0 ROOT    
