@<TRIPOS>MOLECULE
3R540
247   249    1
SMALL
USER_CHARGES


@<TRIPOS>ATOM
      1 CA          2.8062  -11.2383  -46.3144 C.3       0 UNK        -0.1800 
      2 C           2.6858  -12.2932  -47.4050 C.2       0 UNK         0.5000 
      3 O           3.5595  -12.3829  -48.2669 O.2       0 UNK        -0.5000 
      4 N           1.6052  -13.0843  -47.3695 N.am      1 UNK        -0.5000 
      5 CA          1.2811  -14.1484  -48.3312 C.3       1 UNK         0.1400 
      6 C6          2.3446  -15.2819  -48.3761 C.3       23 UNK        -0.0398 
      7 S7          1.6237  -16.9052  -48.7980 S.3       23 UNK        -0.2404 
      8 C8          2.6277  -17.3821  -50.2360 C.3       23 UNK        -0.0205 
      9 C9          1.9974  -18.5436  -50.9878 C.ar      23 UNK        -0.0193 
     10 C10         1.3548  -18.3180  -52.2055 C.ar      23 UNK        -0.1150 
     11 C11         0.7693  -19.3729  -52.9063 C.ar      23 UNK        -0.0193 
     12 C12         0.8195  -20.6638  -52.3713 C.ar      23 UNK        -0.1150 
     13 C13         1.4597  -20.9135  -51.1513 C.ar      23 UNK        -0.0193 
     14 C14         2.0570  -19.8411  -50.4715 C.ar      23 UNK        -0.1150 
     15 C15         1.4526  -22.3488  -50.6138 C.3       23 UNK        -0.0205 
     16 S16         2.5744  -22.7003  -49.2149 S.3       23 UNK        -0.2404 
     17 C17         1.6689  -21.9984  -47.7914 C.3       23 UNK        -0.0398 
     18 CA          1.0501  -23.0908  -46.8848 C.3       11 UNK         0.1400 
     19 N           0.9850  -22.6910  -45.4764 N.am      11 UNK        -0.5000 
     20 C           0.7271  -23.5345  -44.4658 C.2       10 UNK         0.5000 
     21 O           0.5213  -24.7392  -44.6203 O.2       10 UNK        -0.5000 
     22 CA          0.6530  -22.9290  -43.0514 C.3       10 UNK         0.1400 
     23 CB          2.0565  -22.6218  -42.5079 C.3       10 UNK        -0.1800 
     24 N          -0.1688  -21.7203  -42.9995 N.am      10 UNK        -0.5000 
     25 C          -1.4873  -21.6898  -43.2414 C.2       9 UNK         0.5000 
     26 O          -2.1634  -22.6906  -43.4850 O.2       9 UNK        -0.5000 
     27 CA         -2.1487  -20.2975  -43.2726 C.3       9 UNK         0.1400 
     28 CB         -2.4471  -19.7918  -41.8534 C.3       9 UNK        -0.1800 
     29 N          -1.3433  -19.3056  -43.9889 N.am      9 UNK        -0.5000 
     30 C          -1.0010  -19.4097  -45.2807 C.2       8 UNK         0.5000 
     31 O          -1.3568  -20.3301  -46.0086 O.2       8 UNK        -0.5000 
     32 CA         -0.0557  -18.3436  -45.8444 C.3       8 UNK         0.1400 
     33 CB         -0.8332  -17.0641  -46.1842 C.3       8 UNK        -0.1800 
     34 N           1.0450  -18.0600  -44.9234 N.am      8 UNK        -0.5000 
     35 C           2.0133  -18.9396  -44.6230 C.2       7 UNK         0.5000 
     36 O           2.0930  -20.0617  -45.1187 O.2       7 UNK        -0.5000 
     37 CA          3.0388  -18.5181  -43.5559 C.3       7 UNK         0.1400 
     38 CB          4.1771  -17.7104  -44.1967 C.3       7 UNK        -0.1800 
     39 N           2.4360  -17.7341  -42.4797 N.am      7 UNK        -0.5000 
     40 C           1.5059  -18.1864  -41.6251 C.2       6 UNK         0.5000 
     41 O           1.1131  -19.3529  -41.5927 O.2       6 UNK        -0.5000 
     42 CA          0.8577  -17.1262  -40.7118 C.3       6 UNK         0.1400 
     43 CB          1.6850  -16.9280  -39.4333 C.3       6 UNK        -0.1800 
     44 N           0.7008  -15.8395  -41.4021 N.am      6 UNK        -0.5000 
     45 C          -0.1091  -15.6597  -42.4536 C.2       5 UNK         0.5000 
     46 O          -0.8985  -16.5196  -42.8542 O.2       5 UNK        -0.5000 
     47 CA          0.0523  -14.3481  -43.2374 C.3       5 UNK         0.1400 
     48 CB          1.3254  -14.4270  -44.1119 C.3       5 UNK        -0.1800 
     49 N          -1.1651  -14.1353  -44.0248 N.am      5 UNK        -0.5000 
     50 C          -1.3913  -13.2389  -44.9912 C.2       4 UNK         0.5000 
     51 O          -0.5273  -12.5044  -45.4816 O.2       4 UNK        -0.5000 
     52 CA         -2.8416  -13.1371  -45.4938 C.3       4 UNK         0.1400 
     53 CB         -3.7544  -12.5456  -44.3996 C.3       4 UNK        -0.1800 
     54 N          -2.8483  -12.2907  -46.6835 N.am      4 UNK        -0.5000 
     55 C          -3.8718  -12.0615  -47.5171 C.2       3 UNK         0.5000 
     56 O          -4.9998  -12.5321  -47.3728 O.2       3 UNK        -0.5000 
     57 CA         -3.5666  -11.1732  -48.7329 C.3       3 UNK         0.1400 
     58 CB         -3.6012   -9.6838  -48.3389 C.3       3 UNK        -0.1800 
     59 N          -2.2682  -11.5474  -49.2916 N.am      3 UNK        -0.5000 
     60 C          -1.7576  -11.1644  -50.4688 C.2       2 UNK         0.5000 
     61 O          -2.3215  -10.3828  -51.2359 O.2       2 UNK        -0.5000 
     62 CA         -0.3782  -11.7456  -50.8464 C.3       2 UNK         0.1400 
     63 CB          0.5764  -10.6671  -51.3889 C.3       2 UNK        -0.1800 
     64 N           0.2470  -12.4052  -49.6977 N.am      2 UNK        -0.5000 
     65 C           0.8758  -13.5864  -49.7163 C.2       1 UNK         0.5000 
     66 O           1.1070  -14.2156  -50.7495 O.2       1 UNK        -0.5000 
     67 C          -0.3152  -23.5728  -47.4138 C.2       11 UNK         0.5000 
     68 O          -0.3554  -24.5625  -48.1406 O.2       11 UNK        -0.5000 
     69 N          -1.4095  -22.9123  -47.0070 N.am      12 UNK        -0.5000 
     70 CA         -2.7833  -23.2945  -47.3355 C.3       12 UNK         0.1400 
     71 CB         -3.7763  -22.2479  -46.8027 C.3       12 UNK        -0.1800 
     72 C          -3.1534  -24.6854  -46.8034 C.2       12 UNK         0.5000 
     73 O          -3.7457  -25.4742  -47.5389 O.2       12 UNK        -0.5000 
     74 N          -2.7652  -24.9718  -45.5529 N.am      13 UNK        -0.5000 
     75 CA         -2.9483  -26.2737  -44.9130 C.3       13 UNK         0.1400 
     76 CB         -2.5982  -26.1635  -43.4213 C.3       13 UNK        -0.1800 
     77 C          -2.1303  -27.3905  -45.5889 C.2       13 UNK         0.5000 
     78 O          -2.6269  -28.5099  -45.7178 O.2       13 UNK        -0.5000 
     79 N          -0.9037  -27.0645  -46.0187 N.am      14 UNK        -0.5000 
     80 CA         -0.0061  -27.9763  -46.7255 C.3       14 UNK         0.1400 
     81 CB          1.4202  -27.4042  -46.7060 C.3       14 UNK        -0.1800 
     82 C          -0.4625  -28.2634  -48.1684 C.2       14 UNK         0.5000 
     83 O          -0.5001  -29.4260  -48.5736 O.2       14 UNK        -0.5000 
     84 N          -0.7848  -27.2032  -48.9205 N.am      15 UNK        -0.5000 
     85 CA         -1.1489  -27.2692  -50.3364 C.3       15 UNK         0.1400 
     86 CB         -0.9196  -25.8900  -50.9777 C.3       15 UNK        -0.1800 
     87 C          -2.5980  -27.7229  -50.5814 C.2       15 UNK         0.5000 
     88 O          -2.8814  -28.2401  -51.6626 O.2       15 UNK        -0.5000 
     89 N          -3.4847  -27.4924  -49.6002 N.am      16 UNK        -0.5000 
     90 CA         -4.9437  -27.6340  -49.6764 C.3       16 UNK         0.1400 
     91 CB         -5.3565  -29.1090  -49.8651 C.3       16 UNK        -0.1800 
     92 C          -5.5395  -26.6819  -50.7360 C.2       16 UNK         0.5000 
     93 O          -6.3303  -27.1014  -51.5838 O.2       16 UNK        -0.5000 
     94 N          -5.1084  -25.4162  -50.6843 N.am      17 UNK        -0.5000 
     95 CA         -5.4312  -24.3650  -51.6440 C.3       17 UNK         0.1400 
     96 CB         -4.3761  -24.3692  -52.7650 C.3       17 UNK        -0.1800 
     97 C          -5.4631  -23.0072  -50.9291 C.2       17 UNK         0.5000 
     98 O          -4.9374  -22.8806  -49.8209 O.2       17 UNK        -0.5000 
     99 N          -6.0584  -22.0025  -51.5821 N.am      18 UNK        -0.5000 
    100 CA        -6.1826  -20.6298  -51.0882 C.3       18 UNK         0.1400 
    101 CB        -7.3586  -19.9481  -51.8119 C.3       18 UNK        -0.1800 
    102 C         -4.8645  -19.8403  -51.2353 C.2       18 UNK         0.5000 
    103 O         -4.7990  -18.8829  -52.0080 O.2       18 UNK        -0.5000 
    104 N         -3.8355  -20.2506  -50.4813 N.am      19 UNK        -0.5000 
    105 CA        -2.4909  -19.6598  -50.4758 C.3       19 UNK         0.1400 
    106 CB        -1.6143  -20.4086  -49.4697 C.3       19 UNK        -0.1800 
    107 C         -2.4691  -18.1508  -50.1679 C.2       19 UNK         0.5000 
    108 O         -1.6747  -17.4144  -50.7474 O.2       19 UNK        -0.5000 
    109 N         -3.3804  -17.7081  -49.2923 N.am      20 UNK        -0.5000 
    110 CA        -3.5696  -16.3039  -48.9345 C.3       20 UNK         0.1400 
    111 CB        -4.5274  -16.2277  -47.7365 C.3       20 UNK        -0.1800 
    112 C         -4.0731  -15.4266  -50.0979 C.2       20 UNK         0.5000 
    113 O         -3.8017  -14.2273  -50.0951 O.2       20 UNK        -0.5000 
    114 N         -4.7834  -16.0217  -51.0678 N.am      21 UNK        -0.5000 
    115 CA        -5.2944  -15.3172  -52.2423 C.3       21 UNK         0.1400 
    116 CB        -6.4887  -16.0813  -52.8348 C.3       21 UNK        -0.1800 
    117 C         -4.1995  -15.0978  -53.2987 C.2       21 UNK         0.5000 
    118 O         -4.1201  -14.0051  -53.8617 O.2       21 UNK        -0.5000 
    119 N         -3.3817  -16.1288  -53.5504 N.am      22 UNK        -0.5000 
    120 CA        -2.2449  -16.0627  -54.4834 C.3       22 UNK         0.1400 
    121 C         -0.9571  -15.4319  -53.8798 C.2       22 UNK         0.5000 
    122 N         -0.7601  -15.4540  -52.5693 N.am      22 UNK        -0.7600 
    123 O         -0.1400  -14.8869  -54.6154 O.2       22 UNK        -0.5000 
    124 C124       -1.9777  -17.4179  -55.1879 C.3       23 UNK        -0.0398 
    125 S125       -1.6854  -18.8165  -54.0511 S.3       23 UNK        -0.2404 
    126 C126        0.0997  -19.1093  -54.2460 C.3       23 UNK        -0.0205 
    127 H127        1.9196  -11.2051  -45.6810 H         1 UNK         0.0600 
    128 H128        2.9404  -10.2524  -46.7588 H         1 UNK         0.0600 
    129 H129        3.6684  -11.4496  -45.6824 H         1 UNK         0.0600 
    130 H130        0.9188  -12.9345  -46.6328 H         1 UNK         0.3000 
    131 H131        0.3611  -14.5803  -47.9376 H         1 UNK         0.0600 
    132 H132        3.1605  -15.0282  -49.0545 H         1 UNK         0.0800 
    133 H133        2.8035  -15.3971  -47.3933 H         1 UNK         0.0800 
    134 H134        3.6306  -17.6547  -49.9053 H         1 UNK         0.0800 
    135 H135        2.7397  -16.5235  -50.8999 H         1 UNK         0.0800 
    136 H136        1.3070  -17.3165  -52.6086 H         1 UNK         0.1150 
    137 H137        0.3544  -21.4781  -52.9089 H         1 UNK         0.1150 
    138 H138        2.5578  -19.9924  -49.5277 H         1 UNK         0.1150 
    139 H139        0.4360  -22.6257  -50.3340 H         1 UNK         0.0800 
    140 H140        1.7334  -23.0200  -51.4266 H         1 UNK         0.0800 
    141 H141        0.9253  -21.2682  -48.1132 H         1 UNK         0.0800 
    142 H142        2.4128  -21.4317  -47.2326 H         1 UNK         0.0800 
    143 H143        1.7173  -23.9553  -46.9090 H         1 UNK         0.0600 
    144 H144        1.1818  -21.7148  -45.2711 H         1 UNK         0.3000 
    145 H145        0.1931  -23.6726  -42.3971 H         1 UNK         0.0600 
    146 H146        2.0097  -22.2564  -41.4818 H         1 UNK         0.0600 
    147 H147        2.6792  -23.5173  -42.5073 H         1 UNK         0.0600 
    148 H148        2.5667  -21.8674  -43.1067 H         1 UNK         0.0600 
    149 H149        0.3035  -20.8530  -42.7675 H         1 UNK         0.3000 
    150 H150       -3.0979  -20.3954  -43.8035 H         1 UNK         0.0600 
    151 H151       -3.0872  -20.4934  -41.3171 H         1 UNK         0.0600 
    152 H152       -2.9634  -18.8319  -41.8778 H         1 UNK         0.0600 
    153 H153       -1.5364  -19.6657  -41.2680 H         1 UNK         0.0600 
    154 H154       -1.0356  -18.4931  -43.4659 H         1 UNK         0.3000 
    155 H155        0.3756  -18.7337  -46.7688 H         1 UNK         0.0600 
    156 H156       -0.1668  -16.2583  -46.4808 H         1 UNK         0.0600 
    157 H157       -1.5096  -17.2508  -47.0170 H         1 UNK         0.0600 
    158 H158       -1.4388  -16.7107  -45.3514 H         1 UNK         0.0600 
    159 H159        1.0144  -17.1814  -44.4325 H         1 UNK         0.3000 
    160 H160        3.4613  -19.4253  -43.1191 H         1 UNK         0.0600 
    161 H161        3.8158  -16.7798  -44.6366 H         1 UNK         0.0600 
    162 H162        4.6604  -18.2816  -44.9906 H         1 UNK         0.0600 
    163 H163        4.9449  -17.4607  -43.4643 H         1 UNK         0.0600 
    164 H164        2.7132  -16.7666  -42.4159 H         1 UNK         0.3000 
    165 H165       -0.1325  -17.4892  -40.4279 H         1 UNK         0.0600 
    166 H166        1.2009  -16.2239  -38.7563 H         1 UNK         0.0600 
    167 H167        1.7995  -17.8693  -38.8941 H         1 UNK         0.0600 
    168 H168        2.6849  -16.5510  -39.6518 H         1 UNK         0.0600 
    169 H169        1.3136  -15.0904  -41.1123 H         1 UNK         0.3000 
    170 H170        0.1481  -13.5294  -42.5222 H         1 UNK         0.0600 
    171 H171        2.1788  -14.8099  -43.5519 H         1 UNK         0.0600 
    172 H172        1.1886  -15.0693  -44.9806 H         1 UNK         0.0600 
    173 H173        1.6213  -13.4412  -44.4661 H         1 UNK         0.0600 
    174 H174       -1.9233  -14.7393  -43.7321 H         1 UNK         0.3000 
    175 H175       -3.1840  -14.1368  -45.7664 H         1 UNK         0.0600 
    176 H176       -3.7275  -13.1473  -43.4907 H         1 UNK         0.0600 
    177 H177       -3.4511  -11.5328  -44.1318 H         1 UNK         0.0600 
    178 H178       -4.7953  -12.5077  -44.7196 H         1 UNK         0.0600 
    179 H179       -1.9627  -11.8226  -46.8297 H         1 UNK         0.3000 
    180 H180       -4.3333  -11.3625  -49.4869 H         1 UNK         0.0600 
    181 H181       -2.8026   -9.4340  -47.6398 H         1 UNK         0.0600 
    182 H182       -4.5481   -9.4297  -47.8609 H         1 UNK         0.0600 
    183 H183       -3.4983   -9.0359  -49.2089 H         1 UNK         0.0600 
    184 H184       -1.7972  -12.2933  -48.8024 H         1 UNK         0.3000 
    185 H185       -0.5635  -12.4758  -51.6371 H         1 UNK         0.0600 
    186 H186        1.5356  -11.0998  -51.6733 H         1 UNK         0.0600 
    187 H187        0.1641  -10.1849  -52.2760 H         1 UNK         0.0600 
    188 H188        0.7654   -9.8904  -50.6473 H         1 UNK         0.0600 
    189 H189        0.1783  -11.9176  -48.8162 H         1 UNK         0.3000 
    190 H190       -1.3017  -22.0640  -46.4534 H         1 UNK         0.3000 
    191 H191       -2.8561  -23.3267  -48.4229 H         1 UNK         0.0600 
    192 H192       -3.6796  -22.1118  -45.7256 H         1 UNK         0.0600 
    193 H193       -4.8049  -22.5496  -47.0040 H         1 UNK         0.0600 
    194 H194       -3.6342  -21.2782  -47.2748 H         1 UNK         0.0600 
    195 H195       -2.3048  -24.2530  -45.0060 H         1 UNK         0.3000 
    196 H196       -4.0040  -26.5407  -44.9948 H         1 UNK         0.0600 
    197 H197       -2.7508  -27.1161  -42.9126 H         1 UNK         0.0600 
    198 H198       -3.2256  -25.4238  -42.9235 H         1 UNK         0.0600 
    199 H199       -1.5581  -25.8731  -43.2709 H         1 UNK         0.0600 
    200 H200       -0.5547  -26.1315  -45.8304 H         1 UNK         0.3000 
    201 H201        0.0079  -28.9254  -46.1854 H         1 UNK         0.0600 
    202 H202        1.7720  -27.2583  -45.6845 H         1 UNK         0.0600 
    203 H203        1.4784  -26.4436  -47.2183 H         1 UNK         0.0600 
    204 H204        2.1192  -28.0815  -47.1982 H         1 UNK         0.0600 
    205 H205       -0.6941  -26.2682  -48.5243 H         1 UNK         0.3000 
    206 H206       -0.4889  -27.9852  -50.8309 H         1 UNK         0.0600 
    207 H207        0.1125  -25.5619  -50.8524 H         1 UNK         0.0600 
    208 H208       -1.1255  -25.9163  -52.0485 H         1 UNK         0.0600 
    209 H209       -1.5680  -25.1303  -50.5386 H         1 UNK         0.0600 
    210 H210       -3.1545  -27.0147  -48.7688 H         1 UNK         0.3000 
    211 H211       -5.3382  -27.3081  -48.7132 H         1 UNK         0.0600 
    212 H212       -5.0551  -29.4989  -50.8375 H         1 UNK         0.0600 
    213 H213       -6.4388  -29.2206  -49.7920 H         1 UNK         0.0600 
    214 H214       -4.9120  -29.7423  -49.0973 H         1 UNK         0.0600 
    215 H215       -4.5287  -25.1208  -49.9075 H         1 UNK         0.3000 
    216 H216       -6.4209  -24.5439  -52.0700 H         1 UNK         0.0600 
    217 H217       -3.3764  -24.1728  -52.3745 H         1 UNK         0.0600 
    218 H218       -4.5921  -23.6080  -53.5156 H         1 UNK         0.0600 
    219 H219       -4.3493  -25.3308  -53.2782 H         1 UNK         0.0600 
    220 H220       -6.4328  -22.1754  -52.5042 H         1 UNK         0.3000 
    221 H221       -6.4255  -20.6592  -50.0236 H         1 UNK         0.0600 
    222 H222       -8.2920  -20.4852  -51.6412 H         1 UNK         0.0600 
    223 H223       -7.1943  -19.8946  -52.8891 H         1 UNK         0.0600 
    224 H224       -7.5019  -18.9288  -51.4507 H         1 UNK         0.0600 
    225 H225       -3.9755  -21.0830  -49.9189 H         1 UNK         0.3000 
    226 H226       -2.0620  -19.8084  -51.4652 H         1 UNK         0.0600 
    227 H227       -1.5470  -21.4689  -49.7096 H         1 UNK         0.0600 
    228 H228       -0.6042  -20.0007  -49.4604 H         1 UNK         0.0600 
    229 H229       -2.0047  -20.3109  -48.4606 H         1 UNK         0.0600 
    230 H230       -4.0050  -18.3776  -48.8690 H         1 UNK         0.3000 
    231 H231       -2.6032  -15.8988  -48.6275 H         1 UNK         0.0600 
    232 H232       -5.4994  -16.6622  -47.9715 H         1 UNK         0.0600 
    233 H233       -4.6982  -15.1947  -47.4358 H         1 UNK         0.0600 
    234 H234       -4.1227  -16.7537  -46.8720 H         1 UNK         0.0600 
    235 H235       -4.9009  -17.0278  -51.0568 H         1 UNK         0.3000 
    236 H236       -5.6575  -14.3362  -51.9285 H         1 UNK         0.0600 
    237 H237       -7.2655  -16.2422  -52.0878 H         1 UNK         0.0600 
    238 H238       -6.9375  -15.5200  -53.6551 H         1 UNK         0.0600 
    239 H239       -6.1966  -17.0536  -53.2305 H         1 UNK         0.0600 
    240 H240       -3.4994  -16.9966  -53.0442 H         1 UNK         0.3000 
    241 H241       -2.5327  -15.3812  -55.2864 H         1 UNK         0.0600 
    242 H242        0.0577  -15.0123  -52.1632 H         1 UNK         0.3800 
    243 H243       -1.3321  -16.0422  -51.9703 H         1 UNK         0.3800 
    244 H244       -1.1566  -17.3275  -55.8999 H         1 UNK         0.0800 
    245 H245       -2.8483  -17.6763  -55.7914 H         1 UNK         0.0800 
    246 H246        0.2529  -19.9558  -54.9164 H         1 UNK         0.0800 
    247 H247        0.5770  -18.2526  -54.7231 H         1 UNK         0.0800 
@<TRIPOS>BOND
     1    1    2 1    
     2    1  127 1    
     3    1  128 1    
     4    1  129 1    
     5    2    3 2    
     6    2    4 am   BACKBONE|DICT|INTERRES
     7    4    5 1    
     8    4  130 1    
     9    5    6 1    
    10    5   65 1    
    11    5  131 1    
    12    6    7 1    
    13    6  132 1    
    14    6  133 1    
    15    7    8 1    
    16    8    9 1    
    17    8  134 1    
    18    8  135 1    
    19    9   10 ar   
    20    9   14 ar   
    21   10   11 ar   
    22   10  136 1    
    23   11   12 ar   
    24   11  126 1    
    25   12   13 ar   
    26   12  137 1    
    27   13   14 ar   
    28   13   15 1    
    29   14  138 1    
    30   15   16 1    
    31   15  139 1    
    32   15  140 1    
    33   16   17 1    
    34   17   18 1    
    35   17  141 1    
    36   17  142 1    
    37   18   19 1    
    38   18   67 1    
    39   18  143 1    
    40   19   20 am   BACKBONE|DICT|INTERRES
    41   19  144 1    
    42   20   21 2    
    43   20   22 1    
    44   22   23 1    
    45   22   24 1    
    46   22  145 1    
    47   23  146 1    
    48   23  147 1    
    49   23  148 1    
    50   24   25 am   BACKBONE|DICT|INTERRES
    51   24  149 1    
    52   25   26 2    
    53   25   27 1    
    54   27   28 1    
    55   27   29 1    
    56   27  150 1    
    57   28  151 1    
    58   28  152 1    
    59   28  153 1    
    60   29   30 am   BACKBONE|DICT|INTERRES
    61   29  154 1    
    62   30   31 2    
    63   30   32 1    
    64   32   33 1    
    65   32   34 1    
    66   32  155 1    
    67   33  156 1    
    68   33  157 1    
    69   33  158 1    
    70   34   35 am   BACKBONE|DICT|INTERRES
    71   34  159 1    
    72   35   36 2    
    73   35   37 1    
    74   37   38 1    
    75   37   39 1    
    76   37  160 1    
    77   38  161 1    
    78   38  162 1    
    79   38  163 1    
    80   39   40 am   BACKBONE|DICT|INTERRES
    81   39  164 1    
    82   40   41 2    
    83   40   42 1    
    84   42   43 1    
    85   42   44 1    
    86   42  165 1    
    87   43  166 1    
    88   43  167 1    
    89   43  168 1    
    90   44   45 am   BACKBONE|DICT|INTERRES
    91   44  169 1    
    92   45   46 2    
    93   45   47 1    
    94   47   48 1    
    95   47   49 1    
    96   47  170 1    
    97   48  171 1    
    98   48  172 1    
    99   48  173 1    
   100   49   50 am   BACKBONE|DICT|INTERRES
   101   49  174 1    
   102   50   51 2    
   103   50   52 1    
   104   52   53 1    
   105   52   54 1    
   106   52  175 1    
   107   53  176 1    
   108   53  177 1    
   109   53  178 1    
   110   54   55 am   BACKBONE|DICT|INTERRES
   111   54  179 1    
   112   55   56 2    
   113   55   57 1    
   114   57   58 1    
   115   57   59 1    
   116   57  180 1    
   117   58  181 1    
   118   58  182 1    
   119   58  183 1    
   120   59   60 am   BACKBONE|DICT|INTERRES
   121   59  184 1    
   122   60   61 2    
   123   60   62 1    
   124   62   63 1    
   125   62   64 1    
   126   62  185 1    
   127   63  186 1    
   128   63  187 1    
   129   63  188 1    
   130   64   65 am   BACKBONE|DICT|INTERRES
   131   64  189 1    
   132   65   66 2    
   133   67   68 2    
   134   67   69 am   BACKBONE|DICT|INTERRES
   135   69   70 1    
   136   69  190 1    
   137   70   71 1    
   138   70   72 1    
   139   70  191 1    
   140   71  192 1    
   141   71  193 1    
   142   71  194 1    
   143   72   73 2    
   144   72   74 am   BACKBONE|DICT|INTERRES
   145   74   75 1    
   146   74  195 1    
   147   75   76 1    
   148   75   77 1    
   149   75  196 1    
   150   76  197 1    
   151   76  198 1    
   152   76  199 1    
   153   77   78 2    
   154   77   79 am   BACKBONE|DICT|INTERRES
   155   79   80 1    
   156   79  200 1    
   157   80   81 1    
   158   80   82 1    
   159   80  201 1    
   160   81  202 1    
   161   81  203 1    
   162   81  204 1    
   163   82   83 2    
   164   82   84 am   BACKBONE|DICT|INTERRES
   165   84   85 1    
   166   84  205 1    
   167   85   86 1    
   168   85   87 1    
   169   85  206 1    
   170   86  207 1    
   171   86  208 1    
   172   86  209 1    
   173   87   88 2    
   174   87   89 am   BACKBONE|DICT|INTERRES
   175   89   90 1    
   176   89  210 1    
   177   90   91 1    
   178   90   92 1    
   179   90  211 1    
   180   91  212 1    
   181   91  213 1    
   182   91  214 1    
   183   92   93 2    
   184   92   94 am   BACKBONE|DICT|INTERRES
   185   94   95 1    
   186   94  215 1    
   187   95   96 1    
   188   95   97 1    
   189   95  216 1    
   190   96  217 1    
   191   96  218 1    
   192   96  219 1    
   193   97   98 2    
   194   97   99 am   BACKBONE|DICT|INTERRES
   195   99  100 1    
   196   99  220 1    
   197  100  101 1    
   198  100  102 1    
   199  100  221 1    
   200  101  222 1    
   201  101  223 1    
   202  101  224 1    
   203  102  103 2    
   204  102  104 am   BACKBONE|DICT|INTERRES
   205  104  105 1    
   206  104  225 1    
   207  105  106 1    
   208  105  107 1    
   209  105  226 1    
   210  106  227 1    
   211  106  228 1    
   212  106  229 1    
   213  107  108 2    
   214  107  109 am   BACKBONE|DICT|INTERRES
   215  109  110 1    
   216  109  230 1    
   217  110  111 1    
   218  110  112 1    
   219  110  231 1    
   220  111  232 1    
   221  111  233 1    
   222  111  234 1    
   223  112  113 2    
   224  112  114 am   BACKBONE|DICT|INTERRES
   225  114  115 1    
   226  114  235 1    
   227  115  116 1    
   228  115  117 1    
   229  115  236 1    
   230  116  237 1    
   231  116  238 1    
   232  116  239 1    
   233  117  118 2    
   234  117  119 am   BACKBONE|DICT|INTERRES
   235  119  120 1    
   236  119  240 1    
   237  120  121 1    
   238  120  124 1    
   239  120  241 1    
   240  121  122 am   BACKBONE|DICT|INTERRES
   241  121  123 2    
   242  122  242 1    
   243  122  243 1    
   244  124  125 1    
   245  124  244 1    
   246  124  245 1    
   247  125  126 1    
   248  126  246 1    
   249  126  247 1    
@<TRIPOS>SUBSTRUCTURE
     1 UNK         1 GROUP             0       ****    0 ROOT    
