@<TRIPOS>MOLECULE
3R540
247   249    1
SMALL
USER_CHARGES


@<TRIPOS>ATOM
      1 CA         -3.5055  -16.5035  -45.0111 C.3       0 UNK        -0.1800 
      2 C          -4.1058  -15.1658  -44.6204 C.2       0 UNK         0.5000 
      3 O          -4.0066  -14.7512  -43.4658 O.2       0 UNK        -0.5000 
      4 N          -4.7382  -14.4984  -45.5903 N.am      1 UNK        -0.5000 
      5 CA         -5.4727  -13.2431  -45.4070 C.3       1 UNK         0.1400 
      6 C6         -6.4147  -12.9473  -46.5984 C.3       23 UNK        -0.0398 
      7 S7         -7.6792  -14.2458  -46.8266 S.3       23 UNK        -0.2404 
      8 C8         -7.2564  -14.9196  -48.4642 C.3       23 UNK        -0.0205 
      9 C9         -6.0764  -15.8792  -48.4142 C.ar      23 UNK        -0.0193 
     10 C10        -4.7881  -15.4347  -48.7223 C.ar      23 UNK        -0.1150 
     11 C11        -3.7148  -16.3301  -48.7449 C.ar      23 UNK        -0.0193 
     12 C12        -3.9339  -17.6761  -48.4396 C.ar      23 UNK        -0.1150 
     13 C13        -5.2168  -18.1330  -48.1217 C.ar      23 UNK        -0.0193 
     14 C14        -6.2817  -17.2271  -48.1063 C.ar      23 UNK        -0.1150 
     15 C15        -5.4717  -19.6060  -47.8326 C.3       23 UNK        -0.0205 
     16 S16        -5.3470  -19.9911  -46.0606 S.3       23 UNK        -0.2404 
     17 C17        -3.5524  -20.2565  -45.8628 C.3       23 UNK        -0.0398 
     18 CA         -3.1702  -21.7567  -45.8069 C.3       11 UNK         0.1400 
     19 N          -1.7491  -21.9795  -46.0943 N.am      11 UNK        -0.5000 
     20 C          -1.1725  -23.1788  -46.2532 C.2       10 UNK         0.5000 
     21 O          -1.8063  -24.2310  -46.2789 O.2       10 UNK        -0.5000 
     22 CA          0.3641  -23.2264  -46.3570 C.3       10 UNK         0.1400 
     23 CB          0.8311  -23.0510  -47.8051 C.3       10 UNK        -0.1800 
     24 N           1.0231  -22.2379  -45.5050 N.am      10 UNK        -0.5000 
     25 C           0.9917  -22.2609  -44.1653 C.2       9 UNK         0.5000 
     26 O           0.4575  -23.1572  -43.5129 O.2       9 UNK        -0.5000 
     27 CA          1.5995  -21.0484  -43.4362 C.3       9 UNK         0.1400 
     28 CB          3.1274  -21.1692  -43.3410 C.3       9 UNK        -0.1800 
     29 N           1.2384  -19.7821  -44.0765 N.am      9 UNK        -0.5000 
     30 C          -0.0164  -19.3226  -44.1779 C.2       8 UNK         0.5000 
     31 O          -0.9880  -19.8821  -43.6694 O.2       8 UNK        -0.5000 
     32 CA         -0.2386  -18.0692  -45.0413 C.3       8 UNK         0.1400 
     33 CB          0.0238  -16.7843  -44.2429 C.3       8 UNK        -0.1800 
     34 N           0.5651  -18.0685  -46.2614 N.am      8 UNK        -0.5000 
     35 C           0.4058  -18.9285  -47.2759 C.2       7 UNK         0.5000 
     36 O          -0.4831  -19.7753  -47.3108 O.2       7 UNK        -0.5000 
     37 CA          1.4409  -18.8722  -48.4117 C.3       7 UNK         0.1400 
     38 CB          1.0751  -17.7973  -49.4412 C.3       7 UNK        -0.1800 
     39 N           2.7883  -18.6264  -47.9034 N.am      7 UNK        -0.5000 
     40 C           3.4982  -19.5127  -47.1923 C.2       6 UNK         0.5000 
     41 O           3.1051  -20.6484  -46.9265 O.2       6 UNK        -0.5000 
     42 CA          4.8543  -19.0254  -46.6504 C.3       6 UNK         0.1400 
     43 CB          5.9517  -19.1861  -47.7128 C.3       6 UNK        -0.1800 
     44 N           4.8068  -17.6300  -46.2072 N.am      6 UNK        -0.5000 
     45 C           4.1103  -17.2010  -45.1449 C.2       5 UNK         0.5000 
     46 O           3.4712  -17.9456  -44.4030 O.2       5 UNK        -0.5000 
     47 CA          4.0798  -15.6797  -44.9054 C.3       5 UNK         0.1400 
     48 CB          5.3166  -15.2313  -44.1130 C.3       5 UNK        -0.1800 
     49 N           3.9849  -14.9023  -46.1455 N.am      5 UNK        -0.5000 
     50 C           2.9486  -14.9526  -46.9922 C.2       4 UNK         0.5000 
     51 O           1.9649  -15.6720  -46.8215 O.2       4 UNK        -0.5000 
     52 CA          3.0496  -14.0785  -48.2536 C.3       4 UNK         0.1400 
     53 CB          3.9698  -14.7586  -49.2804 C.3       4 UNK        -0.1800 
     54 N           1.7515  -13.8438  -48.8963 N.am      4 UNK        -0.5000 
     55 C           0.7239  -13.0852  -48.4849 C.2       3 UNK         0.5000 
     56 O          -0.3103  -13.0086  -49.1505 O.2       3 UNK        -0.5000 
     57 CA          0.8234  -12.2482  -47.1930 C.3       3 UNK         0.1400 
     58 CB          1.6084  -10.9415  -47.4322 C.3       3 UNK        -0.1800 
     59 N          -0.5299  -11.9023  -46.7624 N.am      3 UNK        -0.5000 
     60 C          -0.8841  -11.5236  -45.5301 C.2       2 UNK         0.5000 
     61 O          -0.1263  -11.5497  -44.5599 O.2       2 UNK        -0.5000 
     62 CA         -2.3184  -11.0056  -45.3611 C.3       2 UNK         0.1400 
     63 CB         -2.6014   -9.8080  -46.2927 C.3       2 UNK        -0.1800 
     64 N          -3.2948  -12.0741  -45.5708 N.am      2 UNK        -0.5000 
     65 C          -4.5593  -12.0298  -45.1257 C.2       1 UNK         0.5000 
     66 O          -5.0256  -11.0719  -44.5062 O.2       1 UNK        -0.5000 
     67 C          -3.5809  -22.4035  -44.4673 C.2       11 UNK         0.5000 
     68 O          -4.5602  -23.1487  -44.4294 O.2       11 UNK        -0.5000 
     69 N          -2.7886  -22.1634  -43.4119 N.am      12 UNK        -0.5000 
     70 CA         -2.9667  -22.7542  -42.0822 C.3       12 UNK         0.1400 
     71 CB         -1.9782  -22.1072  -41.1006 C.3       12 UNK        -0.1800 
     72 C          -2.8271  -24.2904  -42.0738 C.2       12 UNK         0.5000 
     73 O          -3.5448  -24.9624  -41.3326 O.2       12 UNK        -0.5000 
     74 N          -1.9390  -24.8180  -42.9267 N.am      13 UNK        -0.5000 
     75 CA         -1.7457  -26.2496  -43.1689 C.3       13 UNK         0.1400 
     76 CB         -0.3553  -26.4591  -43.7902 C.3       13 UNK        -0.1800 
     77 C          -2.8338  -26.8854  -44.0629 C.2       13 UNK         0.5000 
     78 O          -2.8327  -28.1074  -44.2176 O.2       13 UNK        -0.5000 
     79 N          -3.7218  -26.0629  -44.6440 N.am      14 UNK        -0.5000 
     80 CA         -4.7802  -26.4141  -45.5978 C.3       14 UNK         0.1400 
     81 CB         -5.8420  -27.3218  -44.9425 C.3       14 UNK        -0.1800 
     82 C          -4.2303  -26.9772  -46.9269 C.2       14 UNK         0.5000 
     83 O          -4.8421  -27.8597  -47.5307 O.2       14 UNK        -0.5000 
     84 N          -3.0883  -26.4369  -47.3690 N.am      15 UNK        -0.5000 
     85 CA         -2.3560  -26.8238  -48.5742 C.3       15 UNK         0.1400 
     86 CB         -0.8642  -26.9574  -48.2170 C.3       15 UNK        -0.1800 
     87 C          -2.5954  -25.8311  -49.7310 C.2       15 UNK         0.5000 
     88 O          -1.6931  -25.6034  -50.5387 O.2       15 UNK        -0.5000 
     89 N          -3.8030  -25.2454  -49.7880 N.am      16 UNK        -0.5000 
     90 CA         -4.3262  -24.3767  -50.8546 C.3       16 UNK         0.1400 
     91 CB         -4.6250  -25.2163  -52.1139 C.3       16 UNK        -0.1800 
     92 C          -3.4346  -23.1533  -51.1608 C.2       16 UNK         0.5000 
     93 O          -3.2274  -22.8098  -52.3267 O.2       16 UNK        -0.5000 
     94 N          -2.8721  -22.5533  -50.1000 N.am      17 UNK        -0.5000 
     95 CA         -1.9224  -21.4303  -50.1224 C.3       17 UNK         0.1400 
     96 CB         -2.5917  -20.1638  -50.6995 C.3       17 UNK        -0.1800 
     97 C          -0.6041  -21.7411  -50.8671 C.2       17 UNK         0.5000 
     98 O           0.0806  -20.8109  -51.2905 O.2       17 UNK        -0.5000 
     99 N          -0.2998  -23.0333  -51.0778 N.am      18 UNK        -0.5000 
    100 CA         0.7644  -23.5599  -51.9421 C.3       18 UNK         0.1400 
    101 CB         2.1569  -23.2311  -51.3639 C.3       18 UNK        -0.1800 
    102 C          0.6125  -23.1264  -53.4196 C.2       18 UNK         0.5000 
    103 O          1.6020  -23.0934  -54.1527 O.2       18 UNK        -0.5000 
    104 N         -0.6231  -22.7784  -53.8182 N.am      19 UNK        -0.5000 
    105 CA        -1.0245  -22.1928  -55.0999 C.3       19 UNK         0.1400 
    106 CB        -0.8269  -23.2019  -56.2498 C.3       19 UNK        -0.1800 
    107 C         -0.3760  -20.8195  -55.3915 C.2       19 UNK         0.5000 
    108 O         -0.3069  -20.4163  -56.5540 O.2       19 UNK        -0.5000 
    109 N          0.0679  -20.1003  -54.3485 N.am      20 UNK        -0.5000 
    110 CA         0.7869  -18.8241  -54.4326 C.3       20 UNK         0.1400 
    111 CB         1.6271  -18.6471  -53.1565 C.3       20 UNK        -0.1800 
    112 C         -0.1331  -17.6114  -54.7027 C.2       20 UNK         0.5000 
    113 O         -0.0030  -16.5788  -54.0438 O.2       20 UNK        -0.5000 
    114 N         -1.0486  -17.7592  -55.6694 N.am      21 UNK        -0.5000 
    115 CA        -2.0022  -16.7869  -56.2230 C.3       21 UNK         0.1400 
    116 CB        -1.2623  -15.6001  -56.8693 C.3       21 UNK        -0.1800 
    117 C         -3.1031  -16.2854  -55.2642 C.2       21 UNK         0.5000 
    118 O         -4.2275  -16.0675  -55.7181 O.2       21 UNK        -0.5000 
    119 N         -2.7823  -16.0970  -53.9798 N.am      22 UNK        -0.5000 
    120 CA        -3.6935  -15.5774  -52.9469 C.3       22 UNK         0.1400 
    121 C         -4.8257  -16.5497  -52.5011 C.2       22 UNK         0.5000 
    122 N         -4.7237  -17.8479  -52.7604 N.am      22 UNK        -0.7600 
    123 O         -5.8288  -16.1101  -51.9469 O.2       22 UNK        -0.5000 
    124 C124       -2.9142  -14.9796  -51.7474 C.3       23 UNK        -0.0398 
    125 S125       -1.8893  -16.1910  -50.8388 S.3       23 UNK        -0.2404 
    126 C126       -2.3178  -15.8472  -49.1009 C.3       23 UNK        -0.0205 
    127 H127       -3.0535  -16.9917  -44.1479 H         1 UNK         0.0600 
    128 H128       -2.7439  -16.3609  -45.7772 H         1 UNK         0.0600 
    129 H129       -4.2768  -17.1630  -45.4080 H         1 UNK         0.0600 
    130 H130       -4.8179  -14.9209  -46.5056 H         1 UNK         0.3000 
    131 H131       -6.0982  -13.3646  -44.5196 H         1 UNK         0.0600 
    132 H132       -6.9482  -12.0088  -46.4356 H         1 UNK         0.0800 
    133 H133       -5.8435  -12.8107  -47.5177 H         1 UNK         0.0800 
    134 H134       -7.0623  -14.1060  -49.1649 H         1 UNK         0.0800 
    135 H135       -8.1278  -15.4458  -48.8570 H         1 UNK         0.0800 
    136 H136       -4.6263  -14.3953  -48.9692 H         1 UNK         0.1150 
    137 H137       -3.1029  -18.3655  -48.4662 H         1 UNK         0.1150 
    138 H138       -7.2779  -17.5755  -47.8721 H         1 UNK         0.1150 
    139 H139       -6.4716  -19.8752  -48.1758 H         1 UNK         0.0800 
    140 H140       -4.7848  -20.2398  -48.3924 H         1 UNK         0.0800 
    141 H141       -3.2272  -19.7288  -44.9661 H         1 UNK         0.0800 
    142 H142       -3.0354  -19.7732  -46.6893 H         1 UNK         0.0800 
    143 H143       -3.7218  -22.2705  -46.5973 H         1 UNK         0.0600 
    144 H144       -1.1682  -21.1510  -46.1820 H         1 UNK         0.3000 
    145 H145        0.6831  -24.2161  -46.0255 H         1 UNK         0.0600 
    146 H146        1.9087  -23.1932  -47.8873 H         1 UNK         0.0600 
    147 H147        0.3554  -23.7801  -48.4608 H         1 UNK         0.0600 
    148 H148        0.6003  -22.0575  -48.1853 H         1 UNK         0.0600 
    149 H149        1.5342  -21.4960  -45.9724 H         1 UNK         0.3000 
    150 H150        1.1970  -21.0357  -42.4213 H         1 UNK         0.0600 
    151 H151        3.4143  -22.0924  -42.8361 H         1 UNK         0.0600 
    152 H152        3.5529  -20.3416  -42.7731 H         1 UNK         0.0600 
    153 H153        3.5958  -21.1743  -44.3249 H         1 UNK         0.0600 
    154 H154        1.9982  -19.2271  -44.4592 H         1 UNK         0.3000 
    155 H155       -1.2834  -18.0802  -45.3480 H         1 UNK         0.0600 
    156 H156        1.0626  -16.7157  -43.9208 H         1 UNK         0.0600 
    157 H157       -0.6000  -16.7452  -43.3491 H         1 UNK         0.0600 
    158 H158       -0.2013  -15.8982  -44.8369 H         1 UNK         0.0600 
    159 H159        1.2679  -17.3390  -46.3466 H         1 UNK         0.3000 
    160 H160        1.4414  -19.8387  -48.9201 H         1 UNK         0.0600 
    161 H161        1.8476  -17.6981  -50.2031 H         1 UNK         0.0600 
    162 H162        0.9269  -16.8192  -48.9836 H         1 UNK         0.0600 
    163 H163        0.1505  -18.0673  -49.9504 H         1 UNK         0.0600 
    164 H164        3.1624  -17.6999  -48.0357 H         1 UNK         0.3000 
    165 H165        5.1147  -19.6488  -45.7924 H         1 UNK         0.0600 
    166 H166        6.9287  -18.9113  -47.3148 H         1 UNK         0.0600 
    167 H167        6.0188  -20.2215  -48.0497 H         1 UNK         0.0600 
    168 H168        5.7597  -18.5671  -48.5901 H         1 UNK         0.0600 
    169 H169        5.3116  -16.9541  -46.7610 H         1 UNK         0.3000 
    170 H170        3.1947  -15.4589  -44.3052 H         1 UNK         0.0600 
    171 H171        5.4005  -15.7831  -43.1757 H         1 UNK         0.0600 
    172 H172        6.2376  -15.3949  -44.6739 H         1 UNK         0.0600 
    173 H173        5.2603  -14.1723  -43.8604 H         1 UNK         0.0600 
    174 H174        4.7637  -14.2931  -46.3526 H         1 UNK         0.3000 
    175 H175        3.4967  -13.1249  -47.9764 H         1 UNK         0.0600 
    176 H176        3.5754  -15.7242  -49.5999 H         1 UNK         0.0600 
    177 H177        4.0925  -14.1389  -50.1690 H         1 UNK         0.0600 
    178 H178        4.9662  -14.9302  -48.8709 H         1 UNK         0.0600 
    179 H179        1.6063  -14.3718  -49.7428 H         1 UNK         0.3000 
    180 H180        1.3005  -12.8352  -46.4087 H         1 UNK         0.0600 
    181 H181        1.1049  -10.3052  -48.1611 H         1 UNK         0.0600 
    182 H182        2.6135  -11.1236  -47.8077 H         1 UNK         0.0600 
    183 H183        1.7130  -10.3691  -46.5104 H         1 UNK         0.0600 
    184 H184       -1.2088  -11.9064  -47.5137 H         1 UNK         0.3000 
    185 H185       -2.4036  -10.6578  -44.3290 H         1 UNK         0.0600 
    186 H186       -1.8195   -9.0521  -46.2072 H         1 UNK         0.0600 
    187 H187       -2.6548  -10.1104  -47.3389 H         1 UNK         0.0600 
    188 H188       -3.5438   -9.3222  -46.0404 H         1 UNK         0.0600 
    189 H189       -2.9618  -12.9133  -46.0240 H         1 UNK         0.3000 
    190 H190       -2.0148  -21.5128  -43.5206 H         1 UNK         0.3000 
    191 H191       -3.9790  -22.5155  -41.7497 H         1 UNK         0.0600 
    192 H192       -2.1202  -22.4951  -40.0912 H         1 UNK         0.0600 
    193 H193       -2.1161  -21.0267  -41.0572 H         1 UNK         0.0600 
    194 H194       -0.9434  -22.3000  -41.3835 H         1 UNK         0.0600 
    195 H195       -1.3338  -24.1870  -43.4410 H         1 UNK         0.3000 
    196 H196       -1.7693  -26.7684  -42.2085 H         1 UNK         0.0600 
    197 H197       -0.1309  -27.5207  -43.9003 H         1 UNK         0.0600 
    198 H198        0.4274  -26.0251  -43.1677 H         1 UNK         0.0600 
    199 H199       -0.2875  -26.0079  -44.7798 H         1 UNK         0.0600 
    200 H200       -3.6340  -25.0710  -44.4572 H         1 UNK         0.3000 
    201 H201       -5.2719  -25.4751  -45.8549 H         1 UNK         0.0600 
    202 H202       -6.2089  -26.8891  -44.0117 H         1 UNK         0.0600 
    203 H203       -5.4489  -28.3141  -44.7200 H         1 UNK         0.0600 
    204 H204       -6.7026  -27.4526  -45.5994 H         1 UNK         0.0600 
    205 H205       -2.6689  -25.6782  -46.8315 H         1 UNK         0.3000 
    206 H206       -2.7009  -27.7993  -48.9222 H         1 UNK         0.0600 
    207 H207       -0.7182  -27.6671  -47.4024 H         1 UNK         0.0600 
    208 H208       -0.2845  -27.3182  -49.0674 H         1 UNK         0.0600 
    209 H209       -0.4369  -26.0043  -47.9070 H         1 UNK         0.0600 
    210 H210       -4.4613  -25.4869  -49.0612 H         1 UNK         0.3000 
    211 H211       -5.2738  -23.9760  -50.4919 H         1 UNK         0.0600 
    212 H212       -3.7127  -25.6189  -52.5556 H         1 UNK         0.0600 
    213 H213       -5.1226  -24.6172  -52.8775 H         1 UNK         0.0600 
    214 H214       -5.2829  -26.0540  -51.8824 H         1 UNK         0.0600 
    215 H215       -3.0751  -22.9388  -49.1891 H         1 UNK         0.3000 
    216 H216       -1.6612  -21.2332  -49.0837 H         1 UNK         0.0600 
    217 H217       -1.9942  -19.2774  -50.4858 H         1 UNK         0.0600 
    218 H218       -3.5816  -19.9983  -50.2809 H         1 UNK         0.0600 
    219 H219       -2.7029  -20.2224  -51.7827 H         1 UNK         0.0600 
    220 H220       -0.9381  -23.7416  -50.7290 H         1 UNK         0.3000 
    221 H221        0.6512  -24.6448  -51.9343 H         1 UNK         0.0600 
    222 H222        2.3635  -22.1607  -51.3815 H         1 UNK         0.0600 
    223 H223        2.2468  -23.5741  -50.3341 H         1 UNK         0.0600 
    224 H224        2.9446  -23.7240  -51.9346 H         1 UNK         0.0600 
    225 H225       -1.3755  -22.8498  -53.1394 H         1 UNK         0.3000 
    226 H226       -2.0950  -22.0017  -55.0135 H         1 UNK         0.0600 
    227 H227       -1.2731  -22.8348  -57.1747 H         1 UNK         0.0600 
    228 H228        0.2286  -23.3884  -56.4493 H         1 UNK         0.0600 
    229 H229       -1.2997  -24.1571  -56.0214 H         1 UNK         0.0600 
    230 H230       -0.0378  -20.4804  -53.4144 H         1 UNK         0.3000 
    231 H231        1.4824  -18.8808  -55.2724 H         1 UNK         0.0600 
    232 H232        2.2670  -19.5114  -52.9770 H         1 UNK         0.0600 
    233 H233        0.9885  -18.5156  -52.2836 H         1 UNK         0.0600 
    234 H234        2.2733  -17.7714  -53.2265 H         1 UNK         0.0600 
    235 H235       -1.0439  -18.6617  -56.1357 H         1 UNK         0.3000 
    236 H236       -2.5178  -17.3195  -57.0238 H         1 UNK         0.0600 
    237 H237       -0.5445  -15.9414  -57.6152 H         1 UNK         0.0600 
    238 H238       -1.9623  -14.9330  -57.3739 H         1 UNK         0.0600 
    239 H239       -0.7229  -15.0061  -56.1308 H         1 UNK         0.0600 
    240 H240       -1.8217  -16.2723  -53.6967 H         1 UNK         0.3000 
    241 H241       -4.2178  -14.7374  -53.4069 H         1 UNK         0.0600 
    242 H242       -5.4661  -18.4673  -52.4799 H         1 UNK         0.3800 
    243 H243       -3.9066  -18.2100  -53.2224 H         1 UNK         0.3800 
    244 H244       -2.2490  -14.1921  -52.1039 H         1 UNK         0.0800 
    245 H245       -3.6036  -14.4826  -51.0663 H         1 UNK         0.0800 
    246 H246       -2.2229  -14.7789  -48.9062 H         1 UNK         0.0800 
    247 H247       -1.5887  -16.3387  -48.4550 H         1 UNK         0.0800 
@<TRIPOS>BOND
     1    1    2 1    
     2    1  127 1    
     3    1  128 1    
     4    1  129 1    
     5    2    3 2    
     6    2    4 am   BACKBONE|DICT|INTERRES
     7    4    5 1    
     8    4  130 1    
     9    5    6 1    
    10    5   65 1    
    11    5  131 1    
    12    6    7 1    
    13    6  132 1    
    14    6  133 1    
    15    7    8 1    
    16    8    9 1    
    17    8  134 1    
    18    8  135 1    
    19    9   10 ar   
    20    9   14 ar   
    21   10   11 ar   
    22   10  136 1    
    23   11   12 ar   
    24   11  126 1    
    25   12   13 ar   
    26   12  137 1    
    27   13   14 ar   
    28   13   15 1    
    29   14  138 1    
    30   15   16 1    
    31   15  139 1    
    32   15  140 1    
    33   16   17 1    
    34   17   18 1    
    35   17  141 1    
    36   17  142 1    
    37   18   19 1    
    38   18   67 1    
    39   18  143 1    
    40   19   20 am   BACKBONE|DICT|INTERRES
    41   19  144 1    
    42   20   21 2    
    43   20   22 1    
    44   22   23 1    
    45   22   24 1    
    46   22  145 1    
    47   23  146 1    
    48   23  147 1    
    49   23  148 1    
    50   24   25 am   BACKBONE|DICT|INTERRES
    51   24  149 1    
    52   25   26 2    
    53   25   27 1    
    54   27   28 1    
    55   27   29 1    
    56   27  150 1    
    57   28  151 1    
    58   28  152 1    
    59   28  153 1    
    60   29   30 am   BACKBONE|DICT|INTERRES
    61   29  154 1    
    62   30   31 2    
    63   30   32 1    
    64   32   33 1    
    65   32   34 1    
    66   32  155 1    
    67   33  156 1    
    68   33  157 1    
    69   33  158 1    
    70   34   35 am   BACKBONE|DICT|INTERRES
    71   34  159 1    
    72   35   36 2    
    73   35   37 1    
    74   37   38 1    
    75   37   39 1    
    76   37  160 1    
    77   38  161 1    
    78   38  162 1    
    79   38  163 1    
    80   39   40 am   BACKBONE|DICT|INTERRES
    81   39  164 1    
    82   40   41 2    
    83   40   42 1    
    84   42   43 1    
    85   42   44 1    
    86   42  165 1    
    87   43  166 1    
    88   43  167 1    
    89   43  168 1    
    90   44   45 am   BACKBONE|DICT|INTERRES
    91   44  169 1    
    92   45   46 2    
    93   45   47 1    
    94   47   48 1    
    95   47   49 1    
    96   47  170 1    
    97   48  171 1    
    98   48  172 1    
    99   48  173 1    
   100   49   50 am   BACKBONE|DICT|INTERRES
   101   49  174 1    
   102   50   51 2    
   103   50   52 1    
   104   52   53 1    
   105   52   54 1    
   106   52  175 1    
   107   53  176 1    
   108   53  177 1    
   109   53  178 1    
   110   54   55 am   BACKBONE|DICT|INTERRES
   111   54  179 1    
   112   55   56 2    
   113   55   57 1    
   114   57   58 1    
   115   57   59 1    
   116   57  180 1    
   117   58  181 1    
   118   58  182 1    
   119   58  183 1    
   120   59   60 am   BACKBONE|DICT|INTERRES
   121   59  184 1    
   122   60   61 2    
   123   60   62 1    
   124   62   63 1    
   125   62   64 1    
   126   62  185 1    
   127   63  186 1    
   128   63  187 1    
   129   63  188 1    
   130   64   65 am   BACKBONE|DICT|INTERRES
   131   64  189 1    
   132   65   66 2    
   133   67   68 2    
   134   67   69 am   BACKBONE|DICT|INTERRES
   135   69   70 1    
   136   69  190 1    
   137   70   71 1    
   138   70   72 1    
   139   70  191 1    
   140   71  192 1    
   141   71  193 1    
   142   71  194 1    
   143   72   73 2    
   144   72   74 am   BACKBONE|DICT|INTERRES
   145   74   75 1    
   146   74  195 1    
   147   75   76 1    
   148   75   77 1    
   149   75  196 1    
   150   76  197 1    
   151   76  198 1    
   152   76  199 1    
   153   77   78 2    
   154   77   79 am   BACKBONE|DICT|INTERRES
   155   79   80 1    
   156   79  200 1    
   157   80   81 1    
   158   80   82 1    
   159   80  201 1    
   160   81  202 1    
   161   81  203 1    
   162   81  204 1    
   163   82   83 2    
   164   82   84 am   BACKBONE|DICT|INTERRES
   165   84   85 1    
   166   84  205 1    
   167   85   86 1    
   168   85   87 1    
   169   85  206 1    
   170   86  207 1    
   171   86  208 1    
   172   86  209 1    
   173   87   88 2    
   174   87   89 am   BACKBONE|DICT|INTERRES
   175   89   90 1    
   176   89  210 1    
   177   90   91 1    
   178   90   92 1    
   179   90  211 1    
   180   91  212 1    
   181   91  213 1    
   182   91  214 1    
   183   92   93 2    
   184   92   94 am   BACKBONE|DICT|INTERRES
   185   94   95 1    
   186   94  215 1    
   187   95   96 1    
   188   95   97 1    
   189   95  216 1    
   190   96  217 1    
   191   96  218 1    
   192   96  219 1    
   193   97   98 2    
   194   97   99 am   BACKBONE|DICT|INTERRES
   195   99  100 1    
   196   99  220 1    
   197  100  101 1    
   198  100  102 1    
   199  100  221 1    
   200  101  222 1    
   201  101  223 1    
   202  101  224 1    
   203  102  103 2    
   204  102  104 am   BACKBONE|DICT|INTERRES
   205  104  105 1    
   206  104  225 1    
   207  105  106 1    
   208  105  107 1    
   209  105  226 1    
   210  106  227 1    
   211  106  228 1    
   212  106  229 1    
   213  107  108 2    
   214  107  109 am   BACKBONE|DICT|INTERRES
   215  109  110 1    
   216  109  230 1    
   217  110  111 1    
   218  110  112 1    
   219  110  231 1    
   220  111  232 1    
   221  111  233 1    
   222  111  234 1    
   223  112  113 2    
   224  112  114 am   BACKBONE|DICT|INTERRES
   225  114  115 1    
   226  114  235 1    
   227  115  116 1    
   228  115  117 1    
   229  115  236 1    
   230  116  237 1    
   231  116  238 1    
   232  116  239 1    
   233  117  118 2    
   234  117  119 am   BACKBONE|DICT|INTERRES
   235  119  120 1    
   236  119  240 1    
   237  120  121 1    
   238  120  124 1    
   239  120  241 1    
   240  121  122 am   BACKBONE|DICT|INTERRES
   241  121  123 2    
   242  122  242 1    
   243  122  243 1    
   244  124  125 1    
   245  124  244 1    
   246  124  245 1    
   247  125  126 1    
   248  126  246 1    
   249  126  247 1    
@<TRIPOS>SUBSTRUCTURE
     1 UNK         1 GROUP             0       ****    0 ROOT    
