@<TRIPOS>MOLECULE
3R540
247   249    1
SMALL
USER_CHARGES


@<TRIPOS>ATOM
      1 CA          6.6642   -9.9315  -47.2264 C.3       0 UNK        -0.1800 
      2 C           5.4150  -10.6290  -46.7107 C.2       0 UNK         0.5000 
      3 O           5.0933  -10.5163  -45.5286 O.2       0 UNK        -0.5000 
      4 N           4.6930  -11.3322  -47.5921 N.am      1 UNK        -0.5000 
      5 CA          3.4978  -12.1351  -47.2831 C.3       1 UNK         0.1400 
      6 C6          3.1069  -13.0577  -48.4606 C.3       23 UNK        -0.0398 
      7 S7          4.4376  -14.2510  -48.8363 S.3       23 UNK        -0.2404 
      8 C8          3.8268  -15.7464  -47.9934 C.3       23 UNK        -0.0205 
      9 C9          3.1713  -16.7292  -48.9556 C.ar      23 UNK        -0.0193 
     10 C10         2.0818  -16.3471  -49.7465 C.ar      23 UNK        -0.1150 
     11 C11         1.4772  -17.2586  -50.6166 C.ar      23 UNK        -0.0193 
     12 C12         1.9662  -18.5649  -50.6921 C.ar      23 UNK        -0.1150 
     13 C13         3.0487  -18.9625  -49.9018 C.ar      23 UNK        -0.0193 
     14 C14         3.6478  -18.0406  -49.0396 C.ar      23 UNK        -0.1150 
     15 C15         3.5709  -20.3893  -49.9734 C.3       23 UNK        -0.0205 
     16 S16         2.9676  -21.3989  -48.5846 S.3       23 UNK        -0.2404 
     17 C17         1.1757  -21.3960  -48.9157 C.3       23 UNK        -0.0398 
     18 CA          0.4216  -22.4371  -48.0602 C.3       11 UNK         0.1400 
     19 N           0.3907  -22.0877  -46.6367 N.am      11 UNK        -0.5000 
     20 C          -0.0684  -22.8937  -45.6687 C.2       10 UNK         0.5000 
     21 O          -0.4697  -24.0412  -45.8659 O.2       10 UNK        -0.5000 
     22 CA         -0.1452  -22.3033  -44.2498 C.3       10 UNK         0.1400 
     23 CB          1.2378  -22.2908  -43.5819 C.3       10 UNK        -0.1800 
     24 N          -0.7245  -20.9589  -44.2327 N.am      10 UNK        -0.5000 
     25 C          -1.9827  -20.6760  -44.6011 C.2       9 UNK         0.5000 
     26 O          -2.7982  -21.5289  -44.9500 O.2       9 UNK        -0.5000 
     27 CA         -2.3955  -19.1931  -44.6212 C.3       9 UNK         0.1400 
     28 CB         -2.7670  -18.7121  -43.2110 C.3       9 UNK        -0.1800 
     29 N          -1.3669  -18.3192  -45.1841 N.am      9 UNK        -0.5000 
     30 C          -0.9042  -18.3900  -46.4406 C.2       8 UNK         0.5000 
     31 O          -1.3175  -19.1897  -47.2791 O.2       8 UNK        -0.5000 
     32 CA          0.2650  -17.4548  -46.7963 C.3       8 UNK         0.1400 
     33 CB         -0.2224  -16.0171  -47.0369 C.3       8 UNK        -0.1800 
     34 N           1.3057  -17.4567  -45.7673 N.am      8 UNK        -0.5000 
     35 C           2.0102  -18.5401  -45.4086 C.2       7 UNK         0.5000 
     36 O           1.8860  -19.6460  -45.9318 O.2       7 UNK        -0.5000 
     37 CA          2.9625  -18.3734  -44.2142 C.3       7 UNK         0.1400 
     38 CB          4.2869  -17.7264  -44.6476 C.3       7 UNK        -0.1800 
     39 N           2.3450  -17.5899  -43.1433 N.am      7 UNK        -0.5000 
     40 C           1.3376  -18.0372  -42.3775 C.2       6 UNK         0.5000 
     41 O           0.8644  -19.1694  -42.4677 O.2       6 UNK        -0.5000 
     42 CA          0.7259  -17.0445  -41.3708 C.3       6 UNK         0.1400 
     43 CB          1.5055  -17.0672  -40.0480 C.3       6 UNK        -0.1800 
     44 N           0.6791  -15.6745  -41.8811 N.am      6 UNK        -0.5000 
     45 C          -0.0410  -15.2774  -42.9401 C.2       5 UNK         0.5000 
     46 O          -0.8013  -16.0187  -43.5605 O.2       5 UNK        -0.5000 
     47 CA          0.1561  -13.8254  -43.4142 C.3       5 UNK         0.1400 
     48 CB         -0.9391  -12.9127  -42.8452 C.3       5 UNK        -0.1800 
     49 N           1.4667  -13.2773  -43.0618 N.am      5 UNK        -0.5000 
     50 C           2.6398  -13.7130  -43.5367 C.2       4 UNK         0.5000 
     51 O           2.7410  -14.6569  -44.3233 O.2       4 UNK        -0.5000 
     52 CA          3.8945  -12.9722  -43.0294 C.3       4 UNK         0.1400 
     53 CB          5.1943  -13.4885  -43.6731 C.3       4 UNK        -0.1800 
     54 N           3.7959  -11.5265  -43.2384 N.am      4 UNK        -0.5000 
     55 C           3.1129  -10.6660  -42.4699 C.2       3 UNK         0.5000 
     56 O           2.4776  -11.0048  -41.4706 O.2       3 UNK        -0.5000 
     57 CA          3.0934   -9.1987  -42.9248 C.3       3 UNK         0.1400 
     58 CB          4.4493   -8.5232  -42.6644 C.3       3 UNK        -0.1800 
     59 N           2.7720   -9.1185  -44.3481 N.am      3 UNK        -0.5000 
     60 C           1.5399   -8.9371  -44.8450 C.2       2 UNK         0.5000 
     61 O           0.5467   -8.7150  -44.1517 O.2       2 UNK        -0.5000 
     62 CA          1.3848   -9.0350  -46.3772 C.3       2 UNK         0.1400 
     63 CB          1.5715   -7.6562  -47.0282 C.3       2 UNK        -0.1800 
     64 N           2.3287   -9.9798  -46.9763 N.am      2 UNK        -0.5000 
     65 C           2.2865  -11.3077  -46.7973 C.2       1 UNK         0.5000 
     66 O           1.3520  -11.8834  -46.2408 O.2       1 UNK        -0.5000 
     67 C          -0.9930  -22.6723  -48.6228 C.2       11 UNK         0.5000 
     68 O          -1.1956  -23.6539  -49.3351 O.2       11 UNK        -0.5000 
     69 N          -1.9500  -21.8018  -48.2714 N.am      12 UNK        -0.5000 
     70 CA         -3.3567  -21.9234  -48.6519 C.3       12 UNK         0.1400 
     71 CB         -4.1259  -20.6768  -48.1964 C.3       12 UNK        -0.1800 
     72 C          -4.0142  -23.1987  -48.0988 C.2       12 UNK         0.5000 
     73 O          -4.7100  -23.8880  -48.8437 O.2       12 UNK        -0.5000 
     74 N          -3.7603  -23.5067  -46.8196 N.am      13 UNK        -0.5000 
     75 CA         -4.2235  -24.7226  -46.1517 C.3       13 UNK         0.1400 
     76 CB         -3.8930  -24.6507  -44.6535 C.3       13 UNK        -0.1800 
     77 C          -3.6423  -25.9994  -46.7837 C.2       13 UNK         0.5000 
     78 O          -4.3936  -26.9442  -47.0300 O.2       13 UNK        -0.5000 
     79 N          -2.3315  -25.9856  -47.0710 N.am      14 UNK        -0.5000 
     80 CA         -1.6168  -27.0606  -47.7627 C.3       14 UNK         0.1400 
     81 CB         -0.1095  -26.7655  -47.7614 C.3       14 UNK        -0.1800 
     82 C          -2.1302  -27.2881  -49.1963 C.2       14 UNK         0.5000 
     83 O          -2.3059  -28.4364  -49.6052 O.2       14 UNK        -0.5000 
     84 N          -2.4275  -26.1961  -49.9119 N.am      15 UNK        -0.5000 
     85 CA         -3.0449  -26.1756  -51.2386 C.3       15 UNK         0.1400 
     86 CB         -2.6948  -24.8453  -51.9288 C.3       15 UNK        -0.1800 
     87 C          -4.5688  -26.4242  -51.1898 C.2       15 UNK         0.5000 
     88 O          -5.3270  -25.6907  -51.8229 O.2       15 UNK        -0.5000 
     89 N          -4.9891  -27.4525  -50.4387 N.am      16 UNK        -0.5000 
     90 CA         -6.3503  -27.9878  -50.3170 C.3       16 UNK         0.1400 
     91 CB         -6.6838  -28.8369  -51.5601 C.3       16 UNK        -0.1800 
     92 C          -7.4311  -26.9277  -50.0071 C.2       16 UNK         0.5000 
     93 O          -8.5108  -26.9588  -50.6004 O.2       16 UNK        -0.5000 
     94 N          -7.1087  -26.0119  -49.0822 N.am      17 UNK        -0.5000 
     95 CA         -7.9170  -24.8639  -48.6588 C.3       17 UNK         0.1400 
     96 CB         -9.2232  -25.3180  -47.9732 C.3       17 UNK        -0.1800 
     97 C          -8.1416  -23.8581  -49.8081 C.2       17 UNK         0.5000 
     98 O          -9.2793  -23.5914  -50.2002 O.2       17 UNK        -0.5000 
     99 N          -7.0239  -23.3130  -50.3039 N.am      18 UNK        -0.5000 
    100 CA        -6.9040  -22.2649  -51.3200 C.3       18 UNK         0.1400 
    101 CB        -7.5468  -20.9479  -50.8362 C.3       18 UNK        -0.1800 
    102 C         -7.3816  -22.6878  -52.7244 C.2       18 UNK         0.5000 
    103 O         -7.9343  -21.8673  -53.4603 O.2       18 UNK        -0.5000 
    104 N         -7.1324  -23.9484  -53.0984 N.am      19 UNK        -0.5000 
    105 CA        -7.3592  -24.4704  -54.4430 C.3       19 UNK         0.1400 
    106 CB        -7.4913  -26.0015  -54.3807 C.3       19 UNK        -0.1800 
    107 C         -6.2047  -24.0210  -55.3571 C.2       19 UNK         0.5000 
    108 O         -5.1592  -24.6724  -55.3915 O.2       19 UNK        -0.5000 
    109 N         -6.4095  -22.8865  -56.0417 N.am      20 UNK        -0.5000 
    110 CA        -5.4455  -22.1853  -56.8989 C.3       20 UNK         0.1400 
    111 CB        -5.0768  -23.0336  -58.1350 C.3       20 UNK        -0.1800 
    112 C         -4.2164  -21.6803  -56.1115 C.2       20 UNK         0.5000 
    113 O         -3.0769  -21.8506  -56.5497 O.2       20 UNK        -0.5000 
    114 N         -4.4819  -21.0571  -54.9585 N.am      21 UNK        -0.5000 
    115 CA        -3.5023  -20.4146  -54.0874 C.3       21 UNK         0.1400 
    116 CB        -3.0141  -21.4170  -53.0260 C.3       21 UNK        -0.1800 
    117 C         -4.1387  -19.1652  -53.4570 C.2       21 UNK         0.5000 
    118 O         -5.3372  -18.9306  -53.6318 O.2       21 UNK        -0.5000 
    119 N         -3.3228  -18.3820  -52.7429 N.am      22 UNK        -0.5000 
    120 CA        -3.6931  -17.0966  -52.1218 C.3       22 UNK         0.1400 
    121 C         -4.7103  -17.1550  -50.9407 C.2       22 UNK         0.5000 
    122 N         -5.1142  -18.3235  -50.4629 N.am      22 UNK        -0.7600 
    123 O         -5.1564  -16.1156  -50.4618 O.2       22 UNK        -0.5000 
    124 C124       -2.4370  -16.2586  -51.7653 C.3       23 UNK        -0.0398 
    125 S125       -1.2796  -17.0967  -50.6229 S.3       23 UNK        -0.2404 
    126 C126        0.3020  -16.8268  -51.4783 C.3       23 UNK        -0.0205 
    127 H127        6.5861   -8.8564  -47.0658 H         1 UNK         0.0600 
    128 H128        6.8167  -10.1079  -48.2914 H         1 UNK         0.0600 
    129 H129        7.5417  -10.2945  -46.6916 H         1 UNK         0.0600 
    130 H130        5.0116  -11.3895  -48.5492 H         1 UNK         0.3000 
    131 H131        3.7569  -12.7805  -46.4427 H         1 UNK         0.0600 
    132 H132        2.1867  -13.6002  -48.2393 H         1 UNK         0.0800 
    133 H133        2.9029  -12.4702  -49.3571 H         1 UNK         0.0800 
    134 H134        3.1272  -15.4856  -47.1982 H         1 UNK         0.0800 
    135 H135        4.6775  -16.2160  -47.4977 H         1 UNK         0.0800 
    136 H136        1.6991  -15.3393  -49.6873 H         1 UNK         0.1150 
    137 H137        1.4978  -19.2738  -51.3603 H         1 UNK         0.1150 
    138 H138        4.4801  -18.3535  -48.4250 H         1 UNK         0.1150 
    139 H139        3.2868  -20.8582  -50.9168 H         1 UNK         0.0800 
    140 H140        4.6616  -20.3790  -49.9551 H         1 UNK         0.0800 
    141 H141        1.0368  -21.5982  -49.9796 H         1 UNK         0.0800 
    142 H142        0.7811  -20.3945  -48.7344 H         1 UNK         0.0800 
    143 H143        0.9518  -23.3881  -48.1458 H         1 UNK         0.0600 
    144 H144        0.7482  -21.1688  -46.3884 H         1 UNK         0.3000 
    145 H145       -0.7964  -22.9508  -43.6590 H         1 UNK         0.0600 
    146 H146        1.1716  -21.9571  -42.5464 H         1 UNK         0.0600 
    147 H147        1.6760  -23.2895  -43.5742 H         1 UNK         0.0600 
    148 H148        1.9329  -21.6317  -44.1018 H         1 UNK         0.0600 
    149 H149       -0.1233  -20.2080  -43.9103 H         1 UNK         0.3000 
    150 H150       -3.2815  -19.1049  -45.2529 H         1 UNK         0.0600 
    151 H151       -3.5553  -19.3319  -42.7821 H         1 UNK         0.0600 
    152 H152       -3.1330  -17.6854  -43.2284 H         1 UNK         0.0600 
    153 H153       -1.9132  -18.7512  -42.5345 H         1 UNK         0.0600 
    154 H154       -1.0019  -17.5952  -44.5704 H         1 UNK         0.3000 
    155 H155        0.7106  -17.8271  -47.7203 H         1 UNK         0.0600 
    156 H156       -0.9485  -15.9853  -47.8492 H         1 UNK         0.0600 
    157 H157        0.6009  -15.3586  -47.3109 H         1 UNK         0.0600 
    158 H158       -0.7056  -15.5966  -46.1560 H         1 UNK         0.0600 
    159 H159        1.4625  -16.5919  -45.2684 H         1 UNK         0.3000 
    160 H160        3.1875  -19.3684  -43.8242 H         1 UNK         0.0600 
    161 H161        4.9808  -17.6493  -43.8106 H         1 UNK         0.0600 
    162 H162        4.1394  -16.7261  -45.0529 H         1 UNK         0.0600 
    163 H163        4.7737  -18.3220  -45.4210 H         1 UNK         0.0600 
    164 H164        2.6404  -16.6273  -43.0568 H         1 UNK         0.3000 
    165 H165       -0.2987  -17.3636  -41.1697 H         1 UNK         0.0600 
    166 H166        1.0355  -16.4262  -39.3019 H         1 UNK         0.0600 
    167 H167        1.5397  -18.0756  -39.6331 H         1 UNK         0.0600 
    168 H168        2.5349  -16.7314  -40.1799 H         1 UNK         0.0600 
    169 H169        1.2700  -14.9958  -41.4246 H         1 UNK         0.3000 
    170 H170        0.0748  -13.8211  -44.5031 H         1 UNK         0.0600 
    171 H171       -1.9311  -13.2793  -43.1126 H         1 UNK         0.0600 
    172 H172       -0.8906  -12.8554  -41.7571 H         1 UNK         0.0600 
    173 H173       -0.8500  -11.9000  -43.2398 H         1 UNK         0.0600 
    174 H174        1.4821  -12.4919  -42.4200 H         1 UNK         0.3000 
    175 H175        3.9642  -13.1659  -41.9571 H         1 UNK         0.0600 
    176 H176        5.2069  -13.3320  -44.7511 H         1 UNK         0.0600 
    177 H177        6.0658  -12.9846  -43.2551 H         1 UNK         0.0600 
    178 H178        5.3225  -14.5570  -43.4957 H         1 UNK         0.0600 
    179 H179        4.2804  -11.1627  -44.0566 H         1 UNK         0.3000 
    180 H180        2.3384   -8.6711  -42.3381 H         1 UNK         0.0600 
    181 H181        5.2568   -8.9982  -43.2226 H         1 UNK         0.0600 
    182 H182        4.7102   -8.5692  -41.6063 H         1 UNK         0.0600 
    183 H183        4.4231   -7.4708  -42.9473 H         1 UNK         0.0600 
    184 H184        3.5256   -9.3505  -44.9851 H         1 UNK         0.3000 
    185 H185        0.3706   -9.3802  -46.5892 H         1 UNK         0.0600 
    186 H186        0.8654   -6.9328  -46.6183 H         1 UNK         0.0600 
    187 H187        2.5760   -7.2646  -46.8627 H         1 UNK         0.0600 
    188 H188        1.4009   -7.7014  -48.1040 H         1 UNK         0.0600 
    189 H189        3.1261   -9.5880  -47.4556 H         1 UNK         0.3000 
    190 H190       -1.6974  -20.9821  -47.7237 H         1 UNK         0.3000 
    191 H191       -3.4009  -21.9709  -49.7417 H         1 UNK         0.0600 
    192 H192       -4.1340  -20.5806  -47.1110 H         1 UNK         0.0600 
    193 H193       -5.1632  -20.7147  -48.5286 H         1 UNK         0.0600 
    194 H194       -3.6794  -19.7701  -48.6037 H         1 UNK         0.0600 
    195 H195       -3.2180  -22.8567  -46.2559 H         1 UNK         0.3000 
    196 H196       -5.3095  -24.7655  -46.2560 H         1 UNK         0.0600 
    197 H197       -4.2370  -25.5455  -44.1333 H         1 UNK         0.0600 
    198 H198       -4.3786  -23.7947  -44.1847 H         1 UNK         0.0600 
    199 H199       -2.8202  -24.5606  -44.4805 H         1 UNK         0.0600 
    200 H200       -1.7795  -25.1768  -46.7992 H         1 UNK         0.3000 
    201 H201       -1.7823  -27.9824  -47.2015 H         1 UNK         0.0600 
    202 H202        0.2740  -26.6795  -46.7446 H         1 UNK         0.0600 
    203 H203        0.1201  -25.8367  -48.2840 H         1 UNK         0.0600 
    204 H204        0.4459  -27.5654  -48.2525 H         1 UNK         0.0600 
    205 H205       -2.2189  -25.2859  -49.5107 H         1 UNK         0.3000 
    206 H206       -2.6121  -26.9805  -51.8358 H         1 UNK         0.0600 
    207 H207       -1.6159  -24.7020  -51.9892 H         1 UNK         0.0600 
    208 H208       -3.0839  -24.8132  -52.9476 H         1 UNK         0.0600 
    209 H209       -3.1152  -23.9970  -51.3880 H         1 UNK         0.0600 
    210 H210       -4.2712  -27.9708  -49.9445 H         1 UNK         0.3000 
    211 H211       -6.3356  -28.6582  -49.4566 H         1 UNK         0.0600 
    212 H212       -6.7319  -28.2270  -52.4615 H         1 UNK         0.0600 
    213 H213       -7.6465  -29.3373  -51.4495 H         1 UNK         0.0600 
    214 H214       -5.9345  -29.6120  -51.7206 H         1 UNK         0.0600 
    215 H215       -6.1733  -26.0511  -48.6980 H         1 UNK         0.3000 
    216 H216       -7.3280  -24.3403  -47.9043 H         1 UNK         0.0600 
    217 H217       -9.7606  -24.4630  -47.5617 H         1 UNK         0.0600 
    218 H218       -9.0181  -26.0001  -47.1482 H         1 UNK         0.0600 
    219 H219       -9.8985  -25.8217  -48.6650 H         1 UNK         0.0600 
    220 H220       -6.1417  -23.6372  -49.9094 H         1 UNK         0.3000 
    221 H221       -5.8352  -22.0810  -51.4140 H         1 UNK         0.0600 
    222 H222       -8.6337  -21.0211  -50.7914 H         1 UNK         0.0600 
    223 H223       -7.1900  -20.6713  -49.8450 H         1 UNK         0.0600 
    224 H224       -7.3042  -20.1249  -51.5099 H         1 UNK         0.0600 
    225 H225       -6.5983  -24.5536  -52.4758 H         1 UNK         0.3000 
    226 H226       -8.2997  -24.0741  -54.8319 H         1 UNK         0.0600 
    227 H227       -7.7329  -26.4096  -55.3625 H         1 UNK         0.0600 
    228 H228       -6.5675  -26.4755  -54.0495 H         1 UNK         0.0600 
    229 H229       -8.2842  -26.3022  -53.6954 H         1 UNK         0.0600 
    230 H230       -7.2864  -22.4047  -55.8926 H         1 UNK         0.3000 
    231 H231       -5.9563  -21.2923  -57.2621 H         1 UNK         0.0600 
    232 H232       -5.9687  -23.3570  -58.6715 H         1 UNK         0.0600 
    233 H233       -4.5063  -23.9228  -57.8655 H         1 UNK         0.0600 
    234 H234       -4.4694  -22.4579  -58.8343 H         1 UNK         0.0600 
    235 H235       -5.4455  -20.8876  -54.6979 H         1 UNK         0.3000 
    236 H236       -2.6499  -20.0770  -54.6808 H         1 UNK         0.0600 
    237 H237       -2.5342  -22.2757  -53.4956 H         1 UNK         0.0600 
    238 H238       -2.2813  -20.9684  -52.3545 H         1 UNK         0.0600 
    239 H239       -3.8348  -21.7903  -52.4168 H         1 UNK         0.0600 
    240 H240       -2.3605  -18.6587  -52.6148 H         1 UNK         0.3000 
    241 H241       -4.2211  -16.5363  -52.8958 H         1 UNK         0.0600 
    242 H242       -5.7794  -18.3405  -49.7075 H         1 UNK         0.3800 
    243 H243       -4.7707  -19.1782  -50.8635 H         1 UNK         0.3800 
    244 H244       -1.9105  -16.0087  -52.6872 H         1 UNK         0.0800 
    245 H245       -2.7193  -15.2991  -51.3285 H         1 UNK         0.0800 
    246 H246        0.4022  -15.7705  -51.7330 H         1 UNK         0.0800 
    247 H247        0.3046  -17.3746  -52.4218 H         1 UNK         0.0800 
@<TRIPOS>BOND
     1    1    2 1    
     2    1  127 1    
     3    1  128 1    
     4    1  129 1    
     5    2    3 2    
     6    2    4 am   BACKBONE|DICT|INTERRES
     7    4    5 1    
     8    4  130 1    
     9    5    6 1    
    10    5   65 1    
    11    5  131 1    
    12    6    7 1    
    13    6  132 1    
    14    6  133 1    
    15    7    8 1    
    16    8    9 1    
    17    8  134 1    
    18    8  135 1    
    19    9   10 ar   
    20    9   14 ar   
    21   10   11 ar   
    22   10  136 1    
    23   11   12 ar   
    24   11  126 1    
    25   12   13 ar   
    26   12  137 1    
    27   13   14 ar   
    28   13   15 1    
    29   14  138 1    
    30   15   16 1    
    31   15  139 1    
    32   15  140 1    
    33   16   17 1    
    34   17   18 1    
    35   17  141 1    
    36   17  142 1    
    37   18   19 1    
    38   18   67 1    
    39   18  143 1    
    40   19   20 am   BACKBONE|DICT|INTERRES
    41   19  144 1    
    42   20   21 2    
    43   20   22 1    
    44   22   23 1    
    45   22   24 1    
    46   22  145 1    
    47   23  146 1    
    48   23  147 1    
    49   23  148 1    
    50   24   25 am   BACKBONE|DICT|INTERRES
    51   24  149 1    
    52   25   26 2    
    53   25   27 1    
    54   27   28 1    
    55   27   29 1    
    56   27  150 1    
    57   28  151 1    
    58   28  152 1    
    59   28  153 1    
    60   29   30 am   BACKBONE|DICT|INTERRES
    61   29  154 1    
    62   30   31 2    
    63   30   32 1    
    64   32   33 1    
    65   32   34 1    
    66   32  155 1    
    67   33  156 1    
    68   33  157 1    
    69   33  158 1    
    70   34   35 am   BACKBONE|DICT|INTERRES
    71   34  159 1    
    72   35   36 2    
    73   35   37 1    
    74   37   38 1    
    75   37   39 1    
    76   37  160 1    
    77   38  161 1    
    78   38  162 1    
    79   38  163 1    
    80   39   40 am   BACKBONE|DICT|INTERRES
    81   39  164 1    
    82   40   41 2    
    83   40   42 1    
    84   42   43 1    
    85   42   44 1    
    86   42  165 1    
    87   43  166 1    
    88   43  167 1    
    89   43  168 1    
    90   44   45 am   BACKBONE|DICT|INTERRES
    91   44  169 1    
    92   45   46 2    
    93   45   47 1    
    94   47   48 1    
    95   47   49 1    
    96   47  170 1    
    97   48  171 1    
    98   48  172 1    
    99   48  173 1    
   100   49   50 am   BACKBONE|DICT|INTERRES
   101   49  174 1    
   102   50   51 2    
   103   50   52 1    
   104   52   53 1    
   105   52   54 1    
   106   52  175 1    
   107   53  176 1    
   108   53  177 1    
   109   53  178 1    
   110   54   55 am   BACKBONE|DICT|INTERRES
   111   54  179 1    
   112   55   56 2    
   113   55   57 1    
   114   57   58 1    
   115   57   59 1    
   116   57  180 1    
   117   58  181 1    
   118   58  182 1    
   119   58  183 1    
   120   59   60 am   BACKBONE|DICT|INTERRES
   121   59  184 1    
   122   60   61 2    
   123   60   62 1    
   124   62   63 1    
   125   62   64 1    
   126   62  185 1    
   127   63  186 1    
   128   63  187 1    
   129   63  188 1    
   130   64   65 am   BACKBONE|DICT|INTERRES
   131   64  189 1    
   132   65   66 2    
   133   67   68 2    
   134   67   69 am   BACKBONE|DICT|INTERRES
   135   69   70 1    
   136   69  190 1    
   137   70   71 1    
   138   70   72 1    
   139   70  191 1    
   140   71  192 1    
   141   71  193 1    
   142   71  194 1    
   143   72   73 2    
   144   72   74 am   BACKBONE|DICT|INTERRES
   145   74   75 1    
   146   74  195 1    
   147   75   76 1    
   148   75   77 1    
   149   75  196 1    
   150   76  197 1    
   151   76  198 1    
   152   76  199 1    
   153   77   78 2    
   154   77   79 am   BACKBONE|DICT|INTERRES
   155   79   80 1    
   156   79  200 1    
   157   80   81 1    
   158   80   82 1    
   159   80  201 1    
   160   81  202 1    
   161   81  203 1    
   162   81  204 1    
   163   82   83 2    
   164   82   84 am   BACKBONE|DICT|INTERRES
   165   84   85 1    
   166   84  205 1    
   167   85   86 1    
   168   85   87 1    
   169   85  206 1    
   170   86  207 1    
   171   86  208 1    
   172   86  209 1    
   173   87   88 2    
   174   87   89 am   BACKBONE|DICT|INTERRES
   175   89   90 1    
   176   89  210 1    
   177   90   91 1    
   178   90   92 1    
   179   90  211 1    
   180   91  212 1    
   181   91  213 1    
   182   91  214 1    
   183   92   93 2    
   184   92   94 am   BACKBONE|DICT|INTERRES
   185   94   95 1    
   186   94  215 1    
   187   95   96 1    
   188   95   97 1    
   189   95  216 1    
   190   96  217 1    
   191   96  218 1    
   192   96  219 1    
   193   97   98 2    
   194   97   99 am   BACKBONE|DICT|INTERRES
   195   99  100 1    
   196   99  220 1    
   197  100  101 1    
   198  100  102 1    
   199  100  221 1    
   200  101  222 1    
   201  101  223 1    
   202  101  224 1    
   203  102  103 2    
   204  102  104 am   BACKBONE|DICT|INTERRES
   205  104  105 1    
   206  104  225 1    
   207  105  106 1    
   208  105  107 1    
   209  105  226 1    
   210  106  227 1    
   211  106  228 1    
   212  106  229 1    
   213  107  108 2    
   214  107  109 am   BACKBONE|DICT|INTERRES
   215  109  110 1    
   216  109  230 1    
   217  110  111 1    
   218  110  112 1    
   219  110  231 1    
   220  111  232 1    
   221  111  233 1    
   222  111  234 1    
   223  112  113 2    
   224  112  114 am   BACKBONE|DICT|INTERRES
   225  114  115 1    
   226  114  235 1    
   227  115  116 1    
   228  115  117 1    
   229  115  236 1    
   230  116  237 1    
   231  116  238 1    
   232  116  239 1    
   233  117  118 2    
   234  117  119 am   BACKBONE|DICT|INTERRES
   235  119  120 1    
   236  119  240 1    
   237  120  121 1    
   238  120  124 1    
   239  120  241 1    
   240  121  122 am   BACKBONE|DICT|INTERRES
   241  121  123 2    
   242  122  242 1    
   243  122  243 1    
   244  124  125 1    
   245  124  244 1    
   246  124  245 1    
   247  125  126 1    
   248  126  246 1    
   249  126  247 1    
@<TRIPOS>SUBSTRUCTURE
     1 UNK         1 GROUP             0       ****    0 ROOT    
