@<TRIPOS>MOLECULE
3R540
247   249    1
SMALL
USER_CHARGES


@<TRIPOS>ATOM
      1 CA         -2.0524   -9.8762  -45.7890 C.3       0 UNK        -0.1800 
      2 C          -1.2401  -11.1590  -45.8820 C.2       0 UNK         0.5000 
      3 O          -0.0216  -11.1010  -46.0395 O.2       0 UNK        -0.5000 
      4 N          -1.9030  -12.3170  -45.7677 N.am      1 UNK        -0.5000 
      5 CA         -1.3089  -13.6577  -45.8646 C.3       1 UNK         0.1400 
      6 C6         -2.3747  -14.7668  -45.7157 C.3       23 UNK        -0.0398 
      7 S7         -3.5632  -14.7750  -47.0980 S.3       23 UNK        -0.2404 
      8 C8         -3.2231  -16.3940  -47.8565 C.3       23 UNK        -0.0205 
      9 C9         -2.0671  -16.3542  -48.8473 C.ar      23 UNK        -0.0193 
     10 C10        -2.3291  -16.3710  -50.2197 C.ar      23 UNK        -0.1150 
     11 C11        -1.2858  -16.4787  -51.1423 C.ar      23 UNK        -0.0193 
     12 C12         0.0354  -16.5200  -50.6867 C.ar      23 UNK        -0.1150 
     13 C13         0.3152  -16.4704  -49.3182 C.ar      23 UNK        -0.0193 
     14 C14        -0.7410  -16.3837  -48.4048 C.ar      23 UNK        -0.1150 
     15 C15         1.7573  -16.5297  -48.8284 C.3       23 UNK        -0.0205 
     16 S16         2.4329  -18.2250  -48.8476 S.3       23 UNK        -0.2404 
     17 C17         1.4669  -18.9971  -47.5058 C.3       23 UNK        -0.0398 
     18 CA          1.1596  -20.5016  -47.6755 C.3       11 UNK         0.1400 
     19 N           0.4650  -21.0108  -46.4902 N.am      11 UNK        -0.5000 
     20 C           0.2655  -22.3090  -46.2206 C.2       10 UNK         0.5000 
     21 O           0.8248  -23.2167  -46.8354 O.2       10 UNK        -0.5000 
     22 CA         -0.7400  -22.6580  -45.1022 C.3       10 UNK         0.1400 
     23 CB         -0.0570  -23.3827  -43.9321 C.3       10 UNK        -0.1800 
     24 N          -1.4828  -21.5000  -44.5914 N.am      10 UNK        -0.5000 
     25 C          -2.4742  -20.8863  -45.2550 C.2       9 UNK         0.5000 
     26 O          -2.8435  -21.2255  -46.3776 O.2       9 UNK        -0.5000 
     27 CA         -3.1365  -19.6685  -44.5807 C.3       9 UNK         0.1400 
     28 CB         -4.3445  -20.1098  -43.7421 C.3       9 UNK        -0.1800 
     29 N          -2.2212  -18.8916  -43.7409 N.am      9 UNK        -0.5000 
     30 C          -1.1322  -18.2593  -44.1969 C.2       8 UNK         0.5000 
     31 O          -0.8047  -18.2613  -45.3814 O.2       8 UNK        -0.5000 
     32 CA         -0.2356  -17.5267  -43.1804 C.3       8 UNK         0.1400 
     33 CB         -0.8704  -17.3427  -41.7854 C.3       8 UNK        -0.1800 
     34 N           1.0799  -18.1596  -43.0680 N.am      8 UNK        -0.5000 
     35 C           1.3375  -19.4417  -42.7589 C.2       7 UNK         0.5000 
     36 O           0.4617  -20.2779  -42.5323 O.2       7 UNK        -0.5000 
     37 CA          2.8173  -19.8777  -42.6949 C.3       7 UNK         0.1400 
     38 CB          3.2016  -20.6627  -43.9593 C.3       7 UNK        -0.1800 
     39 N           3.7532  -18.7639  -42.5411 N.am      7 UNK        -0.5000 
     40 C           3.8723  -17.9859  -41.4559 C.2       6 UNK         0.5000 
     41 O           3.2743  -18.1914  -40.3994 O.2       6 UNK        -0.5000 
     42 CA          4.7967  -16.7549  -41.5809 C.3       6 UNK         0.1400 
     43 CB          6.1282  -17.0068  -40.8567 C.3       6 UNK        -0.1800 
     44 N           5.0782  -16.3458  -42.9638 N.am      6 UNK        -0.5000 
     45 C           4.1606  -15.9189  -43.8415 C.2       5 UNK         0.5000 
     46 O           2.9550  -15.8696  -43.5958 O.2       5 UNK        -0.5000 
     47 CA          4.6665  -15.5775  -45.2469 C.3       5 UNK         0.1400 
     48 CB          4.5949  -16.8188  -46.1517 C.3       5 UNK        -0.1800 
     49 N           3.8659  -14.4939  -45.8085 N.am      5 UNK        -0.5000 
     50 C           4.2708  -13.6886  -46.7992 C.2       4 UNK         0.5000 
     51 O           5.3334  -13.8332  -47.4057 O.2       4 UNK        -0.5000 
     52 CA          3.3672  -12.4918  -47.1505 C.3       4 UNK         0.1400 
     53 CB          2.2308  -12.9101  -48.0966 C.3       4 UNK        -0.1800 
     54 N           2.8095  -11.8353  -45.9686 N.am      4 UNK        -0.5000 
     55 C           3.5241  -11.1813  -45.0402 C.2       3 UNK         0.5000 
     56 O           4.7431  -11.0176  -45.1016 O.2       3 UNK        -0.5000 
     57 CA          2.7494  -10.6310  -43.8301 C.3       3 UNK         0.1400 
     58 CB          2.1905   -9.2297  -44.1226 C.3       3 UNK        -0.1800 
     59 N           1.6583  -11.5275  -43.4500 N.am      3 UNK        -0.5000 
     60 C           1.8145  -12.6145  -42.6811 C.2       2 UNK         0.5000 
     61 O           2.8698  -12.9009  -42.1148 O.2       2 UNK        -0.5000 
     62 CA          0.5917  -13.5380  -42.5112 C.3       2 UNK         0.1400 
     63 CB         -0.1244  -13.2506  -41.1833 C.3       2 UNK        -0.1800 
     64 N          -0.3771  -13.4338  -43.6052 N.am      2 UNK        -0.5000 
     65 C          -0.1718  -13.8877  -44.8500 C.2       1 UNK         0.5000 
     66 O           0.8628  -14.4402  -45.2186 O.2       1 UNK        -0.5000 
     67 C           0.3324  -20.7869  -48.9507 C.2       11 UNK         0.5000 
     68 O           0.9001  -21.1515  -49.9799 O.2       11 UNK        -0.5000 
     69 N          -0.9994  -20.6780  -48.8451 N.am      12 UNK        -0.5000 
     70 CA         -1.9597  -20.9083  -49.9208 C.3       12 UNK         0.1400 
     71 CB         -3.1614  -19.9802  -49.6961 C.3       12 UNK        -0.1800 
     72 C          -2.3580  -22.3950  -50.0017 C.2       12 UNK         0.5000 
     73 O          -3.5453  -22.7282  -49.9522 O.2       12 UNK        -0.5000 
     74 N          -1.3465  -23.2650  -50.1275 N.am      13 UNK        -0.5000 
     75 CA         -1.4426  -24.7248  -50.1981 C.3       13 UNK         0.1400 
     76 CB         -2.0279  -25.1527  -51.5645 C.3       13 UNK        -0.1800 
     77 C          -2.1844  -25.3082  -48.9745 C.2       13 UNK         0.5000 
     78 O          -1.7696  -25.0578  -47.8410 O.2       13 UNK        -0.5000 
     79 N          -3.2648  -26.0633  -49.2107 N.am      14 UNK        -0.5000 
     80 CA         -4.1312  -26.6470  -48.1893 C.3       14 UNK         0.1400 
     81 CB         -4.9614  -27.7772  -48.8226 C.3       14 UNK        -0.1800 
     82 C          -5.0152  -25.5785  -47.5153 C.2       14 UNK         0.5000 
     83 O          -6.2032  -25.4724  -47.8254 O.2       14 UNK        -0.5000 
     84 N          -4.4000  -24.7935  -46.6207 N.am      15 UNK        -0.5000 
     85 CA         -5.0125  -23.8399  -45.6872 C.3       15 UNK         0.1400 
     86 CB         -5.7289  -24.6104  -44.5595 C.3       15 UNK        -0.1800 
     87 C          -5.9247  -22.7830  -46.3487 C.2       15 UNK         0.5000 
     88 O          -6.9336  -22.3921  -45.7598 O.2       15 UNK        -0.5000 
     89 N          -5.5679  -22.3621  -47.5709 N.am      16 UNK        -0.5000 
     90 CA         -6.2878  -21.4192  -48.4346 C.3       16 UNK         0.1400 
     91 CB         -6.4297  -20.0370  -47.7610 C.3       16 UNK        -0.1800 
     92 C          -7.6309  -21.9440  -48.9833 C.2       16 UNK         0.5000 
     93 O          -8.3352  -21.1871  -49.6531 O.2       16 UNK        -0.5000 
     94 N          -7.9588  -23.2215  -48.7391 N.am      17 UNK        -0.5000 
     95 CA         -9.1256  -23.8883  -49.3150 C.3       17 UNK         0.1400 
     96 CB         -9.5157  -25.0976  -48.4511 C.3       17 UNK        -0.1800 
     97 C          -8.8473  -24.3118  -50.7661 C.2       17 UNK         0.5000 
     98 O          -9.7143  -24.1482  -51.6253 O.2       17 UNK        -0.5000 
     99 N          -7.6329  -24.8241  -51.0128 N.am      18 UNK        -0.5000 
    100 CA        -7.1461  -25.1668  -52.3472 C.3       18 UNK         0.1400 
    101 CB        -6.0501  -26.2393  -52.2432 C.3       18 UNK        -0.1800 
    102 C         -6.6275  -23.9261  -53.0916 C.2       18 UNK         0.5000 
    103 O         -7.0263  -23.6964  -54.2331 O.2       18 UNK        -0.5000 
    104 N         -5.7315  -23.1677  -52.4354 N.am      19 UNK        -0.5000 
    105 CA        -5.0455  -21.9681  -52.9422 C.3       19 UNK         0.1400 
    106 CB        -6.0424  -20.8100  -53.1453 C.3       19 UNK        -0.1800 
    107 C         -4.1565  -22.2153  -54.1833 C.2       19 UNK         0.5000 
    108 O         -3.7953  -21.2661  -54.8783 O.2       19 UNK        -0.5000 
    109 N         -3.7925  -23.4825  -54.4288 N.am      20 UNK        -0.5000 
    110 CA        -3.0673  -23.9539  -55.6130 C.3       20 UNK         0.1400 
    111 CB        -3.0648  -25.4905  -55.6014 C.3       20 UNK        -0.1800 
    112 C         -1.6293  -23.4149  -55.7416 C.2       20 UNK         0.5000 
    113 O         -1.0835  -23.3982  -56.8452 O.2       20 UNK        -0.5000 
    114 N         -1.0442  -22.9887  -54.6159 N.am      21 UNK        -0.5000 
    115 CA         0.2858  -22.3871  -54.5408 C.3       21 UNK         0.1400 
    116 CB         0.7729  -22.4730  -53.0873 C.3       21 UNK        -0.1800 
    117 C          0.3236  -20.9261  -55.0332 C.2       21 UNK         0.5000 
    118 O          1.4033  -20.4359  -55.3675 O.2       21 UNK        -0.5000 
    119 N         -0.8321  -20.2502  -55.0489 N.am      22 UNK        -0.5000 
    120 CA        -0.9723  -18.8480  -55.4636 C.3       22 UNK         0.1400 
    121 C         -0.9665  -18.6900  -57.0083 C.2       22 UNK         0.5000 
    122 N         -0.4084  -17.6024  -57.5230 N.am      22 UNK        -0.7600 
    123 O         -1.4962  -19.5194  -57.7446 O.2       22 UNK        -0.5000 
    124 C124       -2.2350  -18.1948  -54.8484 C.3       23 UNK        -0.0398 
    125 S125       -2.2220  -18.2565  -53.0244 S.3       23 UNK        -0.2404 
    126 C126       -1.5955  -16.5945  -52.6255 C.3       23 UNK        -0.0205 
    127 H127       -1.6919   -9.2644  -44.9621 H         1 UNK         0.0600 
    128 H128       -3.1118  -10.0774  -45.6285 H         1 UNK         0.0600 
    129 H129       -1.9497   -9.3017  -46.7094 H         1 UNK         0.0600 
    130 H130       -2.9069  -12.2970  -45.6567 H         1 UNK         0.3000 
    131 H131       -0.8647  -13.7401  -46.8590 H         1 UNK         0.0600 
    132 H132       -1.9061  -15.7477  -45.6424 H         1 UNK         0.0800 
    133 H133       -2.9337  -14.6398  -44.7870 H         1 UNK         0.0800 
    134 H134       -4.1308  -16.7283  -48.3614 H         1 UNK         0.0800 
    135 H135       -3.0262  -17.1430  -47.0882 H         1 UNK         0.0800 
    136 H136       -3.3508  -16.3619  -50.5729 H         1 UNK         0.1150 
    137 H137        0.8475  -16.6116  -51.3943 H         1 UNK         0.1150 
    138 H138       -0.5270  -16.3752  -47.3462 H         1 UNK         0.1150 
    139 H139        1.8370  -16.1216  -47.8191 H         1 UNK         0.0800 
    140 H140        2.3803  -15.8970  -49.4617 H         1 UNK         0.0800 
    141 H141        0.5284  -18.4619  -47.4124 H         1 UNK         0.0800 
    142 H142        1.9973  -18.8309  -46.5691 H         1 UNK         0.0800 
    143 H143        2.1088  -21.0340  -47.7663 H         1 UNK         0.0600 
    144 H144       -0.0259  -20.3235  -45.9324 H         1 UNK         0.3000 
    145 H145       -1.4597  -23.3522  -45.5413 H         1 UNK         0.0600 
    146 H146       -0.7873  -23.7024  -43.1886 H         1 UNK         0.0600 
    147 H147        0.4654  -24.2761  -44.2764 H         1 UNK         0.0600 
    148 H148        0.6735  -22.7500  -43.4307 H         1 UNK         0.0600 
    149 H149       -1.1731  -21.1216  -43.7029 H         1 UNK         0.3000 
    150 H150       -3.4970  -19.0123  -45.3756 H         1 UNK         0.0600 
    151 H151       -4.0499  -20.7719  -42.9269 H         1 UNK         0.0600 
    152 H152       -5.0706  -20.6445  -44.3550 H         1 UNK         0.0600 
    153 H153       -4.8596  -19.2518  -43.3098 H         1 UNK         0.0600 
    154 H154       -2.4130  -18.8746  -42.7498 H         1 UNK         0.3000 
    155 H155       -0.0591  -16.5355  -43.5955 H         1 UNK         0.0600 
    156 H156       -1.0401  -18.2932  -41.2785 H         1 UNK         0.0600 
    157 H157       -1.8259  -16.8208  -41.8525 H         1 UNK         0.0600 
    158 H158       -0.2239  -16.7421  -41.1452 H         1 UNK         0.0600 
    159 H159        1.8626  -17.5414  -43.2574 H         1 UNK         0.3000 
    160 H160        2.9262  -20.5376  -41.8318 H         1 UNK         0.0600 
    161 H161        3.1411  -20.0420  -44.8532 H         1 UNK         0.0600 
    162 H162        2.5438  -21.5180  -44.1103 H         1 UNK         0.0600 
    163 H163        4.2185  -21.0490  -43.8888 H         1 UNK         0.0600 
    164 H164        4.2991  -18.5199  -43.3532 H         1 UNK         0.3000 
    165 H165        4.2901  -15.9224  -41.0878 H         1 UNK         0.0600 
    166 H166        6.7539  -16.1140  -40.8581 H         1 UNK         0.0600 
    167 H167        6.6927  -17.8151  -41.3232 H         1 UNK         0.0600 
    168 H168        5.9613  -17.2820  -39.8144 H         1 UNK         0.0600 
    169 H169        6.0464  -16.3842  -43.2490 H         1 UNK         0.3000 
    170 H170        5.7039  -15.2454  -45.1679 H         1 UNK         0.0600 
    171 H171        5.1995  -17.6344  -45.7536 H         1 UNK         0.0600 
    172 H172        3.5708  -17.1781  -46.2356 H         1 UNK         0.0600 
    173 H173        4.9584  -16.6073  -47.1573 H         1 UNK         0.0600 
    174 H174        2.9609  -14.3481  -45.3674 H         1 UNK         0.3000 
    175 H175        3.9828  -11.7570  -47.6736 H         1 UNK         0.0600 
    176 H176        1.5684  -13.6425  -47.6370 H         1 UNK         0.0600 
    177 H177        1.6253  -12.0519  -48.3890 H         1 UNK         0.0600 
    178 H178        2.6280  -13.3545  -49.0098 H         1 UNK         0.0600 
    179 H179        1.7996  -11.8579  -45.8734 H         1 UNK         0.3000 
    180 H180        3.4488  -10.5419  -42.9959 H         1 UNK         0.0600 
    181 H181        1.5024   -9.2316  -44.9678 H         1 UNK         0.0600 
    182 H182        2.9959   -8.5337  -44.3603 H         1 UNK         0.0600 
    183 H183        1.6596   -8.8291  -43.2589 H         1 UNK         0.0600 
    184 H184        0.7721  -11.3808  -43.9131 H         1 UNK         0.3000 
    185 H185        0.9602  -14.5645  -42.4774 H         1 UNK         0.0600 
    186 H186       -0.9425  -13.9517  -41.0168 H         1 UNK         0.0600 
    187 H187        0.5617  -13.3490  -40.3410 H         1 UNK         0.0600 
    188 H188       -0.5344  -12.2403  -41.1572 H         1 UNK         0.0600 
    189 H189       -1.2481  -12.9676  -43.3963 H         1 UNK         0.3000 
    190 H190       -1.4042  -20.4903  -47.9370 H         1 UNK         0.3000 
    191 H191       -1.5088  -20.6378  -50.8778 H         1 UNK         0.0600 
    192 H192       -3.9067  -20.0862  -50.4836 H         1 UNK         0.0600 
    193 H193       -2.8472  -18.9407  -49.6948 H         1 UNK         0.0600 
    194 H194       -3.6425  -20.1783  -48.7401 H         1 UNK         0.0600 
    195 H195       -0.4076  -22.8847  -50.1100 H         1 UNK         0.3000 
    196 H196       -0.4220  -25.1057  -50.1407 H         1 UNK         0.0600 
    197 H197       -3.0357  -24.7684  -51.7198 H         1 UNK         0.0600 
    198 H198       -1.4066  -24.7867  -52.3807 H         1 UNK         0.0600 
    199 H199       -2.0611  -26.2386  -51.6621 H         1 UNK         0.0600 
    200 H200       -3.5431  -26.2096  -50.1683 H         1 UNK         0.3000 
    201 H201       -3.5043  -27.0958  -47.4156 H         1 UNK         0.0600 
    202 H202       -5.6259  -27.4068  -49.6020 H         1 UNK         0.0600 
    203 H203       -5.5832  -28.2675  -48.0726 H         1 UNK         0.0600 
    204 H204       -4.3202  -28.5415  -49.2619 H         1 UNK         0.0600 
    205 H205       -3.3915  -24.8851  -46.5595 H         1 UNK         0.3000 
    206 H206       -4.1904  -23.2898  -45.2309 H         1 UNK         0.0600 
    207 H207       -5.0594  -25.3274  -44.0844 H         1 UNK         0.0600 
    208 H208       -6.0795  -23.9332  -43.7797 H         1 UNK         0.0600 
    209 H209       -6.5948  -25.1573  -44.9347 H         1 UNK         0.0600 
    210 H210       -4.7199  -22.7422  -47.9745 H         1 UNK         0.3000 
    211 H211       -5.6614  -21.2899  -49.3154 H         1 UNK         0.0600 
    212 H212       -6.7467  -19.2836  -48.4829 H         1 UNK         0.0600 
    213 H213       -5.4846  -19.7006  -47.3349 H         1 UNK         0.0600 
    214 H214       -7.1695  -20.0495  -46.9606 H         1 UNK         0.0600 
    215 H215       -7.3249  -23.8007  -48.1983 H         1 UNK         0.3000 
    216 H216       -9.9679  -23.1930  -49.3173 H         1 UNK         0.0600 
    217 H217       -8.7412  -25.8649  -48.4484 H         1 UNK         0.0600 
    218 H218      -10.4304  -25.5601  -48.8236 H         1 UNK         0.0600 
    219 H219       -9.6973  -24.8017  -47.4177 H         1 UNK         0.0600 
    220 H220       -6.9965  -24.9412  -50.2372 H         1 UNK         0.3000 
    221 H221       -7.9672  -25.5887  -52.9313 H         1 UNK         0.0600 
    222 H222       -6.4533  -27.1681  -51.8400 H         1 UNK         0.0600 
    223 H223       -5.2288  -25.9218  -51.6017 H         1 UNK         0.0600 
    224 H224       -5.6330  -26.4706  -53.2243 H         1 UNK         0.0600 
    225 H225       -5.4645  -23.4417  -51.4998 H         1 UNK         0.3000 
    226 H226       -4.3571  -21.6580  -52.1593 H         1 UNK         0.0600 
    227 H227       -6.7299  -21.0064  -53.9683 H         1 UNK         0.0600 
    228 H228       -6.6344  -20.6390  -52.2458 H         1 UNK         0.0600 
    229 H229       -5.5207  -19.8787  -53.3698 H         1 UNK         0.0600 
    230 H230       -4.1361  -24.1957  -53.8051 H         1 UNK         0.3000 
    231 H231       -3.6180  -23.6178  -56.4940 H         1 UNK         0.0600 
    232 H232       -2.5506  -25.8854  -54.7242 H         1 UNK         0.0600 
    233 H233       -2.5612  -25.8882  -56.4837 H         1 UNK         0.0600 
    234 H234       -4.0802  -25.8874  -55.6035 H         1 UNK         0.0600 
    235 H235       -1.5713  -23.0397  -53.7583 H         1 UNK         0.3000 
    236 H236        0.9690  -22.9656  -55.1662 H         1 UNK         0.0600 
    237 H237        0.8208  -23.5062  -52.7432 H         1 UNK         0.0600 
    238 H238        1.7723  -22.0490  -52.9807 H         1 UNK         0.0600 
    239 H239        0.1123  -21.9239  -52.4166 H         1 UNK         0.0600 
    240 H240       -1.6955  -20.7313  -54.8303 H         1 UNK         0.3000 
    241 H241       -0.1074  -18.3046  -55.0771 H         1 UNK         0.0600 
    242 H242       -0.4102  -17.4795  -58.5241 H         1 UNK         0.3800 
    243 H243        0.0293  -16.9036  -56.9423 H         1 UNK         0.3800 
    244 H244       -3.1362  -18.6984  -55.2012 H         1 UNK         0.0800 
    245 H245       -2.3279  -17.1555  -55.1685 H         1 UNK         0.0800 
    246 H246       -2.3372  -15.8459  -52.9076 H         1 UNK         0.0800 
    247 H247       -0.7019  -16.3897  -53.2171 H         1 UNK         0.0800 
@<TRIPOS>BOND
     1    1    2 1    
     2    1  127 1    
     3    1  128 1    
     4    1  129 1    
     5    2    3 2    
     6    2    4 am   BACKBONE|DICT|INTERRES
     7    4    5 1    
     8    4  130 1    
     9    5    6 1    
    10    5   65 1    
    11    5  131 1    
    12    6    7 1    
    13    6  132 1    
    14    6  133 1    
    15    7    8 1    
    16    8    9 1    
    17    8  134 1    
    18    8  135 1    
    19    9   10 ar   
    20    9   14 ar   
    21   10   11 ar   
    22   10  136 1    
    23   11   12 ar   
    24   11  126 1    
    25   12   13 ar   
    26   12  137 1    
    27   13   14 ar   
    28   13   15 1    
    29   14  138 1    
    30   15   16 1    
    31   15  139 1    
    32   15  140 1    
    33   16   17 1    
    34   17   18 1    
    35   17  141 1    
    36   17  142 1    
    37   18   19 1    
    38   18   67 1    
    39   18  143 1    
    40   19   20 am   BACKBONE|DICT|INTERRES
    41   19  144 1    
    42   20   21 2    
    43   20   22 1    
    44   22   23 1    
    45   22   24 1    
    46   22  145 1    
    47   23  146 1    
    48   23  147 1    
    49   23  148 1    
    50   24   25 am   BACKBONE|DICT|INTERRES
    51   24  149 1    
    52   25   26 2    
    53   25   27 1    
    54   27   28 1    
    55   27   29 1    
    56   27  150 1    
    57   28  151 1    
    58   28  152 1    
    59   28  153 1    
    60   29   30 am   BACKBONE|DICT|INTERRES
    61   29  154 1    
    62   30   31 2    
    63   30   32 1    
    64   32   33 1    
    65   32   34 1    
    66   32  155 1    
    67   33  156 1    
    68   33  157 1    
    69   33  158 1    
    70   34   35 am   BACKBONE|DICT|INTERRES
    71   34  159 1    
    72   35   36 2    
    73   35   37 1    
    74   37   38 1    
    75   37   39 1    
    76   37  160 1    
    77   38  161 1    
    78   38  162 1    
    79   38  163 1    
    80   39   40 am   BACKBONE|DICT|INTERRES
    81   39  164 1    
    82   40   41 2    
    83   40   42 1    
    84   42   43 1    
    85   42   44 1    
    86   42  165 1    
    87   43  166 1    
    88   43  167 1    
    89   43  168 1    
    90   44   45 am   BACKBONE|DICT|INTERRES
    91   44  169 1    
    92   45   46 2    
    93   45   47 1    
    94   47   48 1    
    95   47   49 1    
    96   47  170 1    
    97   48  171 1    
    98   48  172 1    
    99   48  173 1    
   100   49   50 am   BACKBONE|DICT|INTERRES
   101   49  174 1    
   102   50   51 2    
   103   50   52 1    
   104   52   53 1    
   105   52   54 1    
   106   52  175 1    
   107   53  176 1    
   108   53  177 1    
   109   53  178 1    
   110   54   55 am   BACKBONE|DICT|INTERRES
   111   54  179 1    
   112   55   56 2    
   113   55   57 1    
   114   57   58 1    
   115   57   59 1    
   116   57  180 1    
   117   58  181 1    
   118   58  182 1    
   119   58  183 1    
   120   59   60 am   BACKBONE|DICT|INTERRES
   121   59  184 1    
   122   60   61 2    
   123   60   62 1    
   124   62   63 1    
   125   62   64 1    
   126   62  185 1    
   127   63  186 1    
   128   63  187 1    
   129   63  188 1    
   130   64   65 am   BACKBONE|DICT|INTERRES
   131   64  189 1    
   132   65   66 2    
   133   67   68 2    
   134   67   69 am   BACKBONE|DICT|INTERRES
   135   69   70 1    
   136   69  190 1    
   137   70   71 1    
   138   70   72 1    
   139   70  191 1    
   140   71  192 1    
   141   71  193 1    
   142   71  194 1    
   143   72   73 2    
   144   72   74 am   BACKBONE|DICT|INTERRES
   145   74   75 1    
   146   74  195 1    
   147   75   76 1    
   148   75   77 1    
   149   75  196 1    
   150   76  197 1    
   151   76  198 1    
   152   76  199 1    
   153   77   78 2    
   154   77   79 am   BACKBONE|DICT|INTERRES
   155   79   80 1    
   156   79  200 1    
   157   80   81 1    
   158   80   82 1    
   159   80  201 1    
   160   81  202 1    
   161   81  203 1    
   162   81  204 1    
   163   82   83 2    
   164   82   84 am   BACKBONE|DICT|INTERRES
   165   84   85 1    
   166   84  205 1    
   167   85   86 1    
   168   85   87 1    
   169   85  206 1    
   170   86  207 1    
   171   86  208 1    
   172   86  209 1    
   173   87   88 2    
   174   87   89 am   BACKBONE|DICT|INTERRES
   175   89   90 1    
   176   89  210 1    
   177   90   91 1    
   178   90   92 1    
   179   90  211 1    
   180   91  212 1    
   181   91  213 1    
   182   91  214 1    
   183   92   93 2    
   184   92   94 am   BACKBONE|DICT|INTERRES
   185   94   95 1    
   186   94  215 1    
   187   95   96 1    
   188   95   97 1    
   189   95  216 1    
   190   96  217 1    
   191   96  218 1    
   192   96  219 1    
   193   97   98 2    
   194   97   99 am   BACKBONE|DICT|INTERRES
   195   99  100 1    
   196   99  220 1    
   197  100  101 1    
   198  100  102 1    
   199  100  221 1    
   200  101  222 1    
   201  101  223 1    
   202  101  224 1    
   203  102  103 2    
   204  102  104 am   BACKBONE|DICT|INTERRES
   205  104  105 1    
   206  104  225 1    
   207  105  106 1    
   208  105  107 1    
   209  105  226 1    
   210  106  227 1    
   211  106  228 1    
   212  106  229 1    
   213  107  108 2    
   214  107  109 am   BACKBONE|DICT|INTERRES
   215  109  110 1    
   216  109  230 1    
   217  110  111 1    
   218  110  112 1    
   219  110  231 1    
   220  111  232 1    
   221  111  233 1    
   222  111  234 1    
   223  112  113 2    
   224  112  114 am   BACKBONE|DICT|INTERRES
   225  114  115 1    
   226  114  235 1    
   227  115  116 1    
   228  115  117 1    
   229  115  236 1    
   230  116  237 1    
   231  116  238 1    
   232  116  239 1    
   233  117  118 2    
   234  117  119 am   BACKBONE|DICT|INTERRES
   235  119  120 1    
   236  119  240 1    
   237  120  121 1    
   238  120  124 1    
   239  120  241 1    
   240  121  122 am   BACKBONE|DICT|INTERRES
   241  121  123 2    
   242  122  242 1    
   243  122  243 1    
   244  124  125 1    
   245  124  244 1    
   246  124  245 1    
   247  125  126 1    
   248  126  246 1    
   249  126  247 1    
@<TRIPOS>SUBSTRUCTURE
     1 UNK         1 GROUP             0       ****    0 ROOT    
