@<TRIPOS>MOLECULE
3R540
247   249    1
SMALL
USER_CHARGES


@<TRIPOS>ATOM
      1 CA          2.8806  -20.5129  -47.0843 C.3       0 UNK        -0.1800 
      2 C           2.9629  -18.9951  -47.1147 C.2       0 UNK         0.5000 
      3 O           2.7543  -18.3466  -46.0919 O.2       0 UNK        -0.5000 
      4 N           3.2994  -18.4209  -48.2767 N.am      1 UNK        -0.5000 
      5 CA          3.4097  -16.9713  -48.5096 C.3       1 UNK         0.1400 
      6 C6          3.6450  -16.6438  -50.0046 C.3       23 UNK        -0.0398 
      7 S7          2.3101  -17.2981  -51.0650 S.3       23 UNK        -0.2404 
      8 C8          1.2549  -15.8274  -51.2460 C.3       23 UNK        -0.0205 
      9 C9         -0.2078  -16.2199  -51.3638 C.ar      23 UNK        -0.0193 
     10 C10        -0.8213  -16.3386  -52.6149 C.ar      23 UNK        -0.1150 
     11 C11        -2.1713  -16.6933  -52.7092 C.ar      23 UNK        -0.0193 
     12 C12        -2.9043  -16.9299  -51.5432 C.ar      23 UNK        -0.1150 
     13 C13        -2.2954  -16.8333  -50.2907 C.ar      23 UNK        -0.0193 
     14 C14        -0.9498  -16.4681  -50.2066 C.ar      23 UNK        -0.1150 
     15 C15        -3.0849  -17.1338  -49.0271 C.3       23 UNK        -0.0205 
     16 S16        -3.3466  -18.9209  -48.7796 S.3       23 UNK        -0.2404 
     17 C17        -1.6391  -19.5788  -48.8690 C.3       23 UNK        -0.0398 
     18 CA         -1.3799  -20.8945  -48.0948 C.3       11 UNK         0.1400 
     19 N          -1.2028  -20.6657  -46.6564 N.am      11 UNK        -0.5000 
     20 C          -0.6868  -21.5644  -45.8061 C.2       10 UNK         0.5000 
     21 O          -0.3364  -22.6922  -46.1496 O.2       10 UNK        -0.5000 
     22 CA         -0.5892  -21.1762  -44.3208 C.3       10 UNK         0.1400 
     23 CB          0.7526  -20.4969  -44.0231 C.3       10 UNK        -0.1800 
     24 N          -1.6887  -20.3365  -43.8431 N.am      10 UNK        -0.5000 
     25 C          -2.9836  -20.6874  -43.8580 C.2       9 UNK         0.5000 
     26 O          -3.4077  -21.7179  -44.3841 O.2       9 UNK        -0.5000 
     27 CA         -3.9658  -19.7179  -43.1849 C.3       9 UNK         0.1400 
     28 CB         -3.8192  -19.7626  -41.6557 C.3       9 UNK        -0.1800 
     29 N          -3.7358  -18.3569  -43.6585 N.am      9 UNK        -0.5000 
     30 C          -4.3611  -17.8115  -44.7104 C.2       8 UNK         0.5000 
     31 O          -5.2947  -18.3487  -45.3066 O.2       8 UNK        -0.5000 
     32 CA         -3.8554  -16.4353  -45.1890 C.3       8 UNK         0.1400 
     33 CB         -4.6914  -15.3087  -44.5635 C.3       8 UNK        -0.1800 
     34 N          -2.4393  -16.1861  -44.9069 N.am      8 UNK        -0.5000 
     35 C          -1.4157  -16.9237  -45.3604 C.2       7 UNK         0.5000 
     36 O          -1.5432  -17.9090  -46.0819 O.2       7 UNK        -0.5000 
     37 CA         -0.0127  -16.5364  -44.8732 C.3       7 UNK         0.1400 
     38 CB          0.6284  -15.5348  -45.8420 C.3       7 UNK        -0.1800 
     39 N           0.0188  -16.0286  -43.4956 N.am      7 UNK        -0.5000 
     40 C          -0.3983  -16.7229  -42.4213 C.2       6 UNK         0.5000 
     41 O          -0.9060  -17.8439  -42.5041 O.2       6 UNK        -0.5000 
     42 CA         -0.2495  -16.0803  -41.0278 C.3       6 UNK         0.1400 
     43 CB          0.5693  -16.9759  -40.0846 C.3       6 UNK        -0.1800 
     44 N           0.3711  -14.7567  -41.0736 N.am      6 UNK        -0.5000 
     45 C          -0.3020  -13.5984  -41.1033 C.2       5 UNK         0.5000 
     46 O          -1.5305  -13.5214  -41.0685 O.2       5 UNK        -0.5000 
     47 CA          0.5322  -12.3049  -41.2123 C.3       5 UNK         0.1400 
     48 CB          0.7606  -11.6940  -39.8215 C.3       5 UNK        -0.1800 
     49 N           1.8288  -12.4894  -41.8699 N.am      5 UNK        -0.5000 
     50 C           1.9949  -12.8909  -43.1370 C.2       4 UNK         0.5000 
     51 O           1.0565  -13.1334  -43.8940 O.2       4 UNK        -0.5000 
     52 CA          3.4369  -13.0940  -43.6409 C.3       4 UNK         0.1400 
     53 CB          4.5001  -12.3484  -42.8042 C.3       4 UNK        -0.1800 
     54 N           3.7904  -14.5125  -43.7583 N.am      4 UNK        -0.5000 
     55 C           3.7661  -15.4473  -42.7941 C.2       3 UNK         0.5000 
     56 O           3.3195  -15.2477  -41.6629 O.2       3 UNK        -0.5000 
     57 CA          4.3465  -16.8389  -43.1328 C.3       3 UNK         0.1400 
     58 CB          3.2981  -17.9458  -42.9454 C.3       3 UNK        -0.1800 
     59 N           4.9111  -16.9364  -44.4831 N.am      3 UNK        -0.5000 
     60 C           6.1109  -16.4524  -44.8430 C.2       2 UNK         0.5000 
     61 O           6.8589  -15.8616  -44.0634 O.2       2 UNK        -0.5000 
     62 CA          6.5670  -16.6481  -46.3051 C.3       2 UNK         0.1400 
     63 CB          7.6992  -17.6848  -46.3795 C.3       2 UNK        -0.1800 
     64 N           5.4991  -17.0611  -47.2158 N.am      2 UNK        -0.5000 
     65 C           4.4811  -16.2915  -47.6256 C.2       1 UNK         0.5000 
     66 O           4.3491  -15.1104  -47.3026 O.2       1 UNK        -0.5000 
     67 C          -2.3990  -22.0099  -48.4295 C.2       11 UNK         0.5000 
     68 O          -2.3340  -22.5786  -49.5239 O.2       11 UNK        -0.5000 
     69 N          -3.2915  -22.3108  -47.4759 N.am      12 UNK        -0.5000 
     70 CA         -4.2463  -23.4099  -47.5265 C.3       12 UNK         0.1400 
     71 CB         -5.6105  -22.9185  -47.0182 C.3       12 UNK        -0.1800 
     72 C          -3.7559  -24.6059  -46.6964 C.2       12 UNK         0.5000 
     73 O          -3.8388  -25.7359  -47.1747 O.2       12 UNK        -0.5000 
     74 N          -3.2387  -24.3478  -45.4853 N.am      13 UNK        -0.5000 
     75 CA         -2.7980  -25.3730  -44.5340 C.3       13 UNK         0.1400 
     76 CB         -2.5468  -24.7321  -43.1611 C.3       13 UNK        -0.1800 
     77 C          -1.5627  -26.1630  -45.0046 C.2       13 UNK         0.5000 
     78 O          -1.5434  -27.3871  -44.8714 O.2       13 UNK        -0.5000 
     79 N          -0.5732  -25.4611  -45.5744 N.am      14 UNK        -0.5000 
     80 CA          0.5950  -26.0600  -46.2288 C.3       14 UNK         0.1400 
     81 CB          1.8181  -25.1528  -46.0109 C.3       14 UNK        -0.1800 
     82 C           0.3497  -26.2866  -47.7342 C.2       14 UNK         0.5000 
     83 O           1.1891  -26.8955  -48.3978 O.2       14 UNK        -0.5000 
     84 N          -0.7858  -25.7813  -48.2412 N.am      15 UNK        -0.5000 
     85 CA         -1.2723  -25.8465  -49.6218 C.3       15 UNK         0.1400 
     86 CB         -1.5886  -27.3014  -50.0235 C.3       15 UNK        -0.1800 
     87 C          -0.3571  -25.1291  -50.6351 C.2       15 UNK         0.5000 
     88 O          -0.3634  -25.4791  -51.8158 O.2       15 UNK        -0.5000 
     89 N           0.3851  -24.1108  -50.1745 N.am      16 UNK        -0.5000 
     90 CA          1.3407  -23.3352  -50.9723 C.3       16 UNK         0.1400 
     91 CB          2.1180  -22.3834  -50.0520 C.3       16 UNK        -0.1800 
     92 C           0.7050  -22.5591  -52.1436 C.2       16 UNK         0.5000 
     93 O           1.3779  -22.3425  -53.1517 O.2       16 UNK        -0.5000 
     94 N          -0.5752  -22.1886  -52.0051 N.am      17 UNK        -0.5000 
     95 CA         -1.3931  -21.6014  -53.0699 C.3       17 UNK         0.1400 
     96 CB         -1.9153  -20.2314  -52.6082 C.3       17 UNK        -0.1800 
     97 C          -2.5591  -22.5315  -53.4538 C.2       17 UNK         0.5000 
     98 O          -3.5127  -22.0723  -54.0807 O.2       17 UNK        -0.5000 
     99 N          -2.5049  -23.8056  -53.0308 N.am      18 UNK        -0.5000 
    100 CA        -3.5449  -24.8333  -53.1818 C.3       18 UNK         0.1400 
    101 CB        -3.6576  -25.2677  -54.6576 C.3       18 UNK        -0.1800 
    102 C         -4.9083  -24.4256  -52.5753 C.2       18 UNK         0.5000 
    103 O         -5.9512  -24.8783  -53.0494 O.2       18 UNK        -0.5000 
    104 N         -4.8672  -23.5553  -51.5532 N.am      19 UNK        -0.5000 
    105 CA        -5.9996  -22.9030  -50.8870 C.3       19 UNK         0.1400 
    106 CB        -6.9025  -23.9427  -50.1880 C.3       19 UNK        -0.1800 
    107 C         -6.8069  -21.9376  -51.7866 C.2       19 UNK         0.5000 
    108 O         -7.9224  -21.5678  -51.4148 O.2       19 UNK        -0.5000 
    109 N         -6.2502  -21.5232  -52.9351 N.am      20 UNK        -0.5000 
    110 CA        -6.8473  -20.5185  -53.8156 C.3       20 UNK         0.1400 
    111 CB        -6.1925  -20.5979  -55.2032 C.3       20 UNK        -0.1800 
    112 C         -6.6810  -19.1070  -53.2270 C.2       20 UNK         0.5000 
    113 O         -5.6673  -18.8267  -52.5857 O.2       20 UNK        -0.5000 
    114 N         -7.6677  -18.2378  -53.4750 N.am      21 UNK        -0.5000 
    115 CA        -7.6735  -16.8509  -53.0017 C.3       21 UNK         0.1400 
    116 CB        -9.1241  -16.3437  -52.9726 C.3       21 UNK        -0.1800 
    117 C         -6.7935  -15.9099  -53.8488 C.2       21 UNK         0.5000 
    118 O         -6.3722  -14.8734  -53.3348 O.2       21 UNK        -0.5000 
    119 N         -6.5588  -16.2851  -55.1167 N.am      22 UNK        -0.5000 
    120 CA        -5.8437  -15.5354  -56.1671 C.3       22 UNK         0.1400 
    121 C         -6.2738  -14.0413  -56.3219 C.2       22 UNK         0.5000 
    122 N         -5.3636  -13.1141  -56.5915 N.am      22 UNK        -0.7600 
    123 O         -7.4602  -13.7241  -56.2663 O.2       22 UNK        -0.5000 
    124 C124       -4.3123  -15.8220  -56.2078 C.3       23 UNK        -0.0398 
    125 S125       -3.3565  -15.2588  -54.7560 S.3       23 UNK        -0.2404 
    126 C126       -2.8337  -16.8566  -54.0668 C.3       23 UNK        -0.0205 
    127 H127        3.2566  -20.8930  -46.1346 H         1 UNK         0.0600 
    128 H128        1.8471  -20.8359  -47.1981 H         1 UNK         0.0600 
    129 H129        3.4745  -20.9585  -47.8818 H         1 UNK         0.0600 
    130 H130        3.4507  -19.0002  -49.0901 H         1 UNK         0.3000 
    131 H131        2.4530  -16.5320  -48.2227 H         1 UNK         0.0600 
    132 H132        4.5889  -17.0739  -50.3441 H         1 UNK         0.0800 
    133 H133        3.7323  -15.5668  -50.1607 H         1 UNK         0.0800 
    134 H134        1.5740  -15.2575  -52.1200 H         1 UNK         0.0800 
    135 H135        1.3765  -15.1671  -50.3859 H         1 UNK         0.0800 
    136 H136       -0.2502  -16.1579  -53.5147 H         1 UNK         0.1150 
    137 H137       -3.9451  -17.2122  -51.6083 H         1 UNK         0.1150 
    138 H138       -0.4732  -16.3904  -49.2394 H         1 UNK         0.1150 
    139 H139       -2.5749  -16.7172  -48.1598 H         1 UNK         0.0800 
    140 H140       -4.0553  -16.6384  -49.0775 H         1 UNK         0.0800 
    141 H141       -0.9432  -18.8152  -48.5202 H         1 UNK         0.0800 
    142 H142       -1.3924  -19.7235  -49.9188 H         1 UNK         0.0800 
    143 H143       -0.4204  -21.2710  -48.4489 H         1 UNK         0.0600 
    144 H144       -1.4578  -19.7400  -46.3153 H         1 UNK         0.3000 
    145 H145       -0.6203  -22.0994  -43.7420 H         1 UNK         0.0600 
    146 H146        0.8866  -19.6034  -44.6278 H         1 UNK         0.0600 
    147 H147        1.5848  -21.1662  -44.2435 H         1 UNK         0.0600 
    148 H148        0.8337  -20.2102  -42.9744 H         1 UNK         0.0600 
    149 H149       -1.4241  -19.4633  -43.3958 H         1 UNK         0.3000 
    150 H150       -4.9802  -20.0378  -43.4328 H         1 UNK         0.0600 
    151 H151       -3.9831  -20.7729  -41.2786 H         1 UNK         0.0600 
    152 H152       -4.5498  -19.1132  -41.1733 H         1 UNK         0.0600 
    153 H153       -2.8272  -19.4476  -41.3298 H         1 UNK         0.0600 
    154 H154       -2.9481  -17.8664  -43.2546 H         1 UNK         0.3000 
    155 H155       -3.9915  -16.3994  -46.2707 H         1 UNK         0.0600 
    156 H156       -4.5715  -15.2734  -43.4799 H         1 UNK         0.0600 
    157 H157       -5.7531  -15.4473  -44.7723 H         1 UNK         0.0600 
    158 H158       -4.4073  -14.3360  -44.9655 H         1 UNK         0.0600 
    159 H159       -2.2293  -15.4042  -44.3039 H         1 UNK         0.3000 
    160 H160        0.5889  -17.4416  -44.8977 H         1 UNK         0.0600 
    161 H161        1.6668  -15.3367  -45.5774 H         1 UNK         0.0600 
    162 H162        0.0903  -14.5870  -45.8581 H         1 UNK         0.0600 
    163 H163        0.6240  -15.9264  -46.8594 H         1 UNK         0.0600 
    164 H164        0.3866  -15.0930  -43.3689 H         1 UNK         0.3000 
    165 H165       -1.2567  -16.0052  -40.6133 H         1 UNK         0.0600 
    166 H166        0.5594  -16.5821  -39.0682 H         1 UNK         0.0600 
    167 H167        0.1634  -17.9875  -40.0420 H         1 UNK         0.0600 
    168 H168        1.6090  -17.0491  -40.3991 H         1 UNK         0.0600 
    169 H169        1.3847  -14.7386  -41.1352 H         1 UNK         0.3000 
    170 H170       -0.0446  -11.5944  -41.8079 H         1 UNK         0.0600 
    171 H171       -0.1874  -11.5168  -39.3117 H         1 UNK         0.0600 
    172 H172        1.3568  -12.3513  -39.1871 H         1 UNK         0.0600 
    173 H173        1.2747  -10.7352  -39.8905 H         1 UNK         0.0600 
    174 H174        2.6504  -12.3466  -41.3006 H         1 UNK         0.3000 
    175 H175        3.4664  -12.6836  -44.6514 H         1 UNK         0.0600 
    176 H176        5.4825  -12.4278  -43.2700 H         1 UNK         0.0600 
    177 H177        4.2672  -11.2855  -42.7281 H         1 UNK         0.0600 
    178 H178        4.5867  -12.7452  -41.7922 H         1 UNK         0.0600 
    179 H179        4.1293  -14.7983  -44.6666 H         1 UNK         0.3000 
    180 H180        5.1493  -17.0272  -42.4171 H         1 UNK         0.0600 
    181 H181        2.3955  -17.7445  -43.5183 H         1 UNK         0.0600 
    182 H182        3.0100  -18.0383  -41.8994 H         1 UNK         0.0600 
    183 H183        3.6823  -18.9169  -43.2581 H         1 UNK         0.0600 
    184 H184        4.3310  -17.4006  -45.1748 H         1 UNK         0.3000 
    185 H185        6.9581  -15.6896  -46.6528 H         1 UNK         0.0600 
    186 H186        7.3640  -18.6700  -46.0529 H         1 UNK         0.0600 
    187 H187        8.0824  -17.7792  -47.3958 H         1 UNK         0.0600 
    188 H188        8.5379  -17.3964  -45.7444 H         1 UNK         0.0600 
    189 H189        5.5125  -18.0251  -47.5155 H         1 UNK         0.3000 
    190 H190       -3.2523  -21.7913  -46.6079 H         1 UNK         0.3000 
    191 H191       -4.3646  -23.7516  -48.5554 H         1 UNK         0.0600 
    192 H192       -5.9857  -22.0974  -47.6291 H         1 UNK         0.0600 
    193 H193       -5.5566  -22.5660  -45.9874 H         1 UNK         0.0600 
    194 H194       -6.3521  -23.7174  -47.0539 H         1 UNK         0.0600 
    195 H195       -3.2385  -23.3897  -45.1430 H         1 UNK         0.3000 
    196 H196       -3.6174  -26.0860  -44.4209 H         1 UNK         0.0600 
    197 H197       -2.2838  -25.4882  -42.4205 H         1 UNK         0.0600 
    198 H198       -3.4353  -24.2155  -42.7974 H         1 UNK         0.0600 
    199 H199       -1.7312  -24.0116  -43.1958 H         1 UNK         0.0600 
    200 H200       -0.6505  -24.4492  -45.6534 H         1 UNK         0.3000 
    201 H201        0.8136  -27.0308  -45.7795 H         1 UNK         0.0600 
    202 H202        1.7260  -24.2070  -46.5450 H         1 UNK         0.0600 
    203 H203        2.7276  -25.6371  -46.3682 H         1 UNK         0.0600 
    204 H204        1.9630  -24.9296  -44.9538 H         1 UNK         0.0600 
    205 H205       -1.4070  -25.3283  -47.5870 H         1 UNK         0.3000 
    206 H206       -2.2151  -25.2983  -49.6339 H         1 UNK         0.0600 
    207 H207       -2.2514  -27.7728  -49.2976 H         1 UNK         0.0600 
    208 H208       -2.0893  -27.3435  -50.9912 H         1 UNK         0.0600 
    209 H209       -0.6851  -27.9072  -50.0971 H         1 UNK         0.0600 
    210 H210        0.3192  -23.8838  -49.1936 H         1 UNK         0.3000 
    211 H211        2.0516  -24.0446  -51.4010 H         1 UNK         0.0600 
    212 H212        1.4780  -21.6028  -49.6436 H         1 UNK         0.0600 
    213 H213        2.9218  -21.8880  -50.5981 H         1 UNK         0.0600 
    214 H214        2.5744  -22.9207  -49.2203 H         1 UNK         0.0600 
    215 H215       -1.0592  -22.4102  -51.1410 H         1 UNK         0.3000 
    216 H216       -0.8033  -21.4503  -53.9758 H         1 UNK         0.0600 
    217 H217       -2.4439  -19.7241  -53.4155 H         1 UNK         0.0600 
    218 H218       -1.0992  -19.5779  -52.2996 H         1 UNK         0.0600 
    219 H219       -2.6155  -20.3255  -51.7774 H         1 UNK         0.0600 
    220 H220       -1.6565  -24.1205  -52.5726 H         1 UNK         0.3000 
    221 H221       -3.2063  -25.6971  -52.6086 H         1 UNK         0.0600 
    222 H222       -4.0533  -24.4686  -55.2852 H         1 UNK         0.0600 
    223 H223       -2.6861  -25.5586  -55.0572 H         1 UNK         0.0600 
    224 H224       -4.3205  -26.1270  -54.7649 H         1 UNK         0.0600 
    225 H225       -3.9551  -23.2451  -51.2444 H         1 UNK         0.3000 
    226 H226       -5.5583  -22.2742  -50.1129 H         1 UNK         0.0600 
    227 H227       -6.3198  -24.6510  -49.5998 H         1 UNK         0.0600 
    228 H228       -7.6031  -23.4564  -49.5084 H         1 UNK         0.0600 
    229 H229       -7.4921  -24.5135  -50.9056 H         1 UNK         0.0600 
    230 H230       -5.3140  -21.8289  -53.1789 H         1 UNK         0.3000 
    231 H231       -7.9113  -20.7398  -53.9242 H         1 UNK         0.0600 
    232 H232       -6.2353  -21.6106  -55.6048 H         1 UNK         0.0600 
    233 H233       -5.1457  -20.2929  -55.1727 H         1 UNK         0.0600 
    234 H234       -6.7009  -19.9438  -55.9122 H         1 UNK         0.0600 
    235 H235       -8.4738  -18.5397  -54.0034 H         1 UNK         0.3000 
    236 H236       -7.2886  -16.8277  -51.9796 H         1 UNK         0.0600 
    237 H237       -9.1726  -15.3214  -52.5952 H         1 UNK         0.0600 
    238 H238       -9.5724  -16.3472  -53.9669 H         1 UNK         0.0600 
    239 H239       -9.7446  -16.9589  -52.3206 H         1 UNK         0.0600 
    240 H240       -6.9801  -17.1498  -55.4199 H         1 UNK         0.3000 
    241 H241       -6.2284  -15.9768  -57.0872 H         1 UNK         0.0600 
    242 H242       -5.6584  -12.1577  -56.7138 H         1 UNK         0.3800 
    243 H243       -4.3811  -13.3383  -56.6162 H         1 UNK         0.3800 
    244 H244       -4.1616  -16.8945  -56.3362 H         1 UNK         0.0800 
    245 H245       -3.8692  -15.3757  -57.0991 H         1 UNK         0.0800 
    246 H246       -3.7017  -17.5125  -53.9811 H         1 UNK         0.0800 
    247 H247       -2.1445  -17.3439  -54.7579 H         1 UNK         0.0800 
@<TRIPOS>BOND
     1    1    2 1    
     2    1  127 1    
     3    1  128 1    
     4    1  129 1    
     5    2    3 2    
     6    2    4 am   BACKBONE|DICT|INTERRES
     7    4    5 1    
     8    4  130 1    
     9    5    6 1    
    10    5   65 1    
    11    5  131 1    
    12    6    7 1    
    13    6  132 1    
    14    6  133 1    
    15    7    8 1    
    16    8    9 1    
    17    8  134 1    
    18    8  135 1    
    19    9   10 ar   
    20    9   14 ar   
    21   10   11 ar   
    22   10  136 1    
    23   11   12 ar   
    24   11  126 1    
    25   12   13 ar   
    26   12  137 1    
    27   13   14 ar   
    28   13   15 1    
    29   14  138 1    
    30   15   16 1    
    31   15  139 1    
    32   15  140 1    
    33   16   17 1    
    34   17   18 1    
    35   17  141 1    
    36   17  142 1    
    37   18   19 1    
    38   18   67 1    
    39   18  143 1    
    40   19   20 am   BACKBONE|DICT|INTERRES
    41   19  144 1    
    42   20   21 2    
    43   20   22 1    
    44   22   23 1    
    45   22   24 1    
    46   22  145 1    
    47   23  146 1    
    48   23  147 1    
    49   23  148 1    
    50   24   25 am   BACKBONE|DICT|INTERRES
    51   24  149 1    
    52   25   26 2    
    53   25   27 1    
    54   27   28 1    
    55   27   29 1    
    56   27  150 1    
    57   28  151 1    
    58   28  152 1    
    59   28  153 1    
    60   29   30 am   BACKBONE|DICT|INTERRES
    61   29  154 1    
    62   30   31 2    
    63   30   32 1    
    64   32   33 1    
    65   32   34 1    
    66   32  155 1    
    67   33  156 1    
    68   33  157 1    
    69   33  158 1    
    70   34   35 am   BACKBONE|DICT|INTERRES
    71   34  159 1    
    72   35   36 2    
    73   35   37 1    
    74   37   38 1    
    75   37   39 1    
    76   37  160 1    
    77   38  161 1    
    78   38  162 1    
    79   38  163 1    
    80   39   40 am   BACKBONE|DICT|INTERRES
    81   39  164 1    
    82   40   41 2    
    83   40   42 1    
    84   42   43 1    
    85   42   44 1    
    86   42  165 1    
    87   43  166 1    
    88   43  167 1    
    89   43  168 1    
    90   44   45 am   BACKBONE|DICT|INTERRES
    91   44  169 1    
    92   45   46 2    
    93   45   47 1    
    94   47   48 1    
    95   47   49 1    
    96   47  170 1    
    97   48  171 1    
    98   48  172 1    
    99   48  173 1    
   100   49   50 am   BACKBONE|DICT|INTERRES
   101   49  174 1    
   102   50   51 2    
   103   50   52 1    
   104   52   53 1    
   105   52   54 1    
   106   52  175 1    
   107   53  176 1    
   108   53  177 1    
   109   53  178 1    
   110   54   55 am   BACKBONE|DICT|INTERRES
   111   54  179 1    
   112   55   56 2    
   113   55   57 1    
   114   57   58 1    
   115   57   59 1    
   116   57  180 1    
   117   58  181 1    
   118   58  182 1    
   119   58  183 1    
   120   59   60 am   BACKBONE|DICT|INTERRES
   121   59  184 1    
   122   60   61 2    
   123   60   62 1    
   124   62   63 1    
   125   62   64 1    
   126   62  185 1    
   127   63  186 1    
   128   63  187 1    
   129   63  188 1    
   130   64   65 am   BACKBONE|DICT|INTERRES
   131   64  189 1    
   132   65   66 2    
   133   67   68 2    
   134   67   69 am   BACKBONE|DICT|INTERRES
   135   69   70 1    
   136   69  190 1    
   137   70   71 1    
   138   70   72 1    
   139   70  191 1    
   140   71  192 1    
   141   71  193 1    
   142   71  194 1    
   143   72   73 2    
   144   72   74 am   BACKBONE|DICT|INTERRES
   145   74   75 1    
   146   74  195 1    
   147   75   76 1    
   148   75   77 1    
   149   75  196 1    
   150   76  197 1    
   151   76  198 1    
   152   76  199 1    
   153   77   78 2    
   154   77   79 am   BACKBONE|DICT|INTERRES
   155   79   80 1    
   156   79  200 1    
   157   80   81 1    
   158   80   82 1    
   159   80  201 1    
   160   81  202 1    
   161   81  203 1    
   162   81  204 1    
   163   82   83 2    
   164   82   84 am   BACKBONE|DICT|INTERRES
   165   84   85 1    
   166   84  205 1    
   167   85   86 1    
   168   85   87 1    
   169   85  206 1    
   170   86  207 1    
   171   86  208 1    
   172   86  209 1    
   173   87   88 2    
   174   87   89 am   BACKBONE|DICT|INTERRES
   175   89   90 1    
   176   89  210 1    
   177   90   91 1    
   178   90   92 1    
   179   90  211 1    
   180   91  212 1    
   181   91  213 1    
   182   91  214 1    
   183   92   93 2    
   184   92   94 am   BACKBONE|DICT|INTERRES
   185   94   95 1    
   186   94  215 1    
   187   95   96 1    
   188   95   97 1    
   189   95  216 1    
   190   96  217 1    
   191   96  218 1    
   192   96  219 1    
   193   97   98 2    
   194   97   99 am   BACKBONE|DICT|INTERRES
   195   99  100 1    
   196   99  220 1    
   197  100  101 1    
   198  100  102 1    
   199  100  221 1    
   200  101  222 1    
   201  101  223 1    
   202  101  224 1    
   203  102  103 2    
   204  102  104 am   BACKBONE|DICT|INTERRES
   205  104  105 1    
   206  104  225 1    
   207  105  106 1    
   208  105  107 1    
   209  105  226 1    
   210  106  227 1    
   211  106  228 1    
   212  106  229 1    
   213  107  108 2    
   214  107  109 am   BACKBONE|DICT|INTERRES
   215  109  110 1    
   216  109  230 1    
   217  110  111 1    
   218  110  112 1    
   219  110  231 1    
   220  111  232 1    
   221  111  233 1    
   222  111  234 1    
   223  112  113 2    
   224  112  114 am   BACKBONE|DICT|INTERRES
   225  114  115 1    
   226  114  235 1    
   227  115  116 1    
   228  115  117 1    
   229  115  236 1    
   230  116  237 1    
   231  116  238 1    
   232  116  239 1    
   233  117  118 2    
   234  117  119 am   BACKBONE|DICT|INTERRES
   235  119  120 1    
   236  119  240 1    
   237  120  121 1    
   238  120  124 1    
   239  120  241 1    
   240  121  122 am   BACKBONE|DICT|INTERRES
   241  121  123 2    
   242  122  242 1    
   243  122  243 1    
   244  124  125 1    
   245  124  244 1    
   246  124  245 1    
   247  125  126 1    
   248  126  246 1    
   249  126  247 1    
@<TRIPOS>SUBSTRUCTURE
     1 UNK         1 GROUP             0       ****    0 ROOT    
