@<TRIPOS>MOLECULE
3R540
247   249    1
SMALL
USER_CHARGES


@<TRIPOS>ATOM
      1 CA          1.7944  -10.1391  -48.0132 C.3       0 UNK        -0.1800 
      2 C           1.0333  -11.0723  -47.0842 C.2       0 UNK         0.5000 
      3 O           1.3613  -11.1555  -45.8991 O.2       0 UNK        -0.5000 
      4 N           0.0087  -11.7593  -47.6068 N.am      1 UNK        -0.5000 
      5 CA         -0.8357  -12.7498  -46.9200 C.3       1 UNK         0.1400 
      6 C6         -1.5683  -13.6692  -47.9316 C.3       23 UNK        -0.0398 
      7 S7         -0.4160  -14.6795  -48.9205 S.3       23 UNK        -0.2404 
      8 C8         -1.5993  -15.7847  -49.7510 C.3       23 UNK        -0.0205 
      9 C9         -0.9181  -16.6846  -50.7709 C.ar      23 UNK        -0.0193 
     10 C10        -0.3526  -16.1235  -51.9197 C.ar      23 UNK        -0.1150 
     11 C11         0.2595  -16.9303  -52.8822 C.ar      23 UNK        -0.0193 
     12 C12         0.2879  -18.3144  -52.6940 C.ar      23 UNK        -0.1150 
     13 C13        -0.2901  -18.8921  -51.5605 C.ar      23 UNK        -0.0193 
     14 C14        -0.8805  -18.0722  -50.5923 C.ar      23 UNK        -0.1150 
     15 C15        -0.2982  -20.4054  -51.4161 C.3       23 UNK        -0.0205 
     16 S16         1.3195  -21.0426  -50.8739 S.3       23 UNK        -0.2404 
     17 C17         1.1843  -20.8847  -49.0611 C.3       23 UNK        -0.0398 
     18 CA          0.9189  -22.2391  -48.3553 C.3       11 UNK         0.1400 
     19 N           1.1125  -22.1332  -46.9109 N.am      11 UNK        -0.5000 
     20 C           1.2591  -23.1700  -46.0762 C.2       10 UNK         0.5000 
     21 O           1.2954  -24.3451  -46.4406 O.2       10 UNK        -0.5000 
     22 CA          1.3774  -22.8352  -44.5765 C.3       10 UNK         0.1400 
     23 CB          2.8268  -22.4832  -44.2102 C.3       10 UNK        -0.1800 
     24 N           0.4851  -21.7501  -44.1646 N.am      10 UNK        -0.5000 
     25 C          -0.8533  -21.8229  -44.1961 C.2       9 UNK         0.5000 
     26 O          -1.4746  -22.8326  -44.5232 O.2       9 UNK        -0.5000 
     27 CA         -1.6351  -20.5474  -43.8390 C.3       9 UNK         0.1400 
     28 CB         -1.7661  -20.3975  -42.3167 C.3       9 UNK        -0.1800 
     29 N          -1.0404  -19.3371  -44.4048 N.am      9 UNK        -0.5000 
     30 C          -0.9185  -19.0873  -45.7166 C.2       8 UNK         0.5000 
     31 O          -1.3174  -19.8429  -46.6014 O.2       8 UNK        -0.5000 
     32 CA         -0.1743  -17.7997  -46.1051 C.3       8 UNK         0.1400 
     33 CB         -1.0604  -16.5726  -45.8594 C.3       8 UNK        -0.1800 
     34 N           1.0859  -17.6526  -45.3778 N.am      8 UNK        -0.5000 
     35 C           2.1066  -18.5200  -45.4396 C.2       7 UNK         0.5000 
     36 O           2.1231  -19.5088  -46.1716 O.2       7 UNK        -0.5000 
     37 CA          3.2813  -18.2712  -44.4800 C.3       7 UNK         0.1400 
     38 CB          4.2689  -17.2582  -45.0766 C.3       7 UNK        -0.1800 
     39 N           2.8205  -17.8098  -43.1696 N.am      7 UNK        -0.5000 
     40 C           2.1650  -18.5804  -42.2890 C.2       6 UNK         0.5000 
     41 O           1.9168  -19.7712  -42.4757 O.2       6 UNK        -0.5000 
     42 CA          1.6639  -17.8926  -41.0056 C.3       6 UNK         0.1400 
     43 CB          2.7911  -17.7908  -39.9674 C.3       6 UNK        -0.1800 
     44 N           1.1164  -16.5597  -41.2634 N.am      6 UNK        -0.5000 
     45 C           0.0011  -16.3263  -41.9695 C.2       5 UNK         0.5000 
     46 O          -0.7120  -17.2182  -42.4276 O.2       5 UNK        -0.5000 
     47 CA         -0.3525  -14.8528  -42.2524 C.3       5 UNK         0.1400 
     48 CB         -1.2718  -14.2982  -41.1554 C.3       5 UNK        -0.1800 
     49 N           0.8187  -13.9821  -42.3929 N.am      5 UNK        -0.5000 
     50 C           1.7648  -14.1169  -43.3330 C.2       4 UNK         0.5000 
     51 O           1.7447  -15.0084  -44.1835 O.2       4 UNK        -0.5000 
     52 CA          2.9047  -13.0818  -43.3091 C.3       4 UNK         0.1400 
     53 CB          3.8506  -13.2117  -44.5160 C.3       4 UNK        -0.1800 
     54 N           2.3430  -11.7349  -43.2984 N.am      4 UNK        -0.5000 
     55 C           2.2318  -10.9368  -42.2290 C.2       3 UNK         0.5000 
     56 O           2.6274  -11.2379  -41.1028 O.2       3 UNK        -0.5000 
     57 CA          1.5069   -9.5980  -42.4556 C.3       3 UNK         0.1400 
     58 CB          2.4322   -8.5866  -43.1499 C.3       3 UNK        -0.1800 
     59 N           0.2996   -9.7824  -43.2611 N.am      3 UNK        -0.5000 
     60 C          -0.8378  -10.3305  -42.8065 C.2       2 UNK         0.5000 
     61 O          -1.0340  -10.6256  -41.6280 O.2       2 UNK        -0.5000 
     62 CA         -1.9037  -10.6594  -43.8599 C.3       2 UNK         0.1400 
     63 CB         -2.6563   -9.3981  -44.3188 C.3       2 UNK        -0.1800 
     64 N          -1.2518  -11.3163  -44.9863 N.am      2 UNK        -0.5000 
     65 C          -1.8117  -12.1041  -45.9041 C.2       1 UNK         0.5000 
     66 O          -3.0221  -12.3263  -45.9613 O.2       1 UNK        -0.5000 
     67 C          -0.4738  -22.8073  -48.7002 C.2       11 UNK         0.5000 
     68 O          -0.5638  -23.7879  -49.4389 O.2       11 UNK        -0.5000 
     69 N          -1.5266  -22.1572  -48.1899 N.am      12 UNK        -0.5000 
     70 CA         -2.9152  -22.4510  -48.5191 C.3       12 UNK         0.1400 
     71 CB         -3.7263  -21.1399  -48.4940 C.3       12 UNK        -0.1800 
     72 C          -3.4860  -23.5343  -47.5888 C.2       12 UNK         0.5000 
     73 O          -3.4954  -24.7102  -47.9566 O.2       12 UNK        -0.5000 
     74 N          -3.9773  -23.1105  -46.4163 N.am      13 UNK        -0.5000 
     75 CA         -4.7892  -23.8898  -45.4784 C.3       13 UNK         0.1400 
     76 CB         -5.1069  -23.0248  -44.2486 C.3       13 UNK        -0.1800 
     77 C          -4.1883  -25.2397  -45.0486 C.2       13 UNK         0.5000 
     78 O          -4.9017  -26.2432  -45.0502 O.2       13 UNK        -0.5000 
     79 N          -2.8903  -25.2537  -44.7211 N.am      14 UNK        -0.5000 
     80 CA         -2.1599  -26.4451  -44.2789 C.3       14 UNK         0.1400 
     81 CB         -0.7922  -26.0237  -43.7258 C.3       14 UNK        -0.1800 
     82 C          -1.9851  -27.5074  -45.3815 C.2       14 UNK         0.5000 
     83 O          -1.8708  -28.6922  -45.0655 O.2       14 UNK        -0.5000 
     84 N          -1.9834  -27.0720  -46.6474 N.am      15 UNK        -0.5000 
     85 CA         -1.9203  -27.9341  -47.8279 C.3       15 UNK         0.1400 
     86 CB         -1.1085  -27.2088  -48.9130 C.3       15 UNK        -0.1800 
     87 C          -3.3205  -28.2978  -48.3615 C.2       15 UNK         0.5000 
     88 O          -3.4136  -29.0871  -49.3023 O.2       15 UNK        -0.5000 
     89 N          -4.3726  -27.6957  -47.7827 N.am      16 UNK        -0.5000 
     90 CA         -5.7695  -27.7065  -48.2311 C.3       16 UNK         0.1400 
     91 CB         -6.3809  -29.1180  -48.1123 C.3       16 UNK        -0.1800 
     92 C          -5.9468  -27.0794  -49.6328 C.2       16 UNK         0.5000 
     93 O          -6.8217  -27.4972  -50.3941 O.2       16 UNK        -0.5000 
     94 N          -5.1034  -26.0891  -49.9455 N.am      17 UNK        -0.5000 
     95 CA         -5.0860  -25.3432  -51.1984 C.3       17 UNK         0.1400 
     96 CB         -3.6252  -25.2292  -51.6675 C.3       17 UNK        -0.1800 
     97 C          -5.7027  -23.9497  -50.9967 C.2       17 UNK         0.5000 
     98 O          -5.8889  -23.5048  -49.8616 O.2       17 UNK        -0.5000 
     99 N          -5.9957  -23.2735  -52.1109 N.am      18 UNK        -0.5000 
    100 CA        -6.4278  -21.8785  -52.1314 C.3       18 UNK         0.1400 
    101 CB        -7.2468  -21.6387  -53.4104 C.3       18 UNK        -0.1800 
    102 C         -5.2132  -20.9354  -52.1017 C.2       18 UNK         0.5000 
    103 O         -4.1289  -21.3094  -52.5521 O.2       18 UNK        -0.5000 
    104 N         -5.4334  -19.6930  -51.6548 N.am      19 UNK        -0.5000 
    105 CA        -4.4501  -18.6058  -51.7380 C.3       19 UNK         0.1400 
    106 CB        -4.9158  -17.4418  -50.8513 C.3       19 UNK        -0.1800 
    107 C         -4.1990  -18.1266  -53.1850 C.2       19 UNK         0.5000 
    108 O         -3.1694  -17.5150  -53.4583 O.2       19 UNK        -0.5000 
    109 N         -5.1348  -18.4333  -54.0933 N.am      20 UNK        -0.5000 
    110 CA        -5.0519  -18.1557  -55.5270 C.3       20 UNK         0.1400 
    111 CB        -6.4759  -18.1848  -56.1060 C.3       20 UNK        -0.1800 
    112 C         -4.1339  -19.1285  -56.2989 C.2       20 UNK         0.5000 
    113 O         -3.9354  -18.9291  -57.4983 O.2       20 UNK        -0.5000 
    114 N         -3.5987  -20.1626  -55.6285 N.am      21 UNK        -0.5000 
    115 CA        -2.7868  -21.2364  -56.2149 C.3       21 UNK         0.1400 
    116 CB        -2.4410  -22.2626  -55.1251 C.3       21 UNK        -0.1800 
    117 C         -1.5079  -20.7757  -56.9445 C.2       21 UNK         0.5000 
    118 O         -1.0413  -21.4869  -57.8357 O.2       21 UNK        -0.5000 
    119 N         -0.9766  -19.6013  -56.5809 N.am      22 UNK        -0.5000 
    120 CA         0.1248  -18.9360  -57.2947 C.3       22 UNK         0.1400 
    121 C         -0.2786  -18.2494  -58.6360 C.2       22 UNK         0.5000 
    122 N         -1.5551  -18.1528  -58.9906 N.am      22 UNK        -0.7600 
    123 O          0.5911  -17.8094  -59.3835 O.2       22 UNK        -0.5000 
    124 C124        0.9283  -17.9888  -56.3687 C.3       23 UNK        -0.0398 
    125 S125       -0.0572  -16.6380  -55.6291 S.3       23 UNK        -0.2404 
    126 C126        0.8947  -16.2995  -54.1132 C.3       23 UNK        -0.0205 
    127 H127        1.7360   -9.1150  -47.6447 H         1 UNK         0.0600 
    128 H128        1.3946  -10.1609  -49.0272 H         1 UNK         0.0600 
    129 H129        2.8443  -10.4286  -48.0541 H         1 UNK         0.0600 
    130 H130       -0.2099  -11.6254  -48.5836 H         1 UNK         0.3000 
    131 H131       -0.1704  -13.3801  -46.3263 H         1 UNK         0.0600 
    132 H132       -2.1897  -13.0782  -48.6065 H         1 UNK         0.0800 
    133 H133       -2.2450  -14.3502  -47.4135 H         1 UNK         0.0800 
    134 H134       -2.1267  -16.3795  -49.0040 H         1 UNK         0.0800 
    135 H135       -2.3530  -15.1824  -50.2600 H         1 UNK         0.0800 
    136 H136       -0.3885  -15.0522  -52.0595 H         1 UNK         0.1150 
    137 H137        0.7508  -18.9502  -53.4337 H         1 UNK         0.1150 
    138 H138       -1.3290  -18.5152  -49.7139 H         1 UNK         0.1150 
    139 H139       -1.0864  -20.7259  -50.7339 H         1 UNK         0.0800 
    140 H140       -0.5424  -20.8529  -52.3805 H         1 UNK         0.0800 
    141 H141        0.4298  -20.1422  -48.7970 H         1 UNK         0.0800 
    142 H142        2.1329  -20.4742  -48.7129 H         1 UNK         0.0800 
    143 H143        1.6606  -22.9517  -48.7233 H         1 UNK         0.0600 
    144 H144        1.1614  -21.1935  -46.5293 H         1 UNK         0.3000 
    145 H145        1.0997  -23.7247  -44.0098 H         1 UNK         0.0600 
    146 H146        2.9325  -22.3124  -43.1388 H         1 UNK         0.0600 
    147 H147        3.5045  -23.2946  -44.4783 H         1 UNK         0.0600 
    148 H148        3.1677  -21.5869  -44.7278 H         1 UNK         0.0600 
    149 H149        0.9246  -20.9017  -43.8227 H         1 UNK         0.3000 
    150 H150       -2.6386  -20.6485  -44.2570 H         1 UNK         0.0600 
    151 H151       -2.2227  -21.2838  -41.8743 H         1 UNK         0.0600 
    152 H152       -2.3934  -19.5444  -42.0580 H         1 UNK         0.0600 
    153 H153       -0.7953  -20.2539  -41.8412 H         1 UNK         0.0600 
    154 H154       -0.7208  -18.6371  -43.7409 H         1 UNK         0.3000 
    155 H155        0.0610  -17.8465  -47.1706 H         1 UNK         0.0600 
    156 H156       -0.5093  -15.6536  -46.0464 H         1 UNK         0.0600 
    157 H157       -1.9274  -16.5859  -46.5198 H         1 UNK         0.0600 
    158 H158       -1.4350  -16.5316  -44.8380 H         1 UNK         0.0600 
    159 H159        1.1863  -16.8318  -44.7894 H         1 UNK         0.3000 
    160 H160        3.8104  -19.2161  -44.3403 H         1 UNK         0.0600 
    161 H161        3.7828  -16.3126  -45.3149 H         1 UNK         0.0600 
    162 H162        4.7017  -17.6410  -46.0015 H         1 UNK         0.0600 
    163 H163        5.0920  -17.0537  -44.3919 H         1 UNK         0.0600 
    164 H164        2.9308  -16.8267  -42.9709 H         1 UNK         0.3000 
    165 H165        0.8682  -18.5116  -40.5856 H         1 UNK         0.0600 
    166 H166        2.4253  -17.3750  -39.0283 H         1 UNK         0.0600 
    167 H167        3.2065  -18.7748  -39.7458 H         1 UNK         0.0600 
    168 H168        3.6091  -17.1604  -40.3181 H         1 UNK         0.0600 
    169 H169        1.6413  -15.7713  -40.9152 H         1 UNK         0.3000 
    170 H170       -0.8985  -14.8228  -43.1971 H         1 UNK         0.0600 
    171 H171       -2.1531  -14.9283  -41.0280 H         1 UNK         0.0600 
    172 H172       -0.7635  -14.2445  -40.1920 H         1 UNK         0.0600 
    173 H173       -1.6250  -13.2982  -41.4058 H         1 UNK         0.0600 
    174 H174        0.9022  -13.2224  -41.7320 H         1 UNK         0.3000 
    175 H175        3.4892  -13.2589  -42.4042 H         1 UNK         0.0600 
    176 H176        4.3686  -14.1703  -44.5042 H         1 UNK         0.0600 
    177 H177        3.3130  -13.1357  -45.4622 H         1 UNK         0.0600 
    178 H178        4.6140  -12.4337  -44.5030 H         1 UNK         0.0600 
    179 H179        1.9779  -11.4144  -44.1925 H         1 UNK         0.3000 
    180 H180        1.2251   -9.1925  -41.4814 H         1 UNK         0.0600 
    181 H181        2.7326   -8.9267  -44.1421 H         1 UNK         0.0600 
    182 H182        3.3409   -8.4265  -42.5682 H         1 UNK         0.0600 
    183 H183        1.9434   -7.6186  -43.2615 H         1 UNK         0.0600 
    184 H184        0.3766   -9.5482  -44.2402 H         1 UNK         0.3000 
    185 H185       -2.6154  -11.3554  -43.4106 H         1 UNK         0.0600 
    186 H186       -3.1101   -8.8850  -43.4700 H         1 UNK         0.0600 
    187 H187       -1.9925   -8.6903  -44.8163 H         1 UNK         0.0600 
    188 H188       -3.4588   -9.6473  -45.0131 H         1 UNK         0.0600 
    189 H189       -0.2423  -11.2103  -45.0449 H         1 UNK         0.3000 
    190 H190       -1.3708  -21.3687  -47.5638 H         1 UNK         0.3000 
    191 H191       -2.9718  -22.8357  -49.5389 H         1 UNK         0.0600 
    192 H192       -3.6751  -20.6343  -47.5299 H         1 UNK         0.0600 
    193 H193       -4.7783  -21.3248  -48.7127 H         1 UNK         0.0600 
    194 H194       -3.3599  -20.4438  -49.2484 H         1 UNK         0.0600 
    195 H195       -3.8713  -22.1325  -46.1955 H         1 UNK         0.3000 
    196 H196       -5.7303  -24.1072  -45.9876 H         1 UNK         0.0600 
    197 H197       -5.7395  -23.5653  -43.5433 H         1 UNK         0.0600 
    198 H198       -5.6398  -22.1165  -44.5303 H         1 UNK         0.0600 
    199 H199       -4.2005  -22.7319  -43.7175 H         1 UNK         0.0600 
    200 H200       -2.3719  -24.3756  -44.7412 H         1 UNK         0.3000 
    201 H201       -2.7286  -26.9025  -43.4667 H         1 UNK         0.0600 
    202 H202       -0.8926  -25.2719  -42.9427 H         1 UNK         0.0600 
    203 H203       -0.1624  -25.6116  -44.5132 H         1 UNK         0.0600 
    204 H204       -0.2643  -26.8760  -43.2965 H         1 UNK         0.0600 
    205 H205       -2.1228  -26.0843  -46.8244 H         1 UNK         0.3000 
    206 H206       -1.4056  -28.8653  -47.5830 H         1 UNK         0.0600 
    207 H207       -0.1209  -26.9257  -48.5480 H         1 UNK         0.0600 
    208 H208       -0.9632  -27.8454  -49.7865 H         1 UNK         0.0600 
    209 H209       -1.6122  -26.3023  -49.2502 H         1 UNK         0.0600 
    210 H210       -4.1806  -27.0736  -47.0078 H         1 UNK         0.3000 
    211 H211       -6.3097  -27.0562  -47.5417 H         1 UNK         0.0600 
    212 H212       -5.9425  -29.8132  -48.8286 H         1 UNK         0.0600 
    213 H213       -7.4553  -29.0943  -48.2974 H         1 UNK         0.0600 
    214 H214       -6.2340  -29.5276  -47.1130 H         1 UNK         0.0600 
    215 H215       -4.4776  -25.7401  -49.2235 H         1 UNK         0.3000 
    216 H216       -5.6610  -25.8669  -51.9647 H         1 UNK         0.0600 
    217 H217       -3.0003  -24.7278  -50.9282 H         1 UNK         0.0600 
    218 H218       -3.5470  -24.6664  -52.5986 H         1 UNK         0.0600 
    219 H219       -3.1949  -26.2146  -51.8473 H         1 UNK         0.0600 
    220 H220       -5.7714  -23.6825  -53.0061 H         1 UNK         0.3000 
    221 H221       -7.0605  -21.6743  -51.2649 H         1 UNK         0.0600 
    222 H222       -8.1015  -22.3135  -53.4621 H         1 UNK         0.0600 
    223 H223       -6.6471  -21.7892  -54.3094 H         1 UNK         0.0600 
    224 H224       -7.6387  -20.6215  -53.4431 H         1 UNK         0.0600 
    225 H225       -6.3461  -19.4488  -51.2974 H         1 UNK         0.3000 
    226 H226       -3.4985  -18.9732  -51.3497 H         1 UNK         0.0600 
    227 H227       -4.9803  -17.7446  -49.8060 H         1 UNK         0.0600 
    228 H228       -4.2173  -16.6069  -50.9051 H         1 UNK         0.0600 
    229 H229       -5.8938  -17.0687  -51.1570 H         1 UNK         0.0600 
    230 H230       -5.9565  -18.9264  -53.7796 H         1 UNK         0.3000 
    231 H231       -4.6468  -17.1511  -55.6655 H         1 UNK         0.0600 
    232 H232       -6.9321  -19.1702  -56.0026 H         1 UNK         0.0600 
    233 H233       -6.4743  -17.9338  -57.1675 H         1 UNK         0.0600 
    234 H234       -7.1204  -17.4615  -55.6059 H         1 UNK         0.0600 
    235 H235       -3.7993  -20.2509  -54.6412 H         1 UNK         0.3000 
    236 H236       -3.4092  -21.7357  -56.9600 H         1 UNK         0.0600 
    237 H237       -3.3413  -22.7223  -54.7174 H         1 UNK         0.0600 
    238 H238       -1.8219  -23.0679  -55.5225 H         1 UNK         0.0600 
    239 H239       -1.8945  -21.8034  -54.3008 H         1 UNK         0.0600 
    240 H240       -1.4250  -19.0639  -55.8525 H         1 UNK         0.3000 
    241 H241        0.8249  -19.7191  -57.5922 H         1 UNK         0.0600 
    242 H242       -1.7896  -17.7118  -59.8655 H         1 UNK         0.3800 
    243 H243       -2.3006  -18.5024  -58.3952 H         1 UNK         0.3800 
    244 H244        1.7673  -17.5460  -56.9083 H         1 UNK         0.0800 
    245 H245        1.3800  -18.5804  -55.5732 H         1 UNK         0.0800 
    246 H246        1.9224  -16.6499  -54.2181 H         1 UNK         0.0800 
    247 H247        0.9614  -15.2176  -53.9889 H         1 UNK         0.0800 
@<TRIPOS>BOND
     1    1    2 1    
     2    1  127 1    
     3    1  128 1    
     4    1  129 1    
     5    2    3 2    
     6    2    4 am   BACKBONE|DICT|INTERRES
     7    4    5 1    
     8    4  130 1    
     9    5    6 1    
    10    5   65 1    
    11    5  131 1    
    12    6    7 1    
    13    6  132 1    
    14    6  133 1    
    15    7    8 1    
    16    8    9 1    
    17    8  134 1    
    18    8  135 1    
    19    9   10 ar   
    20    9   14 ar   
    21   10   11 ar   
    22   10  136 1    
    23   11   12 ar   
    24   11  126 1    
    25   12   13 ar   
    26   12  137 1    
    27   13   14 ar   
    28   13   15 1    
    29   14  138 1    
    30   15   16 1    
    31   15  139 1    
    32   15  140 1    
    33   16   17 1    
    34   17   18 1    
    35   17  141 1    
    36   17  142 1    
    37   18   19 1    
    38   18   67 1    
    39   18  143 1    
    40   19   20 am   BACKBONE|DICT|INTERRES
    41   19  144 1    
    42   20   21 2    
    43   20   22 1    
    44   22   23 1    
    45   22   24 1    
    46   22  145 1    
    47   23  146 1    
    48   23  147 1    
    49   23  148 1    
    50   24   25 am   BACKBONE|DICT|INTERRES
    51   24  149 1    
    52   25   26 2    
    53   25   27 1    
    54   27   28 1    
    55   27   29 1    
    56   27  150 1    
    57   28  151 1    
    58   28  152 1    
    59   28  153 1    
    60   29   30 am   BACKBONE|DICT|INTERRES
    61   29  154 1    
    62   30   31 2    
    63   30   32 1    
    64   32   33 1    
    65   32   34 1    
    66   32  155 1    
    67   33  156 1    
    68   33  157 1    
    69   33  158 1    
    70   34   35 am   BACKBONE|DICT|INTERRES
    71   34  159 1    
    72   35   36 2    
    73   35   37 1    
    74   37   38 1    
    75   37   39 1    
    76   37  160 1    
    77   38  161 1    
    78   38  162 1    
    79   38  163 1    
    80   39   40 am   BACKBONE|DICT|INTERRES
    81   39  164 1    
    82   40   41 2    
    83   40   42 1    
    84   42   43 1    
    85   42   44 1    
    86   42  165 1    
    87   43  166 1    
    88   43  167 1    
    89   43  168 1    
    90   44   45 am   BACKBONE|DICT|INTERRES
    91   44  169 1    
    92   45   46 2    
    93   45   47 1    
    94   47   48 1    
    95   47   49 1    
    96   47  170 1    
    97   48  171 1    
    98   48  172 1    
    99   48  173 1    
   100   49   50 am   BACKBONE|DICT|INTERRES
   101   49  174 1    
   102   50   51 2    
   103   50   52 1    
   104   52   53 1    
   105   52   54 1    
   106   52  175 1    
   107   53  176 1    
   108   53  177 1    
   109   53  178 1    
   110   54   55 am   BACKBONE|DICT|INTERRES
   111   54  179 1    
   112   55   56 2    
   113   55   57 1    
   114   57   58 1    
   115   57   59 1    
   116   57  180 1    
   117   58  181 1    
   118   58  182 1    
   119   58  183 1    
   120   59   60 am   BACKBONE|DICT|INTERRES
   121   59  184 1    
   122   60   61 2    
   123   60   62 1    
   124   62   63 1    
   125   62   64 1    
   126   62  185 1    
   127   63  186 1    
   128   63  187 1    
   129   63  188 1    
   130   64   65 am   BACKBONE|DICT|INTERRES
   131   64  189 1    
   132   65   66 2    
   133   67   68 2    
   134   67   69 am   BACKBONE|DICT|INTERRES
   135   69   70 1    
   136   69  190 1    
   137   70   71 1    
   138   70   72 1    
   139   70  191 1    
   140   71  192 1    
   141   71  193 1    
   142   71  194 1    
   143   72   73 2    
   144   72   74 am   BACKBONE|DICT|INTERRES
   145   74   75 1    
   146   74  195 1    
   147   75   76 1    
   148   75   77 1    
   149   75  196 1    
   150   76  197 1    
   151   76  198 1    
   152   76  199 1    
   153   77   78 2    
   154   77   79 am   BACKBONE|DICT|INTERRES
   155   79   80 1    
   156   79  200 1    
   157   80   81 1    
   158   80   82 1    
   159   80  201 1    
   160   81  202 1    
   161   81  203 1    
   162   81  204 1    
   163   82   83 2    
   164   82   84 am   BACKBONE|DICT|INTERRES
   165   84   85 1    
   166   84  205 1    
   167   85   86 1    
   168   85   87 1    
   169   85  206 1    
   170   86  207 1    
   171   86  208 1    
   172   86  209 1    
   173   87   88 2    
   174   87   89 am   BACKBONE|DICT|INTERRES
   175   89   90 1    
   176   89  210 1    
   177   90   91 1    
   178   90   92 1    
   179   90  211 1    
   180   91  212 1    
   181   91  213 1    
   182   91  214 1    
   183   92   93 2    
   184   92   94 am   BACKBONE|DICT|INTERRES
   185   94   95 1    
   186   94  215 1    
   187   95   96 1    
   188   95   97 1    
   189   95  216 1    
   190   96  217 1    
   191   96  218 1    
   192   96  219 1    
   193   97   98 2    
   194   97   99 am   BACKBONE|DICT|INTERRES
   195   99  100 1    
   196   99  220 1    
   197  100  101 1    
   198  100  102 1    
   199  100  221 1    
   200  101  222 1    
   201  101  223 1    
   202  101  224 1    
   203  102  103 2    
   204  102  104 am   BACKBONE|DICT|INTERRES
   205  104  105 1    
   206  104  225 1    
   207  105  106 1    
   208  105  107 1    
   209  105  226 1    
   210  106  227 1    
   211  106  228 1    
   212  106  229 1    
   213  107  108 2    
   214  107  109 am   BACKBONE|DICT|INTERRES
   215  109  110 1    
   216  109  230 1    
   217  110  111 1    
   218  110  112 1    
   219  110  231 1    
   220  111  232 1    
   221  111  233 1    
   222  111  234 1    
   223  112  113 2    
   224  112  114 am   BACKBONE|DICT|INTERRES
   225  114  115 1    
   226  114  235 1    
   227  115  116 1    
   228  115  117 1    
   229  115  236 1    
   230  116  237 1    
   231  116  238 1    
   232  116  239 1    
   233  117  118 2    
   234  117  119 am   BACKBONE|DICT|INTERRES
   235  119  120 1    
   236  119  240 1    
   237  120  121 1    
   238  120  124 1    
   239  120  241 1    
   240  121  122 am   BACKBONE|DICT|INTERRES
   241  121  123 2    
   242  122  242 1    
   243  122  243 1    
   244  124  125 1    
   245  124  244 1    
   246  124  245 1    
   247  125  126 1    
   248  126  246 1    
   249  126  247 1    
@<TRIPOS>SUBSTRUCTURE
     1 UNK         1 GROUP             0       ****    0 ROOT    
