@<TRIPOS>MOLECULE
3R540
247   249    1
SMALL
USER_CHARGES


@<TRIPOS>ATOM
      1 CA         -2.8289  -11.2730  -42.0691 C.3       0 UNK        -0.1800 
      2 C          -1.5874  -11.3704  -42.9436 C.2       0 UNK         0.5000 
      3 O          -0.5430  -10.8235  -42.5885 O.2       0 UNK        -0.5000 
      4 N          -1.6929  -12.0745  -44.0796 N.am      1 UNK        -0.5000 
      5 CA         -0.6255  -12.2578  -45.0759 C.3       1 UNK         0.1400 
      6 C6         -1.1085  -13.0264  -46.3291 C.3       23 UNK        -0.0398 
      7 S7         -2.6339  -12.3451  -47.0654 S.3       23 UNK        -0.2404 
      8 C8         -2.7839  -13.3268  -48.6001 C.3       23 UNK        -0.0205 
      9 C9         -2.6025  -14.8293  -48.3979 C.ar      23 UNK        -0.0193 
     10 C10        -1.7542  -15.5448  -49.2489 C.ar      23 UNK        -0.1150 
     11 C11        -1.5391  -16.9128  -49.0578 C.ar      23 UNK        -0.0193 
     12 C12        -2.1816  -17.5666  -48.0031 C.ar      23 UNK        -0.1150 
     13 C13        -3.0422  -16.8675  -47.1520 C.ar      23 UNK        -0.0193 
     14 C14        -3.2624  -15.5043  -47.3644 C.ar      23 UNK        -0.1150 
     15 C15        -3.7255  -17.5915  -46.0042 C.3       23 UNK        -0.0205 
     16 S16        -2.5166  -18.0842  -44.7331 S.3       23 UNK        -0.2404 
     17 C17        -3.2855  -19.6048  -44.0788 C.3       23 UNK        -0.0398 
     18 CA         -3.1578  -20.8120  -45.0419 C.3       11 UNK         0.1400 
     19 N          -1.7893  -21.0265  -45.5205 N.am      11 UNK        -0.5000 
     20 C          -1.4519  -21.8364  -46.5321 C.2       10 UNK         0.5000 
     21 O          -2.2629  -22.5034  -47.1728 O.2       10 UNK        -0.5000 
     22 CA          0.0456  -21.9533  -46.8498 C.3       10 UNK         0.1400 
     23 CB          0.5073  -20.7750  -47.7209 C.3       10 UNK        -0.1800 
     24 N           0.8409  -22.0236  -45.6230 N.am      10 UNK        -0.5000 
     25 C           0.8664  -23.0990  -44.8189 C.2       9 UNK         0.5000 
     26 O           0.2836  -24.1520  -45.0745 O.2       9 UNK        -0.5000 
     27 CA          1.6343  -22.9740  -43.4886 C.3       9 UNK         0.1400 
     28 CB          3.1017  -23.3871  -43.6747 C.3       9 UNK        -0.1800 
     29 N           1.5850  -21.6302  -42.9135 N.am      9 UNK        -0.5000 
     30 C           0.4707  -20.9938  -42.5256 C.2       8 UNK         0.5000 
     31 O          -0.6498  -21.5011  -42.5520 O.2       8 UNK        -0.5000 
     32 CA          0.6260  -19.5259  -42.0834 C.3       8 UNK         0.1400 
     33 CB          0.6933  -19.4308  -40.5523 C.3       8 UNK        -0.1800 
     34 N           1.7937  -18.8514  -42.6630 N.am      8 UNK        -0.5000 
     35 C           1.9826  -18.6490  -43.9732 C.2       7 UNK         0.5000 
     36 O           1.2133  -19.0553  -44.8488 O.2       7 UNK        -0.5000 
     37 CA          3.2670  -17.9165  -44.3754 C.3       7 UNK         0.1400 
     38 CB          4.4181  -18.9134  -44.5838 C.3       7 UNK        -0.1800 
     39 N           3.0036  -17.2118  -45.6230 N.am      7 UNK        -0.5000 
     40 C           3.3838  -15.9635  -45.9055 C.2       6 UNK         0.5000 
     41 O           4.1122  -15.2912  -45.1714 O.2       6 UNK        -0.5000 
     42 CA          2.8402  -15.3629  -47.2135 C.3       6 UNK         0.1400 
     43 CB          1.3649  -15.7272  -47.4684 C.3       6 UNK        -0.1800 
     44 N           2.9689  -13.9134  -47.1565 N.am      6 UNK        -0.5000 
     45 C           3.2790  -13.1021  -48.1690 C.2       5 UNK         0.5000 
     46 O           3.4543  -13.4823  -49.3275 O.2       5 UNK        -0.5000 
     47 CA          3.4204  -11.6059  -47.8269 C.3       5 UNK         0.1400 
     48 CB          2.0928  -10.8713  -48.0710 C.3       5 UNK        -0.1800 
     49 N           3.8621  -11.3473  -46.4511 N.am      5 UNK        -0.5000 
     50 C           5.0854  -11.6249  -45.9797 C.2       4 UNK         0.5000 
     51 O           5.9635  -12.1759  -46.6449 O.2       4 UNK        -0.5000 
     52 CA          5.4056  -11.1689  -44.5481 C.3       4 UNK         0.1400 
     53 CB          5.7684   -9.6681  -44.5570 C.3       4 UNK        -0.1800 
     54 N           4.3252  -11.4434  -43.5916 N.am      4 UNK        -0.5000 
     55 C           4.4830  -11.3646  -42.2591 C.2       3 UNK         0.5000 
     56 O           5.5555  -11.0891  -41.7183 O.2       3 UNK        -0.5000 
     57 CA          3.2582  -11.6207  -41.3574 C.3       3 UNK         0.1400 
     58 CB          2.5451  -10.2977  -41.0394 C.3       3 UNK        -0.1800 
     59 N           2.2904  -12.5542  -41.9236 N.am      3 UNK        -0.5000 
     60 C           2.5008  -13.8648  -42.1060 C.2       2 UNK         0.5000 
     61 O           3.5187  -14.4480  -41.7322 O.2       2 UNK        -0.5000 
     62 CA          1.3933  -14.6686  -42.8214 C.3       2 UNK         0.1400 
     63 CB          0.6733  -15.5979  -41.8321 C.3       2 UNK        -0.1800 
     64 N           0.3870  -13.8665  -43.5223 N.am      2 UNK        -0.5000 
     65 C           0.6121  -12.9709  -44.4947 C.2       1 UNK         0.5000 
     66 O           1.7338  -12.6774  -44.9067 O.2       1 UNK        -0.5000 
     67 C          -3.7504  -22.0916  -44.4206 C.2       11 UNK         0.5000 
     68 O          -4.8934  -22.4381  -44.7206 O.2       11 UNK        -0.5000 
     69 N          -2.9381  -22.8097  -43.6316 N.am      12 UNK        -0.5000 
     70 CA         -3.2544  -24.1220  -43.0601 C.3       12 UNK         0.1400 
     71 CB         -2.1327  -24.5307  -42.0939 C.3       12 UNK        -0.1800 
     72 C          -3.4733  -25.2157  -44.1256 C.2       12 UNK         0.5000 
     73 O          -4.2518  -26.1411  -43.8961 O.2       12 UNK        -0.5000 
     74 N          -2.8175  -25.0649  -45.2834 N.am      13 UNK        -0.5000 
     75 CA         -2.9685  -25.9053  -46.4708 C.3       13 UNK         0.1400 
     76 CB         -1.6103  -25.9875  -47.1890 C.3       13 UNK        -0.1800 
     77 C          -4.0868  -25.4116  -47.4159 C.2       13 UNK         0.5000 
     78 O          -4.1106  -25.8198  -48.5773 O.2       13 UNK        -0.5000 
     79 N          -4.9836  -24.5415  -46.9239 N.am      14 UNK        -0.5000 
     80 CA         -6.1342  -23.9591  -47.6230 C.3       14 UNK         0.1400 
     81 CB         -7.1772  -25.0450  -47.9621 C.3       14 UNK        -0.1800 
     82 C          -5.7065  -23.1287  -48.8476 C.2       14 UNK         0.5000 
     83 O          -6.1470  -23.4002  -49.9654 O.2       14 UNK        -0.5000 
     84 N          -4.8132  -22.1602  -48.5981 N.am      15 UNK        -0.5000 
     85 CA         -4.1438  -21.2879  -49.5714 C.3       15 UNK         0.1400 
     86 CB         -5.1543  -20.3677  -50.2873 C.3       15 UNK        -0.1800 
     87 C          -3.2532  -22.0854  -50.5452 C.2       15 UNK         0.5000 
     88 O          -3.2171  -21.7829  -51.7380 O.2       15 UNK        -0.5000 
     89 N          -2.5623  -23.0996  -50.0020 N.am      16 UNK        -0.5000 
     90 CA         -1.7413  -24.0950  -50.6993 C.3       16 UNK         0.1400 
     91 CB         -0.4531  -23.4457  -51.2422 C.3       16 UNK        -0.1800 
     92 C          -2.5411  -24.8526  -51.7809 C.2       16 UNK         0.5000 
     93 O          -2.0760  -24.9819  -52.9136 O.2       16 UNK        -0.5000 
     94 N          -3.7375  -25.3182  -51.3911 N.am      17 UNK        -0.5000 
     95 CA         -4.7973  -25.8985  -52.2161 C.3       17 UNK         0.1400 
     96 CB         -4.3443  -27.2173  -52.8758 C.3       17 UNK        -0.1800 
     97 C          -5.3336  -24.8749  -53.2351 C.2       17 UNK         0.5000 
     98 O          -4.8766  -24.8429  -54.3777 O.2       17 UNK        -0.5000 
     99 N          -6.2994  -24.0600  -52.7866 N.am      18 UNK        -0.5000 
    100 CA        -6.9233  -22.9135  -53.4637 C.3       18 UNK         0.1400 
    101 CB        -8.1268  -22.4465  -52.6291 C.3       18 UNK        -0.1800 
    102 C         -7.3533  -23.0878  -54.9385 C.2       18 UNK         0.5000 
    103 O         -7.4851  -22.0847  -55.6404 O.2       18 UNK        -0.5000 
    104 N         -7.5428  -24.3309  -55.4023 N.am      19 UNK        -0.5000 
    105 CA        -7.7482  -24.6781  -56.8131 C.3       19 UNK         0.1400 
    106 CB        -8.0585  -26.1791  -56.9154 C.3       19 UNK        -0.1800 
    107 C         -6.5512  -24.3108  -57.7208 C.2       19 UNK         0.5000 
    108 O         -6.7480  -24.0549  -58.9093 O.2       19 UNK        -0.5000 
    109 N         -5.3461  -24.2658  -57.1417 N.am      20 UNK        -0.5000 
    110 CA        -4.1079  -23.7952  -57.7529 C.3       20 UNK         0.1400 
    111 CB        -3.3165  -24.9960  -58.3040 C.3       20 UNK        -0.1800 
    112 C         -3.3477  -22.9934  -56.6823 C.2       20 UNK         0.5000 
    113 O         -2.2531  -23.3840  -56.2738 O.2       20 UNK        -0.5000 
    114 N         -4.0024  -21.9257  -56.2021 N.am      21 UNK        -0.5000 
    115 CA        -3.6379  -21.1358  -55.0241 C.3       21 UNK         0.1400 
    116 CB        -4.6509  -19.9878  -54.8668 C.3       21 UNK        -0.1800 
    117 C         -2.2127  -20.5488  -55.0253 C.2       21 UNK         0.5000 
    118 O         -1.6509  -20.2703  -56.0884 O.2       21 UNK        -0.5000 
    119 N         -1.6967  -20.3126  -53.8137 N.am      22 UNK        -0.5000 
    120 CA        -0.4617  -19.5671  -53.5246 C.3       22 UNK         0.1400 
    121 C         -0.4333  -18.1164  -54.0949 C.2       22 UNK         0.5000 
    122 N          0.7490  -17.5806  -54.3694 N.am      22 UNK        -0.7600 
    123 O         -1.4593  -17.4596  -54.2608 O.2       22 UNK        -0.5000 
    124 C124       -0.1395  -19.5826  -52.0053 C.3       23 UNK        -0.0398 
    125 S125       -1.4803  -18.9206  -50.9521 S.3       23 UNK        -0.2404 
    126 C126       -0.5924  -17.6777  -49.9706 C.3       23 UNK        -0.0205 
    127 H127       -3.1125  -10.2290  -41.9365 H         1 UNK         0.0600 
    128 H128       -2.6296  -11.7010  -41.0866 H         1 UNK         0.0600 
    129 H129       -3.6756  -11.8029  -42.5064 H         1 UNK         0.0600 
    130 H130       -2.5846  -12.4805  -44.3264 H         1 UNK         0.3000 
    131 H131       -0.3067  -11.2620  -45.3901 H         1 UNK         0.0600 
    132 H132       -0.3317  -13.0341  -47.0961 H         1 UNK         0.0800 
    133 H133       -1.2950  -14.0701  -46.0717 H         1 UNK         0.0800 
    134 H134       -3.7659  -13.1473  -49.0390 H         1 UNK         0.0800 
    135 H135       -2.0530  -12.9482  -49.3164 H         1 UNK         0.0800 
    136 H136       -1.2470  -15.0329  -50.0546 H         1 UNK         0.1150 
    137 H137       -2.0076  -18.6211  -47.8408 H         1 UNK         0.1150 
    138 H138       -3.9254  -14.9593  -46.7073 H         1 UNK         0.1150 
    139 H139       -4.4893  -16.9638  -45.5429 H         1 UNK         0.0800 
    140 H140       -4.2464  -18.4588  -46.4078 H         1 UNK         0.0800 
    141 H141       -4.3343  -19.3999  -43.8565 H         1 UNK         0.0800 
    142 H142       -2.8093  -19.8271  -43.1224 H         1 UNK         0.0800 
    143 H143       -3.7632  -20.5977  -45.9236 H         1 UNK         0.0600 
    144 H144       -1.0616  -20.5091  -45.0472 H         1 UNK         0.3000 
    145 H145        0.1997  -22.8732  -47.4181 H         1 UNK         0.0600 
    146 H146        0.3363  -19.8150  -47.2329 H         1 UNK         0.0600 
    147 H147        1.5692  -20.8485  -47.9554 H         1 UNK         0.0600 
    148 H148       -0.0348  -20.7594  -48.6675 H         1 UNK         0.0600 
    149 H149        1.2919  -21.1676  -45.3238 H         1 UNK         0.3000 
    150 H150        1.1724  -23.6589  -42.7748 H         1 UNK         0.0600 
    151 H151        3.1743  -24.3957  -44.0841 H         1 UNK         0.0600 
    152 H152        3.6362  -23.3846  -42.7246 H         1 UNK         0.0600 
    153 H153        3.6255  -22.7168  -44.3575 H         1 UNK         0.0600 
    154 H154        2.4605  -21.1332  -42.8505 H         1 UNK         0.3000 
    155 H155       -0.2655  -18.9923  -42.4201 H         1 UNK         0.0600 
    156 H156       -0.1718  -19.9111  -40.0929 H         1 UNK         0.0600 
    157 H157        0.6991  -18.3930  -40.2195 H         1 UNK         0.0600 
    158 H158        1.5864  -19.9167  -40.1576 H         1 UNK         0.0600 
    159 H159        2.4851  -18.5149  -42.0082 H         1 UNK         0.3000 
    160 H160        3.5309  -17.2124  -43.5830 H         1 UNK         0.0600 
    161 H161        5.3311  -18.3998  -44.8854 H         1 UNK         0.0600 
    162 H162        4.1796  -19.6497  -45.3527 H         1 UNK         0.0600 
    163 H163        4.6398  -19.4561  -43.6642 H         1 UNK         0.0600 
    164 H164        2.3443  -17.6832  -46.2289 H         1 UNK         0.3000 
    165 H165        3.4538  -15.7550  -48.0269 H         1 UNK         0.0600 
    166 H166        0.7312  -15.4583  -46.6229 H         1 UNK         0.0600 
    167 H167        0.9820  -15.2125  -48.3494 H         1 UNK         0.0600 
    168 H168        1.2412  -16.7955  -47.6447 H         1 UNK         0.0600 
    169 H169        2.8559  -13.5052  -46.2323 H         1 UNK         0.3000 
    170 H170        4.1679  -11.1874  -48.5041 H         1 UNK         0.0600 
    171 H171        1.3134  -11.2126  -47.3900 H         1 UNK         0.0600 
    172 H172        2.2071   -9.7955  -47.9375 H         1 UNK         0.0600 
    173 H173        1.7349  -11.0355  -49.0883 H         1 UNK         0.0600 
    174 H174        3.1873  -10.9094  -45.8417 H         1 UNK         0.3000 
    175 H175        6.2852  -11.7336  -44.2311 H         1 UNK         0.0600 
    176 H176        4.8966   -9.0471  -44.7656 H         1 UNK         0.0600 
    177 H177        6.1874   -9.3452  -43.6045 H         1 UNK         0.0600 
    178 H178        6.5167   -9.4495  -45.3202 H         1 UNK         0.0600 
    179 H179        3.4405  -11.7649  -43.9691 H         1 UNK         0.3000 
    180 H180        3.6228  -12.0433  -40.4187 H         1 UNK         0.0600 
    181 H181        2.1404   -9.8336  -41.9399 H         1 UNK         0.0600 
    182 H182        3.2302   -9.5837  -40.5804 H         1 UNK         0.0600 
    183 H183        1.7203  -10.4508  -40.3430 H         1 UNK         0.0600 
    184 H184        1.4207  -12.1558  -42.2533 H         1 UNK         0.3000 
    185 H185        1.8853  -15.2901  -43.5673 H         1 UNK         0.0600 
    186 H186       -0.0166  -16.2665  -42.3481 H         1 UNK         0.0600 
    187 H187        1.3850  -16.2226  -41.2915 H         1 UNK         0.0600 
    188 H188        0.1060  -15.0330  -41.0915 H         1 UNK         0.0600 
    189 H189       -0.5700  -14.0082  -43.2337 H         1 UNK         0.3000 
    190 H190       -2.0283  -22.4212  -43.3919 H         1 UNK         0.3000 
    191 H191       -4.1809  -24.0240  -42.4910 H         1 UNK         0.0600 
    192 H192       -1.1774  -24.6322  -42.6099 H         1 UNK         0.0600 
    193 H193       -2.0074  -23.7942  -41.2999 H         1 UNK         0.0600 
    194 H194       -2.3539  -25.4875  -41.6192 H         1 UNK         0.0600 
    195 H195       -2.1903  -24.2774  -45.3791 H         1 UNK         0.3000 
    196 H196       -3.2418  -26.9165  -46.1634 H         1 UNK         0.0600 
    197 H197       -0.8412  -26.3845  -46.5262 H         1 UNK         0.0600 
    198 H198       -1.2769  -25.0085  -47.5321 H         1 UNK         0.0600 
    199 H199       -1.6571  -26.6464  -48.0567 H         1 UNK         0.0600 
    200 H200       -4.8508  -24.2132  -45.9753 H         1 UNK         0.3000 
    201 H201       -6.6013  -23.2628  -46.9249 H         1 UNK         0.0600 
    202 H202       -8.0755  -24.6000  -48.3914 H         1 UNK         0.0600 
    203 H203       -7.4806  -25.5914  -47.0692 H         1 UNK         0.0600 
    204 H204       -6.7960  -25.7680  -48.6839 H         1 UNK         0.0600 
    205 H205       -4.4415  -22.1090  -47.6591 H         1 UNK         0.3000 
    206 H206       -3.4700  -20.6492  -48.9984 H         1 UNK         0.0600 
    207 H207       -5.7749  -19.8294  -49.5714 H         1 UNK         0.0600 
    208 H208       -5.8120  -20.9267  -50.9525 H         1 UNK         0.0600 
    209 H209       -4.6378  -19.6226  -50.8936 H         1 UNK         0.0600 
    210 H210       -2.6363  -23.2121  -48.9962 H         1 UNK         0.3000 
    211 H211       -1.4503  -24.8357  -49.9545 H         1 UNK         0.0600 
    212 H212        0.0650  -22.8820  -50.4664 H         1 UNK         0.0600 
    213 H213        0.2378  -24.2042  -51.6114 H         1 UNK         0.0600 
    214 H214       -0.6658  -22.7703  -52.0710 H         1 UNK         0.0600 
    215 H215       -3.9832  -25.2030  -50.4112 H         1 UNK         0.3000 
    216 H216       -5.6131  -26.1425  -51.5335 H         1 UNK         0.0600 
    217 H217       -5.1700  -27.6809  -53.4167 H         1 UNK         0.0600 
    218 H218       -3.5350  -27.0666  -53.5905 H         1 UNK         0.0600 
    219 H219       -4.0016  -27.9327  -52.1283 H         1 UNK         0.0600 
    220 H220       -6.5085  -24.1122  -51.7938 H         1 UNK         0.3000 
    221 H221       -6.1772  -22.1193  -53.4449 H         1 UNK         0.0600 
    222 H222       -8.8797  -23.2305  -52.5416 H         1 UNK         0.0600 
    223 H223       -7.8274  -22.1566  -51.6226 H         1 UNK         0.0600 
    224 H224       -8.6076  -21.5774  -53.0805 H         1 UNK         0.0600 
    225 H225       -7.4000  -25.0994  -54.7641 H         1 UNK         0.3000 
    226 H226       -8.6162  -24.1216  -57.1722 H         1 UNK         0.0600 
    227 H227       -8.9489  -26.4387  -56.3423 H         1 UNK         0.0600 
    228 H228       -8.2430  -26.4703  -57.9503 H         1 UNK         0.0600 
    229 H229       -7.2308  -26.7860  -56.5458 H         1 UNK         0.0600 
    230 H230       -5.2723  -24.4828  -56.1477 H         1 UNK         0.3000 
    231 H231       -4.3271  -23.1122  -58.5762 H         1 UNK         0.0600 
    232 H232       -2.3770  -24.6716  -58.7527 H         1 UNK         0.0600 
    233 H233       -3.8826  -25.5192  -59.0747 H         1 UNK         0.0600 
    234 H234       -3.0787  -25.7139  -57.5180 H         1 UNK         0.0600 
    235 H235       -4.8972  -21.7032  -56.6137 H         1 UNK         0.3000 
    236 H236       -3.7338  -21.8123  -54.1753 H         1 UNK         0.0600 
    237 H237       -5.6777  -20.3455  -54.8406 H         1 UNK         0.0600 
    238 H238       -4.4785  -19.4406  -53.9388 H         1 UNK         0.0600 
    239 H239       -4.5716  -19.2728  -55.6868 H         1 UNK         0.0600 
    240 H240       -2.2380  -20.5925  -53.0004 H         1 UNK         0.3000 
    241 H241        0.3357  -20.1137  -54.0314 H         1 UNK         0.0600 
    242 H242        0.7851  -16.6393  -54.7287 H         1 UNK         0.3800 
    243 H243        1.6085  -18.0931  -54.2451 H         1 UNK         0.3800 
    244 H244        0.0537  -20.6046  -51.6835 H         1 UNK         0.0800 
    245 H245        0.7887  -19.0440  -51.8078 H         1 UNK         0.0800 
    246 H246       -0.0705  -16.9947  -50.6429 H         1 UNK         0.0800 
    247 H247        0.1714  -18.1717  -49.3694 H         1 UNK         0.0800 
@<TRIPOS>BOND
     1    1    2 1    
     2    1  127 1    
     3    1  128 1    
     4    1  129 1    
     5    2    3 2    
     6    2    4 am   BACKBONE|DICT|INTERRES
     7    4    5 1    
     8    4  130 1    
     9    5    6 1    
    10    5   65 1    
    11    5  131 1    
    12    6    7 1    
    13    6  132 1    
    14    6  133 1    
    15    7    8 1    
    16    8    9 1    
    17    8  134 1    
    18    8  135 1    
    19    9   10 ar   
    20    9   14 ar   
    21   10   11 ar   
    22   10  136 1    
    23   11   12 ar   
    24   11  126 1    
    25   12   13 ar   
    26   12  137 1    
    27   13   14 ar   
    28   13   15 1    
    29   14  138 1    
    30   15   16 1    
    31   15  139 1    
    32   15  140 1    
    33   16   17 1    
    34   17   18 1    
    35   17  141 1    
    36   17  142 1    
    37   18   19 1    
    38   18   67 1    
    39   18  143 1    
    40   19   20 am   BACKBONE|DICT|INTERRES
    41   19  144 1    
    42   20   21 2    
    43   20   22 1    
    44   22   23 1    
    45   22   24 1    
    46   22  145 1    
    47   23  146 1    
    48   23  147 1    
    49   23  148 1    
    50   24   25 am   BACKBONE|DICT|INTERRES
    51   24  149 1    
    52   25   26 2    
    53   25   27 1    
    54   27   28 1    
    55   27   29 1    
    56   27  150 1    
    57   28  151 1    
    58   28  152 1    
    59   28  153 1    
    60   29   30 am   BACKBONE|DICT|INTERRES
    61   29  154 1    
    62   30   31 2    
    63   30   32 1    
    64   32   33 1    
    65   32   34 1    
    66   32  155 1    
    67   33  156 1    
    68   33  157 1    
    69   33  158 1    
    70   34   35 am   BACKBONE|DICT|INTERRES
    71   34  159 1    
    72   35   36 2    
    73   35   37 1    
    74   37   38 1    
    75   37   39 1    
    76   37  160 1    
    77   38  161 1    
    78   38  162 1    
    79   38  163 1    
    80   39   40 am   BACKBONE|DICT|INTERRES
    81   39  164 1    
    82   40   41 2    
    83   40   42 1    
    84   42   43 1    
    85   42   44 1    
    86   42  165 1    
    87   43  166 1    
    88   43  167 1    
    89   43  168 1    
    90   44   45 am   BACKBONE|DICT|INTERRES
    91   44  169 1    
    92   45   46 2    
    93   45   47 1    
    94   47   48 1    
    95   47   49 1    
    96   47  170 1    
    97   48  171 1    
    98   48  172 1    
    99   48  173 1    
   100   49   50 am   BACKBONE|DICT|INTERRES
   101   49  174 1    
   102   50   51 2    
   103   50   52 1    
   104   52   53 1    
   105   52   54 1    
   106   52  175 1    
   107   53  176 1    
   108   53  177 1    
   109   53  178 1    
   110   54   55 am   BACKBONE|DICT|INTERRES
   111   54  179 1    
   112   55   56 2    
   113   55   57 1    
   114   57   58 1    
   115   57   59 1    
   116   57  180 1    
   117   58  181 1    
   118   58  182 1    
   119   58  183 1    
   120   59   60 am   BACKBONE|DICT|INTERRES
   121   59  184 1    
   122   60   61 2    
   123   60   62 1    
   124   62   63 1    
   125   62   64 1    
   126   62  185 1    
   127   63  186 1    
   128   63  187 1    
   129   63  188 1    
   130   64   65 am   BACKBONE|DICT|INTERRES
   131   64  189 1    
   132   65   66 2    
   133   67   68 2    
   134   67   69 am   BACKBONE|DICT|INTERRES
   135   69   70 1    
   136   69  190 1    
   137   70   71 1    
   138   70   72 1    
   139   70  191 1    
   140   71  192 1    
   141   71  193 1    
   142   71  194 1    
   143   72   73 2    
   144   72   74 am   BACKBONE|DICT|INTERRES
   145   74   75 1    
   146   74  195 1    
   147   75   76 1    
   148   75   77 1    
   149   75  196 1    
   150   76  197 1    
   151   76  198 1    
   152   76  199 1    
   153   77   78 2    
   154   77   79 am   BACKBONE|DICT|INTERRES
   155   79   80 1    
   156   79  200 1    
   157   80   81 1    
   158   80   82 1    
   159   80  201 1    
   160   81  202 1    
   161   81  203 1    
   162   81  204 1    
   163   82   83 2    
   164   82   84 am   BACKBONE|DICT|INTERRES
   165   84   85 1    
   166   84  205 1    
   167   85   86 1    
   168   85   87 1    
   169   85  206 1    
   170   86  207 1    
   171   86  208 1    
   172   86  209 1    
   173   87   88 2    
   174   87   89 am   BACKBONE|DICT|INTERRES
   175   89   90 1    
   176   89  210 1    
   177   90   91 1    
   178   90   92 1    
   179   90  211 1    
   180   91  212 1    
   181   91  213 1    
   182   91  214 1    
   183   92   93 2    
   184   92   94 am   BACKBONE|DICT|INTERRES
   185   94   95 1    
   186   94  215 1    
   187   95   96 1    
   188   95   97 1    
   189   95  216 1    
   190   96  217 1    
   191   96  218 1    
   192   96  219 1    
   193   97   98 2    
   194   97   99 am   BACKBONE|DICT|INTERRES
   195   99  100 1    
   196   99  220 1    
   197  100  101 1    
   198  100  102 1    
   199  100  221 1    
   200  101  222 1    
   201  101  223 1    
   202  101  224 1    
   203  102  103 2    
   204  102  104 am   BACKBONE|DICT|INTERRES
   205  104  105 1    
   206  104  225 1    
   207  105  106 1    
   208  105  107 1    
   209  105  226 1    
   210  106  227 1    
   211  106  228 1    
   212  106  229 1    
   213  107  108 2    
   214  107  109 am   BACKBONE|DICT|INTERRES
   215  109  110 1    
   216  109  230 1    
   217  110  111 1    
   218  110  112 1    
   219  110  231 1    
   220  111  232 1    
   221  111  233 1    
   222  111  234 1    
   223  112  113 2    
   224  112  114 am   BACKBONE|DICT|INTERRES
   225  114  115 1    
   226  114  235 1    
   227  115  116 1    
   228  115  117 1    
   229  115  236 1    
   230  116  237 1    
   231  116  238 1    
   232  116  239 1    
   233  117  118 2    
   234  117  119 am   BACKBONE|DICT|INTERRES
   235  119  120 1    
   236  119  240 1    
   237  120  121 1    
   238  120  124 1    
   239  120  241 1    
   240  121  122 am   BACKBONE|DICT|INTERRES
   241  121  123 2    
   242  122  242 1    
   243  122  243 1    
   244  124  125 1    
   245  124  244 1    
   246  124  245 1    
   247  125  126 1    
   248  126  246 1    
   249  126  247 1    
@<TRIPOS>SUBSTRUCTURE
     1 UNK         1 GROUP             0       ****    0 ROOT    
