@<TRIPOS>MOLECULE
3R540
247   249    1
SMALL
USER_CHARGES


@<TRIPOS>ATOM
      1 CA          1.2069  -10.6235  -45.9803 C.3       0 UNK        -0.1800 
      2 C           2.3931  -11.0134  -46.8497 C.2       0 UNK         0.5000 
      3 O           3.5337  -10.6947  -46.5151 O.2       0 UNK        -0.5000 
      4 N           2.1323  -11.7204  -47.9562 N.am      1 UNK        -0.5000 
      5 CA          3.1341  -12.2039  -48.9192 C.3       1 UNK         0.1400 
      6 C6          2.4731  -12.7364  -50.2140 C.3       23 UNK        -0.0398 
      7 S7          1.2148  -14.0290  -49.9165 S.3       23 UNK        -0.2404 
      8 C8          1.9465  -15.4566  -50.7871 C.3       23 UNK        -0.0205 
      9 C9          1.0566  -16.6969  -50.7695 C.ar      23 UNK        -0.0193 
     10 C10        -0.3312  -16.5911  -50.9109 C.ar      23 UNK        -0.1150 
     11 C11        -1.1432  -17.7259  -50.8940 C.ar      23 UNK        -0.0193 
     12 C12        -0.5573  -18.9862  -50.7541 C.ar      23 UNK        -0.1150 
     13 C13         0.8324  -19.1164  -50.6513 C.ar      23 UNK        -0.0193 
     14 C14         1.6313  -17.9673  -50.6546 C.ar      23 UNK        -0.1150 
     15 C15         1.4658  -20.5023  -50.5780 C.3       23 UNK        -0.0205 
     16 S16         2.5056  -20.7694  -49.1003 S.3       23 UNK        -0.2404 
     17 C17         1.3612  -20.3885  -47.7327 C.3       23 UNK        -0.0398 
     18 CA          0.6238  -21.6196  -47.1509 C.3       11 UNK         0.1400 
     19 N           0.0543  -21.3298  -45.8325 N.am      11 UNK        -0.5000 
     20 C          -0.5523  -22.2136  -45.0283 C.2       10 UNK         0.5000 
     21 O          -0.6333  -23.4163  -45.2724 O.2       10 UNK        -0.5000 
     22 CA         -1.2302  -21.6523  -43.7638 C.3       10 UNK         0.1400 
     23 CB         -0.2149  -21.4716  -42.6263 C.3       10 UNK        -0.1800 
     24 N          -1.9267  -20.3893  -44.0185 N.am      10 UNK        -0.5000 
     25 C          -2.9949  -20.2691  -44.8208 C.2       9 UNK         0.5000 
     26 O          -3.5483  -21.2296  -45.3573 O.2       9 UNK        -0.5000 
     27 CA         -3.4987  -18.8407  -45.1115 C.3       9 UNK         0.1400 
     28 CB         -4.4186  -18.3403  -43.9887 C.3       9 UNK        -0.1800 
     29 N          -2.4095  -17.8842  -45.3199 N.am      9 UNK        -0.5000 
     30 C          -1.5254  -17.9590  -46.3249 C.2       8 UNK         0.5000 
     31 O          -1.5692  -18.8221  -47.1988 O.2       8 UNK        -0.5000 
     32 CA         -0.3501  -16.9624  -46.3030 C.3       8 UNK         0.1400 
     33 CB         -0.7521  -15.5945  -46.8732 C.3       8 UNK        -0.1800 
     34 N           0.2038  -16.7992  -44.9572 N.am      8 UNK        -0.5000 
     35 C           0.8234  -17.7760  -44.2783 C.2       7 UNK         0.5000 
     36 O           1.0428  -18.8920  -44.7434 O.2       7 UNK        -0.5000 
     37 CA          1.2190  -17.4820  -42.8218 C.3       7 UNK         0.1400 
     38 CB          2.5814  -16.7794  -42.7429 C.3       7 UNK        -0.1800 
     39 N           0.2044  -16.6883  -42.1315 N.am      7 UNK        -0.5000 
     40 C          -1.0089  -17.1502  -41.7963 C.2       6 UNK         0.5000 
     41 O          -1.3732  -18.3108  -41.9822 O.2       6 UNK        -0.5000 
     42 CA         -1.9933  -16.1292  -41.1975 C.3       6 UNK         0.1400 
     43 CB         -1.7840  -16.0003  -39.6815 C.3       6 UNK        -0.1800 
     44 N          -1.8698  -14.8093  -41.8187 N.am      6 UNK        -0.5000 
     45 C          -2.1766  -14.5408  -43.0964 C.2       5 UNK         0.5000 
     46 O          -2.6559  -15.3682  -43.8701 O.2       5 UNK        -0.5000 
     47 CA         -1.8337  -13.1282  -43.6054 C.3       5 UNK         0.1400 
     48 CB         -2.9921  -12.1570  -43.3360 C.3       5 UNK        -0.1800 
     49 N          -0.6048  -12.6036  -43.0024 N.am      5 UNK        -0.5000 
     50 C           0.6164  -13.0941  -43.2456 C.2       4 UNK         0.5000 
     51 O           0.8423  -14.0069  -44.0452 O.2       4 UNK        -0.5000 
     52 CA          1.7668  -12.5006  -42.4252 C.3       4 UNK         0.1400 
     53 CB          1.8896  -13.2166  -41.0670 C.3       4 UNK        -0.1800 
     54 N           2.9995  -12.6399  -43.1902 N.am      4 UNK        -0.5000 
     55 C           4.1348  -11.9641  -42.9815 C.2       3 UNK         0.5000 
     56 O           4.2849  -11.1690  -42.0525 O.2       3 UNK        -0.5000 
     57 CA          5.2830  -12.1554  -43.9940 C.3       3 UNK         0.1400 
     58 CB          6.6029  -12.5719  -43.3125 C.3       3 UNK        -0.1800 
     59 N           4.9442  -13.0179  -45.1343 N.am      3 UNK        -0.5000 
     60 C           4.8709  -14.3568  -45.1972 C.2       2 UNK         0.5000 
     61 O           5.1287  -15.1000  -44.2514 O.2       2 UNK        -0.5000 
     62 CA          4.3965  -14.9647  -46.5367 C.3       2 UNK         0.1400 
     63 CB          3.5173  -16.2072  -46.3263 C.3       2 UNK        -0.1800 
     64 N           3.6310  -13.9987  -47.3243 N.am      2 UNK        -0.5000 
     65 C           4.1106  -13.2379  -48.3157 C.2       1 UNK         0.5000 
     66 O           5.2688  -13.2987  -48.7287 O.2       1 UNK        -0.5000 
     67 C          -0.4476  -22.1616  -48.1193 C.2       11 UNK         0.5000 
     68 O          -0.2277  -23.2001  -48.7401 O.2       11 UNK        -0.5000 
     69 N          -1.6015  -21.4831  -48.1954 N.am      12 UNK        -0.5000 
     70 CA         -2.7661  -21.8923  -48.9824 C.3       12 UNK         0.1400 
     71 CB         -3.8633  -20.8265  -48.8705 C.3       12 UNK        -0.1800 
     72 C          -3.3135  -23.2718  -48.5794 C.2       12 UNK         0.5000 
     73 O          -3.6138  -24.0829  -49.4566 O.2       12 UNK        -0.5000 
     74 N          -3.3987  -23.5238  -47.2656 N.am      13 UNK        -0.5000 
     75 CA         -3.7972  -24.8089  -46.6935 C.3       13 UNK         0.1400 
     76 CB         -4.0017  -24.6627  -45.1782 C.3       13 UNK        -0.1800 
     77 C          -2.7954  -25.9333  -47.0142 C.2       13 UNK         0.5000 
     78 O          -3.2145  -27.0081  -47.4440 O.2       13 UNK        -0.5000 
     79 N          -1.4938  -25.6567  -46.8474 N.am      14 UNK        -0.5000 
     80 CA         -0.3938  -26.5725  -47.1656 C.3       14 UNK         0.1400 
     81 CB          0.9307  -25.9787  -46.6629 C.3       14 UNK        -0.1800 
     82 C          -0.3039  -26.9099  -48.6661 C.2       14 UNK         0.5000 
     83 O          -0.0276  -28.0571  -49.0181 O.2       14 UNK        -0.5000 
     84 N          -0.5807  -25.9156  -49.5193 N.am      15 UNK        -0.5000 
     85 CA         -0.6801  -26.0484  -50.9727 C.3       15 UNK         0.1400 
     86 CB         -0.5527  -24.6523  -51.6074 C.3       15 UNK        -0.1800 
     87 C          -1.9821  -26.7280  -51.4432 C.2       15 UNK         0.5000 
     88 O          -2.1198  -26.9723  -52.6407 O.2       15 UNK        -0.5000 
     89 N          -2.9302  -26.9816  -50.5272 N.am      16 UNK        -0.5000 
     90 CA         -4.2676  -27.5357  -50.7694 C.3       16 UNK         0.1400 
     91 CB         -4.1734  -29.0188  -51.1828 C.3       16 UNK        -0.1800 
     92 C          -5.0882  -26.6796  -51.7587 C.2       16 UNK         0.5000 
     93 O          -5.7688  -27.2166  -52.6341 O.2       16 UNK        -0.5000 
     94 N          -4.9670  -25.3525  -51.6098 N.am      17 UNK        -0.5000 
     95 CA         -5.5569  -24.2913  -52.4288 C.3       17 UNK         0.1400 
     96 CB         -7.0974  -24.3379  -52.3865 C.3       17 UNK        -0.1800 
     97 C          -5.0131  -24.1997  -53.8713 C.2       17 UNK         0.5000 
     98 O          -5.5580  -23.4268  -54.6606 O.2       17 UNK        -0.5000 
     99 N          -3.9239  -24.9145  -54.2013 N.am      18 UNK        -0.5000 
    100 CA        -3.2508  -24.8213  -55.5059 C.3       18 UNK         0.1400 
    101 CB        -2.2340  -25.9620  -55.6517 C.3       18 UNK        -0.1800 
    102 C         -2.5639  -23.4582  -55.7307 C.2       18 UNK         0.5000 
    103 O         -2.4110  -23.0303  -56.8746 O.2       18 UNK        -0.5000 
    104 N         -2.2061  -22.7881  -54.6281 N.am      19 UNK        -0.5000 
    105 CA        -1.6827  -21.4220  -54.5791 C.3       19 UNK         0.1400 
    106 CB        -0.6303  -21.3580  -53.4584 C.3       19 UNK        -0.1800 
    107 C         -2.8020  -20.3751  -54.3672 C.2       19 UNK         0.5000 
    108 O         -2.4977  -19.2425  -53.9946 O.2       19 UNK        -0.5000 
    109 N         -4.0622  -20.7804  -54.5959 N.am      20 UNK        -0.5000 
    110 CA        -5.3322  -20.1242  -54.2648 C.3       20 UNK         0.1400 
    111 CB        -5.3762  -18.6435  -54.6927 C.3       20 UNK        -0.1800 
    112 C         -5.6856  -20.2981  -52.7772 C.2       20 UNK         0.5000 
    113 O         -4.8021  -20.4655  -51.9356 O.2       20 UNK        -0.5000 
    114 N         -6.9871  -20.2563  -52.4726 N.am      21 UNK        -0.5000 
    115 CA        -7.5395  -20.3922  -51.1235 C.3       21 UNK         0.1400 
    116 CB        -8.9329  -21.0420  -51.2225 C.3       21 UNK        -0.1800 
    117 C         -7.5765  -19.0303  -50.4004 C.2       21 UNK         0.5000 
    118 O         -8.6520  -18.5691  -50.0113 O.2       21 UNK        -0.5000 
    119 N         -6.4113  -18.3841  -50.2727 N.am      22 UNK        -0.5000 
    120 CA        -6.2587  -17.0946  -49.5825 C.3       22 UNK         0.1400 
    121 C         -6.3711  -17.1916  -48.0298 C.2       22 UNK         0.5000 
    122 N         -6.5080  -16.0645  -47.3432 N.am      22 UNK        -0.7600 
    123 O         -6.3342  -18.2679  -47.4375 O.2       22 UNK        -0.5000 
    124 C124       -5.0037  -16.3240  -50.0704 C.3       23 UNK        -0.0398 
    125 S125       -3.4038  -16.9930  -49.5005 S.3       23 UNK        -0.2404 
    126 C126       -2.6477  -17.5715  -51.0498 C.3       23 UNK        -0.0205 
    127 H127        0.8649   -9.6220  -46.2401 H         1 UNK         0.0600 
    128 H128        1.4922  -10.6227  -44.9287 H         1 UNK         0.0600 
    129 H129        0.3749  -11.3174  -46.1047 H         1 UNK         0.0600 
    130 H130        1.1761  -11.9607  -48.1785 H         1 UNK         0.3000 
    131 H131        3.7417  -11.3409  -49.2000 H         1 UNK         0.0600 
    132 H132        1.9779  -11.9116  -50.7280 H         1 UNK         0.0800 
    133 H133        3.2296  -13.0981  -50.9129 H         1 UNK         0.0800 
    134 H134        2.9132  -15.6800  -50.3324 H         1 UNK         0.0800 
    135 H135        2.1388  -15.1851  -51.8258 H         1 UNK         0.0800 
    136 H136       -0.7915  -15.6205  -51.0278 H         1 UNK         0.1150 
    137 H137       -1.1862  -19.8643  -50.7473 H         1 UNK         0.1150 
    138 H138        2.7047  -18.0668  -50.5743 H         1 UNK         0.1150 
    139 H139        0.7021  -21.2794  -50.6200 H         1 UNK         0.0800 
    140 H140        2.0836  -20.6462  -51.4652 H         1 UNK         0.0800 
    141 H141        0.6641  -19.6103  -48.0360 H         1 UNK         0.0800 
    142 H142        1.9755  -19.9365  -46.9537 H         1 UNK         0.0800 
    143 H143        1.3593  -22.4125  -47.0008 H         1 UNK         0.0600 
    144 H144        0.1331  -20.3678  -45.5145 H         1 UNK         0.3000 
    145 H145       -1.9741  -22.3813  -43.4360 H         1 UNK         0.0600 
    146 H146       -0.7011  -21.1203  -41.7159 H         1 UNK         0.0600 
    147 H147        0.2759  -22.4165  -42.3900 H         1 UNK         0.0600 
    148 H148        0.5635  -20.7554  -42.8871 H         1 UNK         0.0600 
    149 H149       -1.5638  -19.5623  -43.5560 H         1 UNK         0.3000 
    150 H150       -4.0810  -18.8788  -46.0339 H         1 UNK         0.0600 
    151 H151       -5.2616  -19.0174  -43.8465 H         1 UNK         0.0600 
    152 H152       -4.8267  -17.3573  -44.2247 H         1 UNK         0.0600 
    153 H153       -3.8919  -18.2651  -43.0375 H         1 UNK         0.0600 
    154 H154       -2.3445  -17.1095  -44.6662 H         1 UNK         0.3000 
    155 H155        0.4399  -17.3653  -46.9404 H         1 UNK         0.0600 
    156 H156       -1.5772  -15.1488  -46.3187 H         1 UNK         0.0600 
    157 H157       -1.0687  -15.6895  -47.9126 H         1 UNK         0.0600 
    158 H158        0.0848  -14.8962  -46.8526 H         1 UNK         0.0600 
    159 H159        0.1102  -15.8858  -44.5282 H         1 UNK         0.3000 
    160 H160        1.3094  -18.4395  -42.3046 H         1 UNK         0.0600 
    161 H161        2.5644  -15.7991  -43.2171 H         1 UNK         0.0600 
    162 H162        3.3521  -17.3674  -43.2427 H         1 UNK         0.0600 
    163 H163        2.8977  -16.6460  -41.7085 H         1 UNK         0.0600 
    164 H164        0.4132  -15.7146  -41.9774 H         1 UNK         0.3000 
    165 H165       -3.0061  -16.4970  -41.3747 H         1 UNK         0.0600 
    166 H166       -2.5223  -15.3326  -39.2372 H         1 UNK         0.0600 
    167 H167       -1.8866  -16.9690  -39.1905 H         1 UNK         0.0600 
    168 H168       -0.7929  -15.6135  -39.4411 H         1 UNK         0.0600 
    169 H169       -1.4935  -14.0685  -41.2465 H         1 UNK         0.3000 
    170 H170       -1.6852  -13.1906  -44.6857 H         1 UNK         0.0600 
    171 H171       -3.9155  -12.5163  -43.7923 H         1 UNK         0.0600 
    172 H172       -3.1787  -12.0358  -42.2683 H         1 UNK         0.0600 
    173 H173       -2.7857  -11.1721  -43.7554 H         1 UNK         0.0600 
    174 H174       -0.7136  -11.8503  -42.3382 H         1 UNK         0.3000 
    175 H175        1.5670  -11.4391  -42.2649 H         1 UNK         0.0600 
    176 H176        2.1389  -14.2705  -41.1880 H         1 UNK         0.0600 
    177 H177        2.6638  -12.7633  -40.4482 H         1 UNK         0.0600 
    178 H178        0.9572  -13.1598  -40.5041 H         1 UNK         0.0600 
    179 H179        2.9343  -13.2725  -43.9764 H         1 UNK         0.3000 
    180 H180        5.4501  -11.1693  -44.4297 H         1 UNK         0.0600 
    181 H181        6.4967  -13.4968  -42.7456 H         1 UNK         0.0600 
    182 H182        6.9357  -11.8046  -42.6128 H         1 UNK         0.0600 
    183 H183        7.3998  -12.7112  -44.0430 H         1 UNK         0.0600 
    184 H184        4.6686  -12.5029  -45.9619 H         1 UNK         0.3000 
    185 H185        5.2895  -15.2720  -47.0844 H         1 UNK         0.0600 
    186 H186        4.0521  -16.9912  -45.7890 H         1 UNK         0.0600 
    187 H187        2.6290  -15.9555  -45.7506 H         1 UNK         0.0600 
    188 H188        3.1914  -16.6298  -47.2772 H         1 UNK         0.0600 
    189 H189        2.6658  -13.8681  -47.0572 H         1 UNK         0.3000 
    190 H190       -1.6821  -20.6018  -47.6910 H         1 UNK         0.3000 
    191 H191       -2.4573  -21.9538  -50.0278 H         1 UNK         0.0600 
    192 H192       -4.1381  -20.6253  -47.8363 H         1 UNK         0.0600 
    193 H193       -4.7685  -21.1393  -49.3897 H         1 UNK         0.0600 
    194 H194       -3.5383  -19.8887  -49.3157 H         1 UNK         0.0600 
    195 H195       -3.1797  -22.7785  -46.6120 H         1 UNK         0.3000 
    196 H196       -4.7566  -25.0843  -47.1366 H         1 UNK         0.0600 
    197 H197       -4.3355  -25.6028  -44.7374 H         1 UNK         0.0600 
    198 H198       -4.7585  -23.9107  -44.9542 H         1 UNK         0.0600 
    199 H199       -3.0824  -24.3708  -44.6710 H         1 UNK         0.0600 
    200 H200       -1.2310  -24.7559  -46.4539 H         1 UNK         0.3000 
    201 H201       -0.5735  -27.5056  -46.6278 H         1 UNK         0.0600 
    202 H202        0.9049  -25.8149  -45.5855 H         1 UNK         0.0600 
    203 H203        1.1500  -25.0233  -47.1406 H         1 UNK         0.0600 
    204 H204        1.7648  -26.6500  -46.8705 H         1 UNK         0.0600 
    205 H205       -0.7153  -24.9792  -49.1446 H         1 UNK         0.3000 
    206 H206        0.1526  -26.6611  -51.3233 H         1 UNK         0.0600 
    207 H207        0.3843  -24.1732  -51.3227 H         1 UNK         0.0600 
    208 H208       -0.5666  -24.7098  -52.6964 H         1 UNK         0.0600 
    209 H209       -1.3687  -23.9971  -51.3004 H         1 UNK         0.0600 
    210 H210       -2.7387  -26.7281  -49.5658 H         1 UNK         0.3000 
    211 H211       -4.7956  -27.4903  -49.8159 H         1 UNK         0.0600 
    212 H212       -3.6978  -29.1395  -52.1566 H         1 UNK         0.0600 
    213 H213       -5.1638  -29.4711  -51.2440 H         1 UNK         0.0600 
    214 H214       -3.5993  -29.5933  -50.4558 H         1 UNK         0.0600 
    215 H215       -4.3840  -25.0177  -50.8432 H         1 UNK         0.3000 
    216 H216       -5.2530  -23.3597  -51.9493 H         1 UNK         0.0600 
    217 H217       -7.5270  -23.4806  -52.9047 H         1 UNK         0.0600 
    218 H218       -7.4643  -24.3140  -51.3604 H         1 UNK         0.0600 
    219 H219       -7.4932  -25.2328  -52.8664 H         1 UNK         0.0600 
    220 H220       -3.5256  -25.5600  -53.5289 H         1 UNK         0.3000 
    221 H221       -4.0077  -24.9426  -56.2837 H         1 UNK         0.0600 
    222 H222       -1.4093  -25.8593  -54.9459 H         1 UNK         0.0600 
    223 H223       -2.7008  -26.9333  -55.4865 H         1 UNK         0.0600 
    224 H224       -1.8043  -25.9736  -56.6541 H         1 UNK         0.0600 
    225 H225       -2.3891  -23.2242  -53.7369 H         1 UNK         0.3000 
    226 H226       -1.1893  -21.1812  -55.5227 H         1 UNK         0.0600 
    227 H227        0.1637  -22.0875  -53.6191 H         1 UNK         0.0600 
    228 H228       -0.1593  -20.3753  -53.4143 H         1 UNK         0.0600 
    229 H229       -1.0747  -21.5566  -52.4827 H         1 UNK         0.0600 
    230 H230       -4.1788  -21.7417  -54.8894 H         1 UNK         0.3000 
    231 H231       -6.0884  -20.6579  -54.8425 H         1 UNK         0.0600 
    232 H232       -5.0386  -18.5172  -55.7214 H         1 UNK         0.0600 
    233 H233       -4.7576  -18.0133  -54.0530 H         1 UNK         0.0600 
    234 H234       -6.3931  -18.2543  -54.6345 H         1 UNK         0.0600 
    235 H235       -7.6564  -20.0803  -53.2081 H         1 UNK         0.3000 
    236 H236       -6.9082  -21.0596  -50.5336 H         1 UNK         0.0600 
    237 H237       -9.3675  -21.1871  -50.2326 H         1 UNK         0.0600 
    238 H238       -9.6253  -20.4275  -51.7992 H         1 UNK         0.0600 
    239 H239       -8.8845  -22.0211  -51.6960 H         1 UNK         0.0600 
    240 H240       -5.5643  -18.8365  -50.5922 H         1 UNK         0.3000 
    241 H241       -7.1137  -16.4885  -49.8893 H         1 UNK         0.0600 
    242 H242       -6.5801  -16.1146  -46.3396 H         1 UNK         0.3800 
    243 H243       -6.5479  -15.1653  -47.7965 H         1 UNK         0.3800 
    244 H244       -5.0123  -16.2671  -51.1595 H         1 UNK         0.0800 
    245 H245       -5.0562  -15.2881  -49.7331 H         1 UNK         0.0800 
    246 H246       -2.8480  -16.8629  -51.8545 H         1 UNK         0.0800 
    247 H247       -3.1033  -18.5154  -51.3494 H         1 UNK         0.0800 
@<TRIPOS>BOND
     1    1    2 1    
     2    1  127 1    
     3    1  128 1    
     4    1  129 1    
     5    2    3 2    
     6    2    4 am   BACKBONE|DICT|INTERRES
     7    4    5 1    
     8    4  130 1    
     9    5    6 1    
    10    5   65 1    
    11    5  131 1    
    12    6    7 1    
    13    6  132 1    
    14    6  133 1    
    15    7    8 1    
    16    8    9 1    
    17    8  134 1    
    18    8  135 1    
    19    9   10 ar   
    20    9   14 ar   
    21   10   11 ar   
    22   10  136 1    
    23   11   12 ar   
    24   11  126 1    
    25   12   13 ar   
    26   12  137 1    
    27   13   14 ar   
    28   13   15 1    
    29   14  138 1    
    30   15   16 1    
    31   15  139 1    
    32   15  140 1    
    33   16   17 1    
    34   17   18 1    
    35   17  141 1    
    36   17  142 1    
    37   18   19 1    
    38   18   67 1    
    39   18  143 1    
    40   19   20 am   BACKBONE|DICT|INTERRES
    41   19  144 1    
    42   20   21 2    
    43   20   22 1    
    44   22   23 1    
    45   22   24 1    
    46   22  145 1    
    47   23  146 1    
    48   23  147 1    
    49   23  148 1    
    50   24   25 am   BACKBONE|DICT|INTERRES
    51   24  149 1    
    52   25   26 2    
    53   25   27 1    
    54   27   28 1    
    55   27   29 1    
    56   27  150 1    
    57   28  151 1    
    58   28  152 1    
    59   28  153 1    
    60   29   30 am   BACKBONE|DICT|INTERRES
    61   29  154 1    
    62   30   31 2    
    63   30   32 1    
    64   32   33 1    
    65   32   34 1    
    66   32  155 1    
    67   33  156 1    
    68   33  157 1    
    69   33  158 1    
    70   34   35 am   BACKBONE|DICT|INTERRES
    71   34  159 1    
    72   35   36 2    
    73   35   37 1    
    74   37   38 1    
    75   37   39 1    
    76   37  160 1    
    77   38  161 1    
    78   38  162 1    
    79   38  163 1    
    80   39   40 am   BACKBONE|DICT|INTERRES
    81   39  164 1    
    82   40   41 2    
    83   40   42 1    
    84   42   43 1    
    85   42   44 1    
    86   42  165 1    
    87   43  166 1    
    88   43  167 1    
    89   43  168 1    
    90   44   45 am   BACKBONE|DICT|INTERRES
    91   44  169 1    
    92   45   46 2    
    93   45   47 1    
    94   47   48 1    
    95   47   49 1    
    96   47  170 1    
    97   48  171 1    
    98   48  172 1    
    99   48  173 1    
   100   49   50 am   BACKBONE|DICT|INTERRES
   101   49  174 1    
   102   50   51 2    
   103   50   52 1    
   104   52   53 1    
   105   52   54 1    
   106   52  175 1    
   107   53  176 1    
   108   53  177 1    
   109   53  178 1    
   110   54   55 am   BACKBONE|DICT|INTERRES
   111   54  179 1    
   112   55   56 2    
   113   55   57 1    
   114   57   58 1    
   115   57   59 1    
   116   57  180 1    
   117   58  181 1    
   118   58  182 1    
   119   58  183 1    
   120   59   60 am   BACKBONE|DICT|INTERRES
   121   59  184 1    
   122   60   61 2    
   123   60   62 1    
   124   62   63 1    
   125   62   64 1    
   126   62  185 1    
   127   63  186 1    
   128   63  187 1    
   129   63  188 1    
   130   64   65 am   BACKBONE|DICT|INTERRES
   131   64  189 1    
   132   65   66 2    
   133   67   68 2    
   134   67   69 am   BACKBONE|DICT|INTERRES
   135   69   70 1    
   136   69  190 1    
   137   70   71 1    
   138   70   72 1    
   139   70  191 1    
   140   71  192 1    
   141   71  193 1    
   142   71  194 1    
   143   72   73 2    
   144   72   74 am   BACKBONE|DICT|INTERRES
   145   74   75 1    
   146   74  195 1    
   147   75   76 1    
   148   75   77 1    
   149   75  196 1    
   150   76  197 1    
   151   76  198 1    
   152   76  199 1    
   153   77   78 2    
   154   77   79 am   BACKBONE|DICT|INTERRES
   155   79   80 1    
   156   79  200 1    
   157   80   81 1    
   158   80   82 1    
   159   80  201 1    
   160   81  202 1    
   161   81  203 1    
   162   81  204 1    
   163   82   83 2    
   164   82   84 am   BACKBONE|DICT|INTERRES
   165   84   85 1    
   166   84  205 1    
   167   85   86 1    
   168   85   87 1    
   169   85  206 1    
   170   86  207 1    
   171   86  208 1    
   172   86  209 1    
   173   87   88 2    
   174   87   89 am   BACKBONE|DICT|INTERRES
   175   89   90 1    
   176   89  210 1    
   177   90   91 1    
   178   90   92 1    
   179   90  211 1    
   180   91  212 1    
   181   91  213 1    
   182   91  214 1    
   183   92   93 2    
   184   92   94 am   BACKBONE|DICT|INTERRES
   185   94   95 1    
   186   94  215 1    
   187   95   96 1    
   188   95   97 1    
   189   95  216 1    
   190   96  217 1    
   191   96  218 1    
   192   96  219 1    
   193   97   98 2    
   194   97   99 am   BACKBONE|DICT|INTERRES
   195   99  100 1    
   196   99  220 1    
   197  100  101 1    
   198  100  102 1    
   199  100  221 1    
   200  101  222 1    
   201  101  223 1    
   202  101  224 1    
   203  102  103 2    
   204  102  104 am   BACKBONE|DICT|INTERRES
   205  104  105 1    
   206  104  225 1    
   207  105  106 1    
   208  105  107 1    
   209  105  226 1    
   210  106  227 1    
   211  106  228 1    
   212  106  229 1    
   213  107  108 2    
   214  107  109 am   BACKBONE|DICT|INTERRES
   215  109  110 1    
   216  109  230 1    
   217  110  111 1    
   218  110  112 1    
   219  110  231 1    
   220  111  232 1    
   221  111  233 1    
   222  111  234 1    
   223  112  113 2    
   224  112  114 am   BACKBONE|DICT|INTERRES
   225  114  115 1    
   226  114  235 1    
   227  115  116 1    
   228  115  117 1    
   229  115  236 1    
   230  116  237 1    
   231  116  238 1    
   232  116  239 1    
   233  117  118 2    
   234  117  119 am   BACKBONE|DICT|INTERRES
   235  119  120 1    
   236  119  240 1    
   237  120  121 1    
   238  120  124 1    
   239  120  241 1    
   240  121  122 am   BACKBONE|DICT|INTERRES
   241  121  123 2    
   242  122  242 1    
   243  122  243 1    
   244  124  125 1    
   245  124  244 1    
   246  124  245 1    
   247  125  126 1    
   248  126  246 1    
   249  126  247 1    
@<TRIPOS>SUBSTRUCTURE
     1 UNK         1 GROUP             0       ****    0 ROOT    
