@<TRIPOS>MOLECULE
3R540
247   249    1
SMALL
USER_CHARGES


@<TRIPOS>ATOM
      1 CA         -1.2189  -17.7825  -47.9018 C.3       0 UNK        -0.1800 
      2 C          -0.9906  -16.4795  -48.6495 C.2       0 UNK         0.5000 
      3 O          -1.9476  -15.8358  -49.0754 O.2       0 UNK        -0.5000 
      4 N           0.2774  -16.0965  -48.8231 N.am      1 UNK        -0.5000 
      5 CA          0.6976  -14.8682  -49.4977 C.3       1 UNK         0.1400 
      6 C6          2.2116  -14.8795  -49.8281 C.3       23 UNK        -0.0398 
      7 S7          3.2882  -15.3401  -48.4208 S.3       23 UNK        -0.2404 
      8 C8          4.2639  -16.7104  -49.1230 C.3       23 UNK        -0.0205 
      9 C9          3.4680  -18.0031  -49.2595 C.ar      23 UNK        -0.0193 
     10 C10         2.8892  -18.3551  -50.4829 C.ar      23 UNK        -0.1150 
     11 C11         2.2012  -19.5641  -50.6252 C.ar      23 UNK        -0.0193 
     12 C12         2.1011  -20.4290  -49.5311 C.ar      23 UNK        -0.1150 
     13 C13         2.6806  -20.0945  -48.3033 C.ar      23 UNK        -0.0193 
     14 C14         3.3557  -18.8762  -48.1732 C.ar      23 UNK        -0.1150 
     15 C15         2.5702  -21.0377  -47.1131 C.3       23 UNK        -0.0205 
     16 S16         3.5190  -22.5740  -47.3377 S.3       23 UNK        -0.2404 
     17 C17         2.1994  -23.8000  -47.6532 C.3       23 UNK        -0.0398 
     18 CA          1.9197  -24.6799  -46.4094 C.3       11 UNK         0.1400 
     19 N           1.3254  -23.9304  -45.2945 N.am      11 UNK        -0.5000 
     20 C           1.2140  -24.4063  -44.0447 C.2       10 UNK         0.5000 
     21 O           1.6394  -25.5103  -43.7009 O.2       10 UNK        -0.5000 
     22 CA          0.5486  -23.5117  -42.9802 C.3       10 UNK         0.1400 
     23 CB          1.6166  -22.8932  -42.0641 C.3       10 UNK        -0.1800 
     24 N          -0.2823  -22.4318  -43.5112 N.am      10 UNK        -0.5000 
     25 C          -1.4844  -22.5712  -44.0866 C.2       9 UNK         0.5000 
     26 O          -2.0029  -23.6656  -44.3003 O.2       9 UNK        -0.5000 
     27 CA         -2.2526  -21.2776  -44.4499 C.3       9 UNK         0.1400 
     28 CB         -3.6691  -21.2824  -43.8532 C.3       9 UNK        -0.1800 
     29 N          -1.5669  -20.0549  -44.0141 N.am      9 UNK        -0.5000 
     30 C          -0.5314  -19.4953  -44.6465 C.2       8 UNK         0.5000 
     31 O          -0.0918  -19.9322  -45.7051 O.2       8 UNK        -0.5000 
     32 CA          0.1462  -18.2873  -43.9667 C.3       8 UNK         0.1400 
     33 CB          1.3621  -17.7748  -44.7600 C.3       8 UNK        -0.1800 
     34 N          -0.7669  -17.1700  -43.7272 N.am      8 UNK        -0.5000 
     35 C          -1.7178  -17.1124  -42.7847 C.2       7 UNK         0.5000 
     36 O          -1.9601  -18.0378  -42.0079 O.2       7 UNK        -0.5000 
     37 CA         -2.5293  -15.8077  -42.6822 C.3       7 UNK         0.1400 
     38 CB         -2.1035  -15.0068  -41.4421 C.3       7 UNK        -0.1800 
     39 N          -2.3836  -14.9576  -43.8653 N.am      7 UNK        -0.5000 
     40 C          -3.1133  -15.0811  -44.9841 C.2       6 UNK         0.5000 
     41 O          -3.9724  -15.9509  -45.1322 O.2       6 UNK        -0.5000 
     42 CA         -2.8229  -14.0958  -46.1385 C.3       6 UNK         0.1400 
     43 CB         -4.0908  -13.6859  -46.9144 C.3       6 UNK        -0.1800 
     44 N          -2.0337  -12.9245  -45.7483 N.am      6 UNK        -0.5000 
     45 C          -2.3768  -11.9521  -44.8895 C.2       5 UNK         0.5000 
     46 O          -3.4910  -11.8594  -44.3729 O.2       5 UNK        -0.5000 
     47 CA         -1.2770  -10.9294  -44.5264 C.3       5 UNK         0.1400 
     48 CB         -1.4278  -10.3935  -43.0875 C.3       5 UNK        -0.1800 
     49 N           0.0921  -11.4170  -44.7457 N.am      5 UNK        -0.5000 
     50 C           0.6837  -12.4859  -44.1858 C.2       4 UNK         0.5000 
     51 O           0.1054  -13.2464  -43.4080 O.2       4 UNK        -0.5000 
     52 CA          2.1417  -12.7783  -44.5986 C.3       4 UNK         0.1400 
     53 CB          2.4232  -14.2877  -44.6615 C.3       4 UNK        -0.1800 
     54 N           2.4388  -12.2004  -45.9074 N.am      4 UNK        -0.5000 
     55 C           3.2158  -11.1341  -46.1388 C.2       3 UNK         0.5000 
     56 O           3.8516  -10.5457  -45.2641 O.2       3 UNK        -0.5000 
     57 CA          3.2656  -10.6129  -47.5913 C.3       3 UNK         0.1400 
     58 CB          4.5062  -11.1610  -48.3129 C.3       3 UNK        -0.1800 
     59 N           2.0749  -10.9542  -48.3751 N.am      3 UNK        -0.5000 
     60 C           0.8254  -10.5439  -48.1120 C.2       2 UNK         0.5000 
     61 O           0.5447   -9.7456  -47.2183 O.2       2 UNK        -0.5000 
     62 CA         -0.3077  -11.1875  -48.9359 C.3       2 UNK         0.1400 
     63 CB         -0.7152  -10.2720  -50.0991 C.3       2 UNK        -0.1800 
     64 N           0.0304  -12.5143  -49.4630 N.am      2 UNK        -0.5000 
     65 C           0.2981  -13.5971  -48.7186 C.2       1 UNK         0.5000 
     66 O           0.2893  -13.5921  -47.4836 O.2       1 UNK        -0.5000 
     67 C           1.0397  -25.8978  -46.7621 C.2       11 UNK         0.5000 
     68 O          -0.1532  -25.7352  -47.0263 O.2       11 UNK        -0.5000 
     69 N           1.6484  -27.0919  -46.7478 N.am      12 UNK        -0.5000 
     70 CA          0.9866  -28.3994  -46.8322 C.3       12 UNK         0.1400 
     71 CB          2.0327  -29.4957  -46.5759 C.3       12 UNK        -0.1800 
     72 C           0.2265  -28.6816  -48.1430 C.2       12 UNK         0.5000 
     73 O          -0.5987  -29.5962  -48.1737 O.2       12 UNK        -0.5000 
     74 N           0.5005  -27.9004  -49.1949 N.am      13 UNK        -0.5000 
     75 CA         -0.1880  -27.9261  -50.4833 C.3       13 UNK         0.1400 
     76 CB          0.6616  -27.1511  -51.5066 C.3       13 UNK        -0.1800 
     77 C          -1.6205  -27.3644  -50.3678 C.2       13 UNK         0.5000 
     78 O          -1.8695  -26.2283  -50.7706 O.2       13 UNK        -0.5000 
     79 N          -2.5258  -28.1643  -49.7873 N.am      14 UNK        -0.5000 
     80 CA         -3.9575  -27.9024  -49.5956 C.3       14 UNK         0.1400 
     81 CB         -4.6928  -27.9414  -50.9516 C.3       14 UNK        -0.1800 
     82 C          -4.2409  -26.6156  -48.7910 C.2       14 UNK         0.5000 
     83 O          -5.1042  -25.8240  -49.1748 O.2       14 UNK        -0.5000 
     84 N          -3.4832  -26.4267  -47.6995 N.am      15 UNK        -0.5000 
     85 CA         -3.5078  -25.2682  -46.7977 C.3       15 UNK         0.1400 
     86 CB         -4.8282  -25.2233  -46.0005 C.3       15 UNK        -0.1800 
     87 C          -3.2129  -23.9551  -47.5504 C.2       15 UNK         0.5000 
     88 O          -4.0286  -23.0310  -47.5406 O.2       15 UNK        -0.5000 
     89 N          -2.0672  -23.9401  -48.2472 N.am      16 UNK        -0.5000 
     90 CA         -1.6066  -22.8944  -49.1669 C.3       16 UNK         0.1400 
     91 CB         -1.2534  -21.6171  -48.3798 C.3       16 UNK        -0.1800 
     92 C          -2.6127  -22.6382  -50.3092 C.2       16 UNK         0.5000 
     93 O          -2.9200  -21.4872  -50.6143 O.2       16 UNK        -0.5000 
     94 N          -3.1435  -23.7295  -50.8812 N.am      17 UNK        -0.5000 
     95 CA         -4.1968  -23.7810  -51.8986 C.3       17 UNK         0.1400 
     96 CB         -3.6178  -23.3887  -53.2706 C.3       17 UNK        -0.1800 
     97 C          -5.4553  -22.9852  -51.4865 C.2       17 UNK         0.5000 
     98 O          -5.9054  -22.0975  -52.2138 O.2       17 UNK        -0.5000 
     99 N          -5.9626  -23.3047  -50.2856 N.am      18 UNK        -0.5000 
    100 CA        -7.0558  -22.6368  -49.5681 C.3       18 UNK         0.1400 
    101 CB        -8.3984  -22.8496  -50.2973 C.3       18 UNK        -0.1800 
    102 C         -6.7637  -21.1492  -49.2653 C.2       18 UNK         0.5000 
    103 O         -7.6810  -20.3254  -49.2558 O.2       18 UNK        -0.5000 
    104 N         -5.4807  -20.8398  -49.0385 N.am      19 UNK        -0.5000 
    105 CA        -4.8432  -19.5402  -48.8105 C.3       19 UNK         0.1400 
    106 CB        -5.3248  -18.8986  -47.4964 C.3       19 UNK        -0.1800 
    107 C         -4.9374  -18.5539  -49.9910 C.2       19 UNK         0.5000 
    108 O         -3.9136  -18.0246  -50.4198 O.2       19 UNK        -0.5000 
    109 N         -6.1567  -18.3104  -50.4863 N.am      20 UNK        -0.5000 
    110 CA        -6.5073  -17.2686  -51.4536 C.3       20 UNK         0.1400 
    111 CB        -8.0198  -17.3216  -51.7159 C.3       20 UNK        -0.1800 
    112 C         -5.7290  -17.3207  -52.7808 C.2       20 UNK         0.5000 
    113 O         -5.3924  -16.2674  -53.3244 O.2       20 UNK        -0.5000 
    114 N         -5.4318  -18.5319  -53.2705 N.am      21 UNK        -0.5000 
    115 CA        -4.7067  -18.7531  -54.5242 C.3       21 UNK         0.1400 
    116 CB        -4.8532  -20.2209  -54.9392 C.3       21 UNK        -0.1800 
    117 C         -3.2225  -18.3330  -54.4768 C.2       21 UNK         0.5000 
    118 O         -2.6406  -18.0874  -55.5345 O.2       21 UNK        -0.5000 
    119 N         -2.6450  -18.2236  -53.2729 N.am      22 UNK        -0.5000 
    120 CA        -1.3127  -17.6405  -53.0430 C.3       22 UNK         0.1400 
    121 C         -1.3113  -16.0818  -53.0124 C.2       22 UNK         0.5000 
    122 N         -2.4486  -15.3979  -53.0835 N.am      22 UNK        -0.7600 
    123 O         -0.2463  -15.4742  -52.9480 O.2       22 UNK        -0.5000 
    124 C124       -0.6385  -18.2278  -51.7776 C.3       23 UNK        -0.0398 
    125 S125       -0.2143  -19.9928  -51.9564 S.3       23 UNK        -0.2404 
    126 C126        1.6063  -19.9551  -51.9727 C.3       23 UNK        -0.0205 
    127 H127       -1.6843  -17.5918  -46.9350 H         1 UNK         0.0600 
    128 H128       -1.8742  -18.4342  -48.4769 H         1 UNK         0.0600 
    129 H129       -0.2819  -18.3153  -47.7403 H         1 UNK         0.0600 
    130 H130        1.0296  -16.6453  -48.4308 H         1 UNK         0.3000 
    131 H131        0.1588  -14.8343  -50.4455 H         1 UNK         0.0600 
    132 H132        2.5390  -13.9114  -50.2105 H         1 UNK         0.0800 
    133 H133        2.3802  -15.5718  -50.6515 H         1 UNK         0.0800 
    134 H134        4.6741  -16.4093  -50.0882 H         1 UNK         0.0800 
    135 H135        5.1249  -16.8865  -48.4765 H         1 UNK         0.0800 
    136 H136        2.9905  -17.6966  -51.3336 H         1 UNK         0.1150 
    137 H137        1.5797  -21.3690  -49.6400 H         1 UNK         0.1150 
    138 H138        3.8075  -18.6098  -47.2279 H         1 UNK         0.1150 
    139 H139        2.9168  -20.5476  -46.2026 H         1 UNK         0.0800 
    140 H140        1.5257  -21.2784  -46.9444 H         1 UNK         0.0800 
    141 H141        2.5397  -24.4188  -48.4853 H         1 UNK         0.0800 
    142 H142        1.2903  -23.3099  -48.0009 H         1 UNK         0.0800 
    143 H143        2.8829  -25.0587  -46.0595 H         1 UNK         0.0600 
    144 H144        0.9346  -23.0249  -45.5037 H         1 UNK         0.3000 
    145 H145       -0.0887  -24.1569  -42.3718 H         1 UNK         0.0600 
    146 H146        2.2761  -22.2199  -42.6134 H         1 UNK         0.0600 
    147 H147        1.1610  -22.3289  -41.2502 H         1 UNK         0.0600 
    148 H148        2.2401  -23.6652  -41.6110 H         1 UNK         0.0600 
    149 H149        0.0616  -21.4941  -43.3747 H         1 UNK         0.3000 
    150 H150       -2.3509  -21.2591  -45.5367 H         1 UNK         0.0600 
    151 H151       -4.2424  -22.1393  -44.2093 H         1 UNK         0.0600 
    152 H152       -4.2196  -20.3864  -44.1408 H         1 UNK         0.0600 
    153 H153       -3.6460  -21.3286  -42.7638 H         1 UNK         0.0600 
    154 H154       -1.8828  -19.6250  -43.1494 H         1 UNK         0.3000 
    155 H155        0.5141  -18.6400  -43.0011 H         1 UNK         0.0600 
    156 H156        1.9119  -17.0299  -44.1880 H         1 UNK         0.0600 
    157 H157        1.0698  -17.3288  -45.7114 H         1 UNK         0.0600 
    158 H158        2.0628  -18.5816  -44.9766 H         1 UNK         0.0600 
    159 H159       -0.6534  -16.3630  -44.3214 H         1 UNK         0.3000 
    160 H160       -3.5799  -16.0808  -42.5627 H         1 UNK         0.0600 
    161 H161       -1.0456  -14.7440  -41.4751 H         1 UNK         0.0600 
    162 H162       -2.2694  -15.5817  -40.5301 H         1 UNK         0.0600 
    163 H163       -2.6756  -14.0830  -41.3529 H         1 UNK         0.0600 
    164 H164       -1.6757  -14.2320  -43.8115 H         1 UNK         0.3000 
    165 H165       -2.1850  -14.6451  -46.8251 H         1 UNK         0.0600 
    166 H166       -3.8479  -13.0094  -47.7338 H         1 UNK         0.0600 
    167 H167       -4.5780  -14.5581  -47.3521 H         1 UNK         0.0600 
    168 H168       -4.8199  -13.1921  -46.2719 H         1 UNK         0.0600 
    169 H169       -1.0884  -12.9208  -46.1175 H         1 UNK         0.3000 
    170 H170       -1.4129  -10.0888  -45.2080 H         1 UNK         0.0600 
    171 H171       -1.3735  -11.1949  -42.3500 H         1 UNK         0.0600 
    172 H172       -0.6484   -9.6684  -42.8533 H         1 UNK         0.0600 
    173 H173       -2.3860   -9.8903  -42.9533 H         1 UNK         0.0600 
    174 H174        0.6302  -10.8731  -45.4099 H         1 UNK         0.3000 
    175 H175        2.7841  -12.3434  -43.8309 H         1 UNK         0.0600 
    176 H176        2.2872  -14.7502  -43.6835 H         1 UNK         0.0600 
    177 H177        1.7578  -14.7887  -45.3658 H         1 UNK         0.0600 
    178 H178        3.4486  -14.4860  -44.9738 H         1 UNK         0.0600 
    179 H179        1.9277  -12.6120  -46.6804 H         1 UNK         0.3000 
    180 H180        3.3408   -9.5244  -47.5496 H         1 UNK         0.0600 
    181 H181        4.5959  -10.7453  -49.3166 H         1 UNK         0.0600 
    182 H182        4.4732  -12.2480  -48.3999 H         1 UNK         0.0600 
    183 H183        5.4182  -10.9028  -47.7730 H         1 UNK         0.0600 
    184 H184        2.2101  -11.6030  -49.1352 H         1 UNK         0.3000 
    185 H185       -1.1679  -11.3022  -48.2730 H         1 UNK         0.0600 
    186 H186        0.0993  -10.1395  -50.8123 H         1 UNK         0.0600 
    187 H187       -1.5724  -10.6763  -50.6380 H         1 UNK         0.0600 
    188 H188       -0.9988   -9.2827  -49.7370 H         1 UNK         0.0600 
    189 H189        0.0525  -12.5963  -50.4697 H         1 UNK         0.3000 
    190 H190        2.6343  -27.1218  -46.5303 H         1 UNK         0.3000 
    191 H191        0.2491  -28.4406  -46.0280 H         1 UNK         0.0600 
    192 H192        1.5765  -30.4865  -46.5916 H         1 UNK         0.0600 
    193 H193        2.5020  -29.3738  -45.5995 H         1 UNK         0.0600 
    194 H194        2.8190  -29.4846  -47.3318 H         1 UNK         0.0600 
    195 H195        1.1806  -27.1670  -49.0658 H         1 UNK         0.3000 
    196 H196       -0.2608  -28.9613  -50.8235 H         1 UNK         0.0600 
    197 H197        0.1820  -27.1446  -52.4863 H         1 UNK         0.0600 
    198 H198        1.6437  -27.6078  -51.6298 H         1 UNK         0.0600 
    199 H199        0.8100  -26.1128  -51.2067 H         1 UNK         0.0600 
    200 H200       -2.1810  -29.0357  -49.3982 H         1 UNK         0.3000 
    201 H201       -4.3434  -28.7241  -48.9909 H         1 UNK         0.0600 
    202 H202       -4.5357  -28.8953  -51.4548 H         1 UNK         0.0600 
    203 H203       -4.3514  -27.1527  -51.6213 H         1 UNK         0.0600 
    204 H204       -5.7687  -27.8196  -50.8206 H         1 UNK         0.0600 
    205 H205       -2.7714  -27.1148  -47.4990 H         1 UNK         0.3000 
    206 H206       -2.6957  -25.4164  -46.0860 H         1 UNK         0.0600 
    207 H207       -4.9945  -26.1556  -45.4611 H         1 UNK         0.0600 
    208 H208       -4.8051  -24.4209  -45.2623 H         1 UNK         0.0600 
    209 H209       -5.6901  -25.0491  -46.6453 H         1 UNK         0.0600 
    210 H210       -1.4532  -24.7419  -48.1411 H         1 UNK         0.3000 
    211 H211       -0.6940  -23.2663  -49.6343 H         1 UNK         0.0600 
    212 H212       -0.5676  -21.8387  -47.5657 H         1 UNK         0.0600 
    213 H213       -2.1348  -21.1535  -47.9406 H         1 UNK         0.0600 
    214 H214       -0.7809  -20.8727  -49.0206 H         1 UNK         0.0600 
    215 H215       -2.7813  -24.6374  -50.5968 H         1 UNK         0.3000 
    216 H216       -4.5136  -24.8217  -51.9664 H         1 UNK         0.0600 
    217 H217       -4.3918  -23.3636  -54.0384 H         1 UNK         0.0600 
    218 H218       -2.8667  -24.1100  -53.5925 H         1 UNK         0.0600 
    219 H219       -3.1375  -22.4112  -53.2384 H         1 UNK         0.0600 
    220 H220       -5.5263  -24.0754  -49.7827 H         1 UNK         0.3000 
    221 H221       -7.1233  -23.1329  -48.5989 H         1 UNK         0.0600 
    222 H222       -8.4282  -22.3251  -51.2527 H         1 UNK         0.0600 
    223 H223       -8.5793  -23.9073  -50.4886 H         1 UNK         0.0600 
    224 H224       -9.2317  -22.4824  -49.6973 H         1 UNK         0.0600 
    225 H225       -4.8255  -21.6128  -49.0679 H         1 UNK         0.3000 
    226 H226       -3.7849  -19.7626  -48.6861 H         1 UNK         0.0600 
    227 H227       -6.3878  -18.6584  -47.5236 H         1 UNK         0.0600 
    228 H228       -5.1514  -19.5630  -46.6497 H         1 UNK         0.0600 
    229 H229       -4.7850  -17.9716  -47.2967 H         1 UNK         0.0600 
    230 H230       -6.9245  -18.8476  -50.0907 H         1 UNK         0.3000 
    231 H231       -6.2776  -16.3097  -50.9849 H         1 UNK         0.0600 
    232 H232       -8.3241  -16.5439  -52.4177 H         1 UNK         0.0600 
    233 H233       -8.5854  -17.1682  -50.7966 H         1 UNK         0.0600 
    234 H234       -8.3198  -18.2820  -52.1374 H         1 UNK         0.0600 
    235 H235       -5.7097  -19.3531  -52.7497 H         1 UNK         0.3000 
    236 H236       -5.1829  -18.1434  -55.2950 H         1 UNK         0.0600 
    237 H237       -4.4441  -20.8784  -54.1772 H         1 UNK         0.0600 
    238 H238       -5.8993  -20.4896  -55.0866 H         1 UNK         0.0600 
    239 H239       -4.3269  -20.4248  -55.8725 H         1 UNK         0.0600 
    240 H240       -3.1908  -18.4162  -52.4406 H         1 UNK         0.3000 
    241 H241       -0.6770  -17.9044  -53.8903 H         1 UNK         0.0600 
    242 H242       -2.4175  -14.3916  -53.0740 H         1 UNK         0.3800 
    243 H243       -3.3441  -15.8665  -53.1465 H         1 UNK         0.3800 
    244 H244       -1.3076  -18.1327  -50.9241 H         1 UNK         0.0800 
    245 H245        0.2634  -17.6721  -51.5182 H         1 UNK         0.0800 
    246 H246        1.9432  -19.2800  -52.7608 H         1 UNK         0.0800 
    247 H247        1.9727  -20.9459  -52.2444 H         1 UNK         0.0800 
@<TRIPOS>BOND
     1    1    2 1    
     2    1  127 1    
     3    1  128 1    
     4    1  129 1    
     5    2    3 2    
     6    2    4 am   BACKBONE|DICT|INTERRES
     7    4    5 1    
     8    4  130 1    
     9    5    6 1    
    10    5   65 1    
    11    5  131 1    
    12    6    7 1    
    13    6  132 1    
    14    6  133 1    
    15    7    8 1    
    16    8    9 1    
    17    8  134 1    
    18    8  135 1    
    19    9   10 ar   
    20    9   14 ar   
    21   10   11 ar   
    22   10  136 1    
    23   11   12 ar   
    24   11  126 1    
    25   12   13 ar   
    26   12  137 1    
    27   13   14 ar   
    28   13   15 1    
    29   14  138 1    
    30   15   16 1    
    31   15  139 1    
    32   15  140 1    
    33   16   17 1    
    34   17   18 1    
    35   17  141 1    
    36   17  142 1    
    37   18   19 1    
    38   18   67 1    
    39   18  143 1    
    40   19   20 am   BACKBONE|DICT|INTERRES
    41   19  144 1    
    42   20   21 2    
    43   20   22 1    
    44   22   23 1    
    45   22   24 1    
    46   22  145 1    
    47   23  146 1    
    48   23  147 1    
    49   23  148 1    
    50   24   25 am   BACKBONE|DICT|INTERRES
    51   24  149 1    
    52   25   26 2    
    53   25   27 1    
    54   27   28 1    
    55   27   29 1    
    56   27  150 1    
    57   28  151 1    
    58   28  152 1    
    59   28  153 1    
    60   29   30 am   BACKBONE|DICT|INTERRES
    61   29  154 1    
    62   30   31 2    
    63   30   32 1    
    64   32   33 1    
    65   32   34 1    
    66   32  155 1    
    67   33  156 1    
    68   33  157 1    
    69   33  158 1    
    70   34   35 am   BACKBONE|DICT|INTERRES
    71   34  159 1    
    72   35   36 2    
    73   35   37 1    
    74   37   38 1    
    75   37   39 1    
    76   37  160 1    
    77   38  161 1    
    78   38  162 1    
    79   38  163 1    
    80   39   40 am   BACKBONE|DICT|INTERRES
    81   39  164 1    
    82   40   41 2    
    83   40   42 1    
    84   42   43 1    
    85   42   44 1    
    86   42  165 1    
    87   43  166 1    
    88   43  167 1    
    89   43  168 1    
    90   44   45 am   BACKBONE|DICT|INTERRES
    91   44  169 1    
    92   45   46 2    
    93   45   47 1    
    94   47   48 1    
    95   47   49 1    
    96   47  170 1    
    97   48  171 1    
    98   48  172 1    
    99   48  173 1    
   100   49   50 am   BACKBONE|DICT|INTERRES
   101   49  174 1    
   102   50   51 2    
   103   50   52 1    
   104   52   53 1    
   105   52   54 1    
   106   52  175 1    
   107   53  176 1    
   108   53  177 1    
   109   53  178 1    
   110   54   55 am   BACKBONE|DICT|INTERRES
   111   54  179 1    
   112   55   56 2    
   113   55   57 1    
   114   57   58 1    
   115   57   59 1    
   116   57  180 1    
   117   58  181 1    
   118   58  182 1    
   119   58  183 1    
   120   59   60 am   BACKBONE|DICT|INTERRES
   121   59  184 1    
   122   60   61 2    
   123   60   62 1    
   124   62   63 1    
   125   62   64 1    
   126   62  185 1    
   127   63  186 1    
   128   63  187 1    
   129   63  188 1    
   130   64   65 am   BACKBONE|DICT|INTERRES
   131   64  189 1    
   132   65   66 2    
   133   67   68 2    
   134   67   69 am   BACKBONE|DICT|INTERRES
   135   69   70 1    
   136   69  190 1    
   137   70   71 1    
   138   70   72 1    
   139   70  191 1    
   140   71  192 1    
   141   71  193 1    
   142   71  194 1    
   143   72   73 2    
   144   72   74 am   BACKBONE|DICT|INTERRES
   145   74   75 1    
   146   74  195 1    
   147   75   76 1    
   148   75   77 1    
   149   75  196 1    
   150   76  197 1    
   151   76  198 1    
   152   76  199 1    
   153   77   78 2    
   154   77   79 am   BACKBONE|DICT|INTERRES
   155   79   80 1    
   156   79  200 1    
   157   80   81 1    
   158   80   82 1    
   159   80  201 1    
   160   81  202 1    
   161   81  203 1    
   162   81  204 1    
   163   82   83 2    
   164   82   84 am   BACKBONE|DICT|INTERRES
   165   84   85 1    
   166   84  205 1    
   167   85   86 1    
   168   85   87 1    
   169   85  206 1    
   170   86  207 1    
   171   86  208 1    
   172   86  209 1    
   173   87   88 2    
   174   87   89 am   BACKBONE|DICT|INTERRES
   175   89   90 1    
   176   89  210 1    
   177   90   91 1    
   178   90   92 1    
   179   90  211 1    
   180   91  212 1    
   181   91  213 1    
   182   91  214 1    
   183   92   93 2    
   184   92   94 am   BACKBONE|DICT|INTERRES
   185   94   95 1    
   186   94  215 1    
   187   95   96 1    
   188   95   97 1    
   189   95  216 1    
   190   96  217 1    
   191   96  218 1    
   192   96  219 1    
   193   97   98 2    
   194   97   99 am   BACKBONE|DICT|INTERRES
   195   99  100 1    
   196   99  220 1    
   197  100  101 1    
   198  100  102 1    
   199  100  221 1    
   200  101  222 1    
   201  101  223 1    
   202  101  224 1    
   203  102  103 2    
   204  102  104 am   BACKBONE|DICT|INTERRES
   205  104  105 1    
   206  104  225 1    
   207  105  106 1    
   208  105  107 1    
   209  105  226 1    
   210  106  227 1    
   211  106  228 1    
   212  106  229 1    
   213  107  108 2    
   214  107  109 am   BACKBONE|DICT|INTERRES
   215  109  110 1    
   216  109  230 1    
   217  110  111 1    
   218  110  112 1    
   219  110  231 1    
   220  111  232 1    
   221  111  233 1    
   222  111  234 1    
   223  112  113 2    
   224  112  114 am   BACKBONE|DICT|INTERRES
   225  114  115 1    
   226  114  235 1    
   227  115  116 1    
   228  115  117 1    
   229  115  236 1    
   230  116  237 1    
   231  116  238 1    
   232  116  239 1    
   233  117  118 2    
   234  117  119 am   BACKBONE|DICT|INTERRES
   235  119  120 1    
   236  119  240 1    
   237  120  121 1    
   238  120  124 1    
   239  120  241 1    
   240  121  122 am   BACKBONE|DICT|INTERRES
   241  121  123 2    
   242  122  242 1    
   243  122  243 1    
   244  124  125 1    
   245  124  244 1    
   246  124  245 1    
   247  125  126 1    
   248  126  246 1    
   249  126  247 1    
@<TRIPOS>SUBSTRUCTURE
     1 UNK         1 GROUP             0       ****    0 ROOT    
