@<TRIPOS>MOLECULE
3R540
247   249    1
SMALL
USER_CHARGES


@<TRIPOS>ATOM
      1 CA          7.8378  -13.1269  -44.7233 C.3       0 UNK        -0.1800 
      2 C           6.8402  -13.4788  -45.8172 C.2       0 UNK         0.5000 
      3 O           7.1325  -13.2871  -46.9977 O.2       0 UNK        -0.5000 
      4 N           5.6598  -13.9802  -45.4296 N.am      1 UNK        -0.5000 
      5 CA          4.5331  -14.3991  -46.2787 C.3       1 UNK         0.1400 
      6 C6          4.9151  -15.4851  -47.3167 C.3       23 UNK        -0.0398 
      7 S7          3.5378  -16.6273  -47.6539 S.3       23 UNK        -0.2404 
      8 C8          3.1846  -16.2607  -49.4022 C.3       23 UNK        -0.0205 
      9 C9          2.1757  -17.2414  -49.9824 C.ar      23 UNK        -0.0193 
     10 C10         0.9700  -16.7923  -50.5271 C.ar      23 UNK        -0.1150 
     11 C11         0.0485  -17.7004  -51.0589 C.ar      23 UNK        -0.0193 
     12 C12         0.3347  -19.0698  -51.0228 C.ar      23 UNK        -0.1150 
     13 C13         1.5421  -19.5358  -50.4905 C.ar      23 UNK        -0.0193 
     14 C14         2.4636  -18.6080  -49.9926 C.ar      23 UNK        -0.1150 
     15 C15         1.8339  -21.0380  -50.4978 C.3       23 UNK        -0.0205 
     16 S16         2.9913  -21.6211  -49.2025 S.3       23 UNK        -0.2404 
     17 C17         2.0901  -21.1809  -47.6748 C.3       23 UNK        -0.0398 
     18 CA          1.3898  -22.3750  -46.9836 C.3       11 UNK         0.1400 
     19 N           0.8205  -21.9851  -45.6927 N.am      11 UNK        -0.5000 
     20 C           0.2324  -22.8148  -44.8194 C.2       10 UNK         0.5000 
     21 O           0.1791  -24.0369  -44.9606 O.2       10 UNK        -0.5000 
     22 CA         -0.4672  -22.1589  -43.6148 C.3       10 UNK         0.1400 
     23 CB          0.5445  -21.8143  -42.5122 C.3       10 UNK        -0.1800 
     24 N          -1.2233  -20.9613  -43.9918 N.am      10 UNK        -0.5000 
     25 C          -2.2805  -20.9687  -44.8182 C.2       9 UNK         0.5000 
     26 O          -2.7580  -21.9948  -45.3001 O.2       9 UNK        -0.5000 
     27 CA         -2.8854  -19.6078  -45.2036 C.3       9 UNK         0.1400 
     28 CB         -3.8267  -19.1005  -44.1017 C.3       9 UNK        -0.1800 
     29 N          -1.8661  -18.5993  -45.4909 N.am      9 UNK        -0.5000 
     30 C          -1.0061  -18.6567  -46.5176 C.2       8 UNK         0.5000 
     31 O          -1.0192  -19.5485  -47.3657 O.2       8 UNK        -0.5000 
     32 CA          0.0873  -17.5719  -46.5714 C.3       8 UNK         0.1400 
     33 CB         -0.4451  -16.2633  -47.1673 C.3       8 UNK        -0.1800 
     34 N           0.6679  -17.2978  -45.2577 N.am      8 UNK        -0.5000 
     35 C           1.3630  -18.1881  -44.5378 C.2       7 UNK         0.5000 
     36 O           1.6248  -19.3275  -44.9223 O.2       7 UNK        -0.5000 
     37 CA          1.7853  -17.7485  -43.1270 C.3       7 UNK         0.1400 
     38 CB          3.0810  -16.9243  -43.1683 C.3       7 UNK        -0.1800 
     39 N           0.7297  -16.9830  -42.4631 N.am      7 UNK        -0.5000 
     40 C          -0.4121  -17.5178  -42.0073 C.2       6 UNK         0.5000 
     41 O          -0.6761  -18.7184  -42.0709 O.2       6 UNK        -0.5000 
     42 CA         -1.4487  -16.5430  -41.4170 C.3       6 UNK         0.1400 
     43 CB         -1.1158  -16.2192  -39.9530 C.3       6 UNK        -0.1800 
     44 N          -1.5554  -15.2967  -42.1778 N.am      6 UNK        -0.5000 
     45 C          -2.0044  -15.2181  -43.4382 C.2       5 UNK         0.5000 
     46 O          -2.4101  -16.1863  -44.0770 O.2       5 UNK        -0.5000 
     47 CA         -1.9555  -13.8384  -44.1202 C.3       5 UNK         0.1400 
     48 CB         -3.2687  -13.0775  -43.8858 C.3       5 UNK        -0.1800 
     49 N          -0.8297  -12.9940  -43.7114 N.am      5 UNK        -0.5000 
     50 C           0.4653  -13.3292  -43.7848 C.2       4 UNK         0.5000 
     51 O           0.8709  -14.4356  -44.1469 O.2       4 UNK        -0.5000 
     52 CA          1.4537  -12.2112  -43.4316 C.3       4 UNK         0.1400 
     53 CB          2.8551  -12.7402  -43.0834 C.3       4 UNK        -0.1800 
     54 N           1.5392  -11.3266  -44.5891 N.am      4 UNK        -0.5000 
     55 C           1.1989  -10.0309  -44.6041 C.2       3 UNK         0.5000 
     56 O           0.8145   -9.4232  -43.6033 O.2       3 UNK        -0.5000 
     57 CA          1.2585   -9.2946  -45.9636 C.3       3 UNK         0.1400 
     58 CB          1.6349   -7.8046  -45.8186 C.3       3 UNK        -0.1800 
     59 N           2.0979   -9.9585  -46.9694 N.am      3 UNK        -0.5000 
     60 C           3.4242  -10.1457  -46.9249 C.2       2 UNK         0.5000 
     61 O           4.1600   -9.7262  -46.0293 O.2       2 UNK        -0.5000 
     62 CA          4.0186  -11.0076  -48.0541 C.3       2 UNK         0.1400 
     63 CB          5.1645  -10.2785  -48.7731 C.3       2 UNK        -0.1800 
     64 N           4.5151  -12.2759  -47.5258 N.am      2 UNK        -0.5000 
     65 C           3.7770  -13.2119  -46.9159 C.2       1 UNK         0.5000 
     66 O           2.5520  -13.1395  -46.8066 O.2       1 UNK        -0.5000 
     67 C           0.3232  -23.0241  -47.8877 C.2       11 UNK         0.5000 
     68 O           0.5458  -24.1260  -48.3878 O.2       11 UNK        -0.5000 
     69 N          -0.8261  -22.3536  -48.0499 N.am      12 UNK        -0.5000 
     70 CA         -1.9568  -22.8409  -48.8372 C.3       12 UNK         0.1400 
     71 CB         -3.0403  -21.7618  -48.9154 C.3       12 UNK        -0.1800 
     72 C          -2.5419  -24.1631  -48.3175 C.2       12 UNK         0.5000 
     73 O          -2.8461  -25.0373  -49.1266 O.2       12 UNK        -0.5000 
     74 N          -2.6508  -24.3062  -46.9902 N.am      13 UNK        -0.5000 
     75 CA         -3.0856  -25.5332  -46.3237 C.3       13 UNK         0.1400 
     76 CB         -3.2797  -25.2665  -44.8234 C.3       13 UNK        -0.1800 
     77 C          -2.1174  -26.7085  -46.5522 C.2       13 UNK         0.5000 
     78 O          -2.5721  -27.8198  -46.8246 O.2       13 UNK        -0.5000 
     79 N          -0.8066  -26.4390  -46.4700 N.am      14 UNK        -0.5000 
     80 CA          0.2566  -27.4114  -46.7297 C.3       14 UNK         0.1400 
     81 CB          1.5999  -26.8423  -46.2478 C.3       14 UNK        -0.1800 
     82 C           0.3366  -27.8263  -48.2113 C.2       14 UNK         0.5000 
     83 O           0.5116  -29.0099  -48.5036 O.2       14 UNK        -0.5000 
     84 N           0.1922  -26.8498  -49.1166 N.am      15 UNK        -0.5000 
     85 CA          0.2016  -27.0416  -50.5684 C.3       15 UNK         0.1400 
     86 CB          0.4460  -25.6813  -51.2421 C.3       15 UNK        -0.1800 
     87 C          -1.0910  -27.6755  -51.1196 C.2       15 UNK         0.5000 
     88 O          -1.0742  -28.1852  -52.2407 O.2       15 UNK        -0.5000 
     89 N          -2.1817  -27.6022  -50.3425 N.am      16 UNK        -0.5000 
     90 CA         -3.5637  -27.9356  -50.7039 C.3       16 UNK         0.1400 
     91 CB         -3.7212  -29.4414  -51.0014 C.3       16 UNK        -0.1800 
     92 C          -4.0959  -27.0221  -51.8301 C.2       16 UNK         0.5000 
     93 O          -4.7451  -27.4921  -52.7670 O.2       16 UNK        -0.5000 
     94 N          -3.7847  -25.7246  -51.7190 N.am      17 UNK        -0.5000 
     95 CA         -4.2062  -24.6730  -52.6404 C.3       17 UNK         0.1400 
     96 CB         -3.2484  -23.4788  -52.5044 C.3       17 UNK        -0.1800 
     97 C          -5.6591  -24.2383  -52.3748 C.2       17 UNK         0.5000 
     98 O          -6.1846  -24.4430  -51.2770 O.2       17 UNK        -0.5000 
     99 N          -6.2764  -23.6324  -53.3942 N.am      18 UNK        -0.5000 
    100 CA        -7.6425  -23.1164  -53.3531 C.3       18 UNK         0.1400 
    101 CB        -8.1145  -22.8848  -54.7982 C.3       18 UNK        -0.1800 
    102 C         -7.7544  -21.8078  -52.5503 C.2       18 UNK         0.5000 
    103 O         -6.7705  -21.0767  -52.3985 O.2       18 UNK        -0.5000 
    104 N         -8.9850  -21.4862  -52.1299 N.am      19 UNK        -0.5000 
    105 CA        -9.3540  -20.2119  -51.5009 C.3       19 UNK         0.1400 
    106 CB       -10.7985  -20.3079  -50.9873 C.3       19 UNK        -0.1800 
    107 C         -9.1932  -18.9969  -52.4398 C.2       19 UNK         0.5000 
    108 O         -9.0409  -17.8736  -51.9604 O.2       19 UNK        -0.5000 
    109 N         -9.2023  -19.2505  -53.7571 N.am      20 UNK        -0.5000 
    110 CA        -8.9076  -18.2818  -54.8137 C.3       20 UNK         0.1400 
    111 CB        -9.3039  -18.8925  -56.1670 C.3       20 UNK        -0.1800 
    112 C         -7.4317  -17.8311  -54.8370 C.2       20 UNK         0.5000 
    113 O         -7.1462  -16.7514  -55.3567 O.2       20 UNK        -0.5000 
    114 N         -6.5300  -18.6514  -54.2771 N.am      21 UNK        -0.5000 
    115 CA        -5.1378  -18.3039  -54.0143 C.3       21 UNK         0.1400 
    116 CB        -4.2514  -19.5521  -54.2069 C.3       21 UNK        -0.1800 
    117 C         -5.0630  -17.6883  -52.6052 C.2       21 UNK         0.5000 
    118 O         -5.4018  -16.5143  -52.4475 O.2       21 UNK        -0.5000 
    119 N         -4.6500  -18.4855  -51.6134 N.am      22 UNK        -0.5000 
    120 CA        -4.5814  -18.1046  -50.1917 C.3       22 UNK         0.1400 
    121 C         -5.3138  -19.1111  -49.2573 C.2       22 UNK         0.5000 
    122 N         -5.9991  -20.1323  -49.7604 N.am      22 UNK        -0.7600 
    123 O         -5.2809  -18.9544  -48.0406 O.2       22 UNK        -0.5000 
    124 C124       -3.1236  -17.8316  -49.7248 C.3       23 UNK        -0.0398 
    125 S125       -2.3692  -16.3938  -50.5564 S.3       23 UNK        -0.2404 
    126 C126       -1.2254  -17.1943  -51.7249 C.3       23 UNK        -0.0205 
    127 H127        8.7580  -13.6953  -44.8582 H         1 UNK         0.0600 
    128 H128        7.4453  -13.3453  -43.7299 H         1 UNK         0.0600 
    129 H129        8.0818  -12.0654  -44.7666 H         1 UNK         0.0600 
    130 H130        5.4954  -14.0848  -44.4383 H         1 UNK         0.3000 
    131 H131        3.8338  -14.8542  -45.5766 H         1 UNK         0.0600 
    132 H132        5.2962  -15.0462  -48.2405 H         1 UNK         0.0800 
    133 H133        5.7288  -16.0987  -46.9280 H         1 UNK         0.0800 
    134 H134        4.1058  -16.3211  -49.9832 H         1 UNK         0.0800 
    135 H135        2.8235  -15.2343  -49.4845 H         1 UNK         0.0800 
    136 H136        0.7477  -15.7346  -50.5471 H         1 UNK         0.1150 
    137 H137       -0.3754  -19.7751  -51.4313 H         1 UNK         0.1150 
    138 H138        3.4102  -18.9413  -49.5927 H         1 UNK         0.1150 
    139 H139        0.9010  -21.5960  -50.4078 H         1 UNK         0.0800 
    140 H140        2.2516  -21.2981  -51.4709 H         1 UNK         0.0800 
    141 H141        1.3781  -20.3830  -47.8821 H         1 UNK         0.0800 
    142 H142        2.8199  -20.7457  -46.9909 H         1 UNK         0.0800 
    143 H143        2.1474  -23.1342  -46.7782 H         1 UNK         0.0600 
    144 H144        0.8662  -20.9957  -45.4633 H         1 UNK         0.3000 
    145 H145       -1.1750  -22.8842  -43.2083 H         1 UNK         0.0600 
    146 H146        0.0437  -21.4210  -41.6274 H         1 UNK         0.0600 
    147 H147        1.1017  -22.6997  -42.2039 H         1 UNK         0.0600 
    148 H148        1.2682  -21.0705  -42.8451 H         1 UNK         0.0600 
    149 H149       -0.9180  -20.0822  -43.5882 H         1 UNK         0.3000 
    150 H150       -3.4752  -19.7521  -46.1106 H         1 UNK         0.0600 
    151 H151       -4.5947  -19.8403  -43.8724 H         1 UNK         0.0600 
    152 H152       -4.3374  -18.1887  -44.4119 H         1 UNK         0.0600 
    153 H153       -3.2883  -18.8858  -43.1781 H         1 UNK         0.0600 
    154 H154       -1.8405  -17.7943  -44.8705 H         1 UNK         0.3000 
    155 H155        0.8842  -17.9400  -47.2201 H         1 UNK         0.0600 
    156 H156       -1.2932  -15.8753  -46.6042 H         1 UNK         0.0600 
    157 H157        0.3285  -15.4948  -47.1900 H         1 UNK         0.0600 
    158 H158       -0.7743  -16.4197  -48.1920 H         1 UNK         0.0600 
    159 H159        0.5316  -16.3680  -44.8762 H         1 UNK         0.3000 
    160 H160        1.9786  -18.6492  -42.5406 H         1 UNK         0.0600 
    161 H161        2.9488  -15.9904  -43.7126 H         1 UNK         0.0600 
    162 H162        3.8808  -17.4793  -43.6603 H         1 UNK         0.0600 
    163 H163        3.4240  -16.6793  -42.1632 H         1 UNK         0.0600 
    164 H164        0.8350  -15.9778  -42.4590 H         1 UNK         0.3000 
    165 H165       -2.4215  -17.0385  -41.4433 H         1 UNK         0.0600 
    166 H166       -1.8881  -15.5962  -39.5016 H         1 UNK         0.0600 
    167 H167       -1.0466  -17.1310  -39.3582 H         1 UNK         0.0600 
    168 H168       -0.1640  -15.6944  -39.8614 H         1 UNK         0.0600 
    169 H169       -1.2388  -14.4522  -41.7251 H         1 UNK         0.3000 
    170 H170       -1.8526  -14.0113  -45.1929 H         1 UNK         0.0600 
    171 H171       -4.1268  -13.6717  -44.2034 H         1 UNK         0.0600 
    172 H172       -3.4100  -12.8337  -42.8321 H         1 UNK         0.0600 
    173 H173       -3.2931  -12.1468  -44.4530 H         1 UNK         0.0600 
    174 H174       -1.0630  -12.0565  -43.4171 H         1 UNK         0.3000 
    175 H175        1.0669  -11.6867  -42.5555 H         1 UNK         0.0600 
    176 H176        3.2988  -13.2825  -43.9146 H         1 UNK         0.0600 
    177 H177        3.5283  -11.9238  -42.8216 H         1 UNK         0.0600 
    178 H178        2.8155  -13.4195  -42.2311 H         1 UNK         0.0600 
    179 H179        1.8043  -11.7767  -45.4600 H         1 UNK         0.3000 
    180 H180        0.2424   -9.3321  -46.3584 H         1 UNK         0.0600 
    181 H181        2.6069   -7.6747  -45.3422 H         1 UNK         0.0600 
    182 H182        0.9023   -7.2732  -45.2101 H         1 UNK         0.0600 
    183 H183        1.6671   -7.3092  -46.7889 H         1 UNK         0.0600 
    184 H184        1.5896  -10.3812  -47.7342 H         1 UNK         0.3000 
    185 H185        3.2410  -11.2276  -48.7885 H         1 UNK         0.0600 
    186 H186        4.8258   -9.3243  -49.1786 H         1 UNK         0.0600 
    187 H187        5.9977  -10.0730  -48.0996 H         1 UNK         0.0600 
    188 H188        5.5462  -10.8693  -49.6059 H         1 UNK         0.0600 
    189 H189        5.5223  -12.4095  -47.5258 H         1 UNK         0.3000 
    190 H190       -0.9266  -21.4310  -47.6334 H         1 UNK         0.3000 
    191 H191       -1.5901  -23.0253  -49.8486 H         1 UNK         0.0600 
    192 H192       -3.3478  -21.4222  -47.9267 H         1 UNK         0.0600 
    193 H193       -3.9318  -22.1296  -49.4245 H         1 UNK         0.0600 
    194 H194       -2.6803  -20.8994  -49.4714 H         1 UNK         0.0600 
    195 H195       -2.4423  -23.5098  -46.3930 H         1 UNK         0.3000 
    196 H196       -4.0531  -25.8142  -46.7451 H         1 UNK         0.0600 
    197 H197       -3.6225  -26.1643  -44.3078 H         1 UNK         0.0600 
    198 H198       -4.0256  -24.4896  -44.6553 H         1 UNK         0.0600 
    199 H199       -2.3525  -24.9471  -44.3472 H         1 UNK         0.0600 
    200 H200       -0.5134  -25.5031  -46.2074 H         1 UNK         0.3000 
    201 H201        0.0420  -28.3086  -46.1453 H         1 UNK         0.0600 
    202 H202        1.5728  -26.6207  -45.1808 H         1 UNK         0.0600 
    203 H203        1.8603  -25.9223  -46.7720 H         1 UNK         0.0600 
    204 H204        2.4085  -27.5554  -46.4124 H         1 UNK         0.0600 
    205 H205        0.1245  -25.8882  -48.7888 H         1 UNK         0.3000 
    206 H206        1.0304  -27.7048  -50.8243 H         1 UNK         0.0600 
    207 H207        1.3865  -25.2397  -50.9119 H         1 UNK         0.0600 
    208 H208        0.4973  -25.7827  -52.3269 H         1 UNK         0.0600 
    209 H209       -0.3529  -24.9740  -51.0156 H         1 UNK         0.0600 
    210 H210       -2.0821  -27.1055  -49.4662 H         1 UNK         0.3000 
    211 H211       -4.1663  -27.7116  -49.8224 H         1 UNK         0.0600 
    212 H212       -3.2014  -29.7351  -51.9135 H         1 UNK         0.0600 
    213 H213       -4.7721  -29.7039  -51.1276 H         1 UNK         0.0600 
    214 H214       -3.3317  -30.0466  -50.1827 H         1 UNK         0.0600 
    215 H215       -3.3310  -25.4224  -50.8599 H         1 UNK         0.3000 
    216 H216       -4.1372  -25.0574  -53.6603 H         1 UNK         0.0600 
    217 H217       -3.4639  -22.7163  -53.2536 H         1 UNK         0.0600 
    218 H218       -2.2105  -23.7837  -52.6405 H         1 UNK         0.0600 
    219 H219       -3.3360  -23.0072  -51.5275 H         1 UNK         0.0600 
    220 H220       -5.7630  -23.4644  -54.2466 H         1 UNK         0.3000 
    221 H221       -8.2853  -23.8669  -52.8879 H         1 UNK         0.0600 
    222 H222       -7.5131  -22.1268  -55.3025 H         1 UNK         0.0600 
    223 H223       -8.0550  -23.8025  -55.3837 H         1 UNK         0.0600 
    224 H224       -9.1532  -22.5537  -54.8284 H         1 UNK         0.0600 
    225 H225       -9.7414  -22.1352  -52.2941 H         1 UNK         0.3000 
    226 H226       -8.6968  -20.0525  -50.6442 H         1 UNK         0.0600 
    227 H227      -10.9075  -21.1168  -50.2647 H         1 UNK         0.0600 
    228 H228      -11.0975  -19.3856  -50.4873 H         1 UNK         0.0600 
    229 H229      -11.5042  -20.4843  -51.8001 H         1 UNK         0.0600 
    230 H230       -9.3640  -20.2008  -54.0533 H         1 UNK         0.3000 
    231 H231       -9.5208  -17.3946  -54.6427 H         1 UNK         0.0600 
    232 H232       -9.1266  -18.1878  -56.9805 H         1 UNK         0.0600 
    233 H233      -10.3626  -19.1516  -56.1889 H         1 UNK         0.0600 
    234 H234       -8.7315  -19.7953  -56.3844 H         1 UNK         0.0600 
    235 H235       -6.8589  -19.4965  -53.8271 H         1 UNK         0.3000 
    236 H236       -4.7965  -17.5452  -54.7216 H         1 UNK         0.0600 
    237 H237       -4.2886  -19.8944  -55.2411 H         1 UNK         0.0600 
    238 H238       -3.2078  -19.3297  -53.9809 H         1 UNK         0.0600 
    239 H239       -4.5577  -20.3873  -53.5781 H         1 UNK         0.0600 
    240 H240       -4.4150  -19.4437  -51.8258 H         1 UNK         0.3000 
    241 H241       -5.1414  -17.1788  -50.0486 H         1 UNK         0.0600 
    242 H242       -6.1036  -20.2881  -50.7571 H         1 UNK         0.3800 
    243 H243       -6.4573  -20.7574  -49.1183 H         1 UNK         0.3800 
    244 H244       -3.0963  -17.6235  -48.6540 H         1 UNK         0.0800 
    245 H245       -2.4949  -18.7083  -49.8732 H         1 UNK         0.0800 
    246 H246       -0.9516  -16.4686  -52.4917 H         1 UNK         0.0800 
    247 H247       -1.7439  -18.0009  -52.2447 H         1 UNK         0.0800 
@<TRIPOS>BOND
     1    1    2 1    
     2    1  127 1    
     3    1  128 1    
     4    1  129 1    
     5    2    3 2    
     6    2    4 am   BACKBONE|DICT|INTERRES
     7    4    5 1    
     8    4  130 1    
     9    5    6 1    
    10    5   65 1    
    11    5  131 1    
    12    6    7 1    
    13    6  132 1    
    14    6  133 1    
    15    7    8 1    
    16    8    9 1    
    17    8  134 1    
    18    8  135 1    
    19    9   10 ar   
    20    9   14 ar   
    21   10   11 ar   
    22   10  136 1    
    23   11   12 ar   
    24   11  126 1    
    25   12   13 ar   
    26   12  137 1    
    27   13   14 ar   
    28   13   15 1    
    29   14  138 1    
    30   15   16 1    
    31   15  139 1    
    32   15  140 1    
    33   16   17 1    
    34   17   18 1    
    35   17  141 1    
    36   17  142 1    
    37   18   19 1    
    38   18   67 1    
    39   18  143 1    
    40   19   20 am   BACKBONE|DICT|INTERRES
    41   19  144 1    
    42   20   21 2    
    43   20   22 1    
    44   22   23 1    
    45   22   24 1    
    46   22  145 1    
    47   23  146 1    
    48   23  147 1    
    49   23  148 1    
    50   24   25 am   BACKBONE|DICT|INTERRES
    51   24  149 1    
    52   25   26 2    
    53   25   27 1    
    54   27   28 1    
    55   27   29 1    
    56   27  150 1    
    57   28  151 1    
    58   28  152 1    
    59   28  153 1    
    60   29   30 am   BACKBONE|DICT|INTERRES
    61   29  154 1    
    62   30   31 2    
    63   30   32 1    
    64   32   33 1    
    65   32   34 1    
    66   32  155 1    
    67   33  156 1    
    68   33  157 1    
    69   33  158 1    
    70   34   35 am   BACKBONE|DICT|INTERRES
    71   34  159 1    
    72   35   36 2    
    73   35   37 1    
    74   37   38 1    
    75   37   39 1    
    76   37  160 1    
    77   38  161 1    
    78   38  162 1    
    79   38  163 1    
    80   39   40 am   BACKBONE|DICT|INTERRES
    81   39  164 1    
    82   40   41 2    
    83   40   42 1    
    84   42   43 1    
    85   42   44 1    
    86   42  165 1    
    87   43  166 1    
    88   43  167 1    
    89   43  168 1    
    90   44   45 am   BACKBONE|DICT|INTERRES
    91   44  169 1    
    92   45   46 2    
    93   45   47 1    
    94   47   48 1    
    95   47   49 1    
    96   47  170 1    
    97   48  171 1    
    98   48  172 1    
    99   48  173 1    
   100   49   50 am   BACKBONE|DICT|INTERRES
   101   49  174 1    
   102   50   51 2    
   103   50   52 1    
   104   52   53 1    
   105   52   54 1    
   106   52  175 1    
   107   53  176 1    
   108   53  177 1    
   109   53  178 1    
   110   54   55 am   BACKBONE|DICT|INTERRES
   111   54  179 1    
   112   55   56 2    
   113   55   57 1    
   114   57   58 1    
   115   57   59 1    
   116   57  180 1    
   117   58  181 1    
   118   58  182 1    
   119   58  183 1    
   120   59   60 am   BACKBONE|DICT|INTERRES
   121   59  184 1    
   122   60   61 2    
   123   60   62 1    
   124   62   63 1    
   125   62   64 1    
   126   62  185 1    
   127   63  186 1    
   128   63  187 1    
   129   63  188 1    
   130   64   65 am   BACKBONE|DICT|INTERRES
   131   64  189 1    
   132   65   66 2    
   133   67   68 2    
   134   67   69 am   BACKBONE|DICT|INTERRES
   135   69   70 1    
   136   69  190 1    
   137   70   71 1    
   138   70   72 1    
   139   70  191 1    
   140   71  192 1    
   141   71  193 1    
   142   71  194 1    
   143   72   73 2    
   144   72   74 am   BACKBONE|DICT|INTERRES
   145   74   75 1    
   146   74  195 1    
   147   75   76 1    
   148   75   77 1    
   149   75  196 1    
   150   76  197 1    
   151   76  198 1    
   152   76  199 1    
   153   77   78 2    
   154   77   79 am   BACKBONE|DICT|INTERRES
   155   79   80 1    
   156   79  200 1    
   157   80   81 1    
   158   80   82 1    
   159   80  201 1    
   160   81  202 1    
   161   81  203 1    
   162   81  204 1    
   163   82   83 2    
   164   82   84 am   BACKBONE|DICT|INTERRES
   165   84   85 1    
   166   84  205 1    
   167   85   86 1    
   168   85   87 1    
   169   85  206 1    
   170   86  207 1    
   171   86  208 1    
   172   86  209 1    
   173   87   88 2    
   174   87   89 am   BACKBONE|DICT|INTERRES
   175   89   90 1    
   176   89  210 1    
   177   90   91 1    
   178   90   92 1    
   179   90  211 1    
   180   91  212 1    
   181   91  213 1    
   182   91  214 1    
   183   92   93 2    
   184   92   94 am   BACKBONE|DICT|INTERRES
   185   94   95 1    
   186   94  215 1    
   187   95   96 1    
   188   95   97 1    
   189   95  216 1    
   190   96  217 1    
   191   96  218 1    
   192   96  219 1    
   193   97   98 2    
   194   97   99 am   BACKBONE|DICT|INTERRES
   195   99  100 1    
   196   99  220 1    
   197  100  101 1    
   198  100  102 1    
   199  100  221 1    
   200  101  222 1    
   201  101  223 1    
   202  101  224 1    
   203  102  103 2    
   204  102  104 am   BACKBONE|DICT|INTERRES
   205  104  105 1    
   206  104  225 1    
   207  105  106 1    
   208  105  107 1    
   209  105  226 1    
   210  106  227 1    
   211  106  228 1    
   212  106  229 1    
   213  107  108 2    
   214  107  109 am   BACKBONE|DICT|INTERRES
   215  109  110 1    
   216  109  230 1    
   217  110  111 1    
   218  110  112 1    
   219  110  231 1    
   220  111  232 1    
   221  111  233 1    
   222  111  234 1    
   223  112  113 2    
   224  112  114 am   BACKBONE|DICT|INTERRES
   225  114  115 1    
   226  114  235 1    
   227  115  116 1    
   228  115  117 1    
   229  115  236 1    
   230  116  237 1    
   231  116  238 1    
   232  116  239 1    
   233  117  118 2    
   234  117  119 am   BACKBONE|DICT|INTERRES
   235  119  120 1    
   236  119  240 1    
   237  120  121 1    
   238  120  124 1    
   239  120  241 1    
   240  121  122 am   BACKBONE|DICT|INTERRES
   241  121  123 2    
   242  122  242 1    
   243  122  243 1    
   244  124  125 1    
   245  124  244 1    
   246  124  245 1    
   247  125  126 1    
   248  126  246 1    
   249  126  247 1    
@<TRIPOS>SUBSTRUCTURE
     1 UNK         1 GROUP             0       ****    0 ROOT    
