@<TRIPOS>MOLECULE
3R540
247   249    1
SMALL
USER_CHARGES


@<TRIPOS>ATOM
      1 CA         -4.7030   -9.5825  -47.4868 C.3       0 UNK        -0.1800 
      2 C          -3.6472  -10.2600  -48.3496 C.2       0 UNK         0.5000 
      3 O          -3.2844   -9.7319  -49.4014 O.2       0 UNK        -0.5000 
      4 N          -3.1627  -11.4292  -47.9127 N.am      1 UNK        -0.5000 
      5 CA         -2.0946  -12.1939  -48.5655 C.3       1 UNK         0.1400 
      6 C6         -2.0412  -13.6595  -48.0483 C.3       23 UNK        -0.0398 
      7 S7         -1.7586  -14.8340  -49.4108 S.3       23 UNK        -0.2404 
      8 C8         -0.1478  -15.5961  -49.0218 C.3       23 UNK        -0.0205 
      9 C9          0.2329  -16.6712  -50.0374 C.ar      23 UNK        -0.0193 
     10 C10         0.1663  -16.3992  -51.4081 C.ar      23 UNK        -0.1150 
     11 C11         0.5327  -17.3635  -52.3479 C.ar      23 UNK        -0.0193 
     12 C12         0.9890  -18.6065  -51.9059 C.ar      23 UNK        -0.1150 
     13 C13         1.0642  -18.9073  -50.5436 C.ar      23 UNK        -0.0193 
     14 C14         0.6808  -17.9286  -49.6118 C.ar      23 UNK        -0.1150 
     15 C15         1.6056  -20.2886  -50.1615 C.3       23 UNK        -0.0205 
     16 S16         1.6183  -20.6960  -48.3834 S.3       23 UNK        -0.2404 
     17 C17        -0.1043  -21.2210  -48.1009 C.3       23 UNK        -0.0398 
     18 CA         -0.1833  -22.5802  -47.3625 C.3       11 UNK         0.1400 
     19 N           0.2782  -22.4830  -45.9718 N.am      11 UNK        -0.5000 
     20 C           0.3852  -23.5081  -45.1143 C.2       10 UNK         0.5000 
     21 O           0.1650  -24.6789  -45.4181 O.2       10 UNK        -0.5000 
     22 CA          0.7449  -23.1705  -43.6566 C.3       10 UNK         0.1400 
     23 CB          2.2606  -22.9872  -43.4899 C.3       10 UNK        -0.1800 
     24 N           0.0363  -21.9902  -43.1595 N.am      10 UNK        -0.5000 
     25 C          -1.2929  -21.9148  -42.9996 C.2       9 UNK         0.5000 
     26 O          -2.0585  -22.8544  -43.2134 O.2       9 UNK        -0.5000 
     27 CA         -1.8737  -20.5511  -42.5783 C.3       9 UNK         0.1400 
     28 CB         -1.7009  -20.3175  -41.0706 C.3       9 UNK        -0.1800 
     29 N          -1.2892  -19.4361  -43.3243 N.am      9 UNK        -0.5000 
     30 C          -1.4055  -19.2769  -44.6506 C.2       8 UNK         0.5000 
     31 O          -2.0673  -20.0216  -45.3749 O.2       8 UNK        -0.5000 
     32 CA         -0.6033  -18.1239  -45.2827 C.3       8 UNK         0.1400 
     33 CB         -1.3866  -16.8068  -45.1872 C.3       8 UNK        -0.1800 
     34 N           0.7306  -17.9610  -44.6957 N.am      8 UNK        -0.5000 
     35 C           1.6754  -18.9140  -44.6950 C.2       7 UNK         0.5000 
     36 O           1.5272  -20.0182  -45.2125 O.2       7 UNK        -0.5000 
     37 CA          2.9749  -18.6172  -43.9280 C.3       7 UNK         0.1400 
     38 CB          3.8143  -17.5504  -44.6405 C.3       7 UNK        -0.1800 
     39 N           2.7157  -18.2021  -42.5502 N.am      7 UNK        -0.5000 
     40 C           2.1560  -18.9832  -41.6153 C.2       6 UNK         0.5000 
     41 O           1.8519  -20.1602  -41.8016 O.2       6 UNK        -0.5000 
     42 CA          1.8508  -18.3364  -40.2507 C.3       6 UNK         0.1400 
     43 CB          3.0250  -18.5461  -39.2833 C.3       6 UNK        -0.1800 
     44 N           1.5383  -16.9068  -40.3251 N.am      6 UNK        -0.5000 
     45 C           0.5239  -16.3682  -41.0154 C.2       5 UNK         0.5000 
     46 O          -0.2604  -17.0326  -41.6987 O.2       5 UNK        -0.5000 
     47 CA          0.3690  -14.8382  -40.9557 C.3       5 UNK         0.1400 
     48 CB          1.6027  -14.0911  -40.4029 C.3       5 UNK        -0.1800 
     49 N           0.0641  -14.3616  -42.2973 N.am      5 UNK        -0.5000 
     50 C          -0.6384  -13.2741  -42.6139 C.2       4 UNK         0.5000 
     51 O          -1.0896  -12.4883  -41.7783 O.2       4 UNK        -0.5000 
     52 CA         -0.8628  -13.0317  -44.1235 C.3       4 UNK         0.1400 
     53 CB         -1.8109  -11.8484  -44.3855 C.3       4 UNK        -0.1800 
     54 N           0.3784  -12.8090  -44.8737 N.am      4 UNK        -0.5000 
     55 C           1.3425  -13.7059  -45.1276 C.2       3 UNK         0.5000 
     56 O           1.2973  -14.8838  -44.7646 O.2       3 UNK        -0.5000 
     57 CA          2.5111  -13.1951  -45.9856 C.3       3 UNK         0.1400 
     58 CB          3.6217  -14.2362  -46.2096 C.3       3 UNK        -0.1800 
     59 N           1.9721  -12.7693  -47.2710 N.am      3 UNK        -0.5000 
     60 C           2.4111  -11.7409  -48.0052 C.2       2 UNK         0.5000 
     61 O           3.3869  -11.0521  -47.7053 O.2       2 UNK        -0.5000 
     62 CA          1.6166  -11.4165  -49.2893 C.3       2 UNK         0.1400 
     63 CB          2.3284  -12.0040  -50.5180 C.3       2 UNK        -0.1800 
     64 N           0.2288  -11.8954  -49.2794 N.am      2 UNK        -0.5000 
     65 C          -0.7214  -11.5020  -48.4205 C.2       1 UNK         0.5000 
     66 O          -0.5279  -10.6824  -47.5189 O.2       1 UNK        -0.5000 
     67 C          -1.6051  -23.1724  -47.4448 C.2       11 UNK         0.5000 
     68 O          -1.8274  -24.1186  -48.2021 O.2       11 UNK        -0.5000 
     69 N          -2.5269  -22.6463  -46.6249 N.am      12 UNK        -0.5000 
     70 CA         -3.8946  -23.1468  -46.4907 C.3       12 UNK         0.1400 
     71 CB         -4.7067  -22.1973  -45.5980 C.3       12 UNK        -0.1800 
     72 C          -3.9578  -24.5960  -45.9718 C.2       12 UNK         0.5000 
     73 O          -4.6720  -25.4117  -46.5554 O.2       12 UNK        -0.5000 
     74 N          -3.1820  -24.9048  -44.9223 N.am      13 UNK        -0.5000 
     75 CA         -3.0780  -26.2398  -44.3232 C.3       13 UNK         0.1400 
     76 CB         -2.2440  -26.1614  -43.0359 C.3       13 UNK        -0.1800 
     77 C          -2.4988  -27.3010  -45.2795 C.2       13 UNK         0.5000 
     78 O          -2.9438  -28.4489  -45.2552 O.2       13 UNK        -0.5000 
     79 N          -1.5446  -26.8925  -46.1259 N.am      14 UNK        -0.5000 
     80 CA         -0.9371  -27.7108  -47.1775 C.3       14 UNK         0.1400 
     81 CB          0.3941  -27.0643  -47.5954 C.3       14 UNK        -0.1800 
     82 C          -1.8424  -27.9137  -48.4110 C.2       14 UNK         0.5000 
     83 O          -1.4695  -28.6796  -49.3006 O.2       14 UNK        -0.5000 
     84 N          -2.9890  -27.2173  -48.4600 N.am      15 UNK        -0.5000 
     85 CA         -3.9508  -27.1570  -49.5665 C.3       15 UNK         0.1400 
     86 CB         -4.5770  -28.5385  -49.8494 C.3       15 UNK        -0.1800 
     87 C          -3.3779  -26.4782  -50.8297 C.2       15 UNK         0.5000 
     88 O          -3.8483  -26.7330  -51.9392 O.2       15 UNK        -0.5000 
     89 N          -2.4026  -25.5850  -50.6305 N.am      16 UNK        -0.5000 
     90 CA         -1.8100  -24.7068  -51.6338 C.3       16 UNK         0.1400 
     91 CB         -0.2774  -24.7973  -51.5085 C.3       16 UNK        -0.1800 
     92 C          -2.3479  -23.2903  -51.3707 C.2       16 UNK         0.5000 
     93 O          -1.5669  -22.3748  -51.1132 O.2       16 UNK        -0.5000 
     94 N          -3.6877  -23.1865  -51.3541 N.am      17 UNK        -0.5000 
     95 CA         -4.5039  -22.1114  -50.7839 C.3       17 UNK         0.1400 
     96 CB         -5.9516  -22.2606  -51.2748 C.3       17 UNK        -0.1800 
     97 C          -3.9807  -20.6908  -51.0477 C.2       17 UNK         0.5000 
     98 O          -3.8679  -20.2886  -52.2076 O.2       17 UNK        -0.5000 
     99 N          -3.6645  -19.9850  -49.9556 N.am      18 UNK        -0.5000 
    100 CA        -3.0738  -18.6499  -49.9116 C.3       18 UNK         0.1400 
    101 CB        -2.9929  -18.2300  -48.4350 C.3       18 UNK        -0.1800 
    102 C         -3.8697  -17.6327  -50.7510 C.2       18 UNK         0.5000 
    103 O         -5.0533  -17.4205  -50.4793 O.2       18 UNK        -0.5000 
    104 N         -3.2250  -17.0913  -51.7941 N.am      19 UNK        -0.5000 
    105 CA        -3.7380  -16.1898  -52.8382 C.3       19 UNK         0.1400 
    106 CB        -4.2616  -14.8667  -52.2465 C.3       19 UNK        -0.1800 
    107 C         -4.7804  -16.8140  -53.7912 C.2       19 UNK         0.5000 
    108 O         -4.7966  -16.4655  -54.9723 O.2       19 UNK        -0.5000 
    109 N         -5.6355  -17.7048  -53.2767 N.am      20 UNK        -0.5000 
    110 CA        -6.7222  -18.3609  -54.0010 C.3       20 UNK         0.1400 
    111 CB        -7.6604  -19.0304  -52.9863 C.3       20 UNK        -0.1800 
    112 C         -6.2451  -19.3815  -55.0504 C.2       20 UNK         0.5000 
    113 O         -6.9051  -19.5309  -56.0802 O.2       20 UNK        -0.5000 
    114 N         -5.1265  -20.0639  -54.7773 N.am      21 UNK        -0.5000 
    115 CA        -4.5389  -21.0741  -55.6576 C.3       21 UNK         0.1400 
    116 CB        -5.0033  -22.4747  -55.2233 C.3       21 UNK        -0.1800 
    117 C         -3.0061  -20.9975  -55.6789 C.2       21 UNK         0.5000 
    118 O         -2.4133  -21.1835  -56.7416 O.2       21 UNK        -0.5000 
    119 N         -2.3937  -20.7472  -54.5141 N.am      22 UNK        -0.5000 
    120 CA        -0.9417  -20.6556  -54.2734 C.3       22 UNK         0.1400 
    121 C         -0.1482  -21.9903  -54.4265 C.2       22 UNK         0.5000 
    122 N         -0.7744  -23.1184  -54.7396 N.am      22 UNK        -0.7600 
    123 O          1.0634  -22.0102  -54.2285 O.2       22 UNK        -0.5000 
    124 C124       -0.2643  -19.4981  -55.0610 C.3       23 UNK        -0.0398 
    125 S125       -0.9487  -17.8549  -54.6511 S.3       23 UNK        -0.2404 
    126 C126        0.4654  -17.0455  -53.8348 C.3       23 UNK        -0.0205 
    127 H127       -4.9255  -10.1601  -46.5892 H         1 UNK         0.0600 
    128 H128       -5.6276   -9.4607  -48.0510 H         1 UNK         0.0600 
    129 H129       -4.3577   -8.5958  -47.1783 H         1 UNK         0.0600 
    130 H130       -3.4961  -11.7966  -47.0342 H         1 UNK         0.3000 
    131 H131       -2.3395  -12.2010  -49.6304 H         1 UNK         0.0600 
    132 H132       -1.3059  -13.8021  -47.2544 H         1 UNK         0.0800 
    133 H133       -2.9979  -13.9430  -47.6071 H         1 UNK         0.0800 
    134 H134        0.6294  -14.8325  -49.0175 H         1 UNK         0.0800 
    135 H135       -0.1848  -16.0178  -48.0171 H         1 UNK         0.0800 
    136 H136       -0.1693  -15.4282  -51.7446 H         1 UNK         0.1150 
    137 H137        1.3009  -19.3480  -52.6268 H         1 UNK         0.1150 
    138 H138        0.7450  -18.1288  -48.5528 H         1 UNK         0.1150 
    139 H139        1.0522  -21.0590  -50.7020 H         1 UNK         0.0800 
    140 H140        2.6348  -20.3523  -50.5170 H         1 UNK         0.0800 
    141 H141       -0.6200  -21.2660  -49.0593 H         1 UNK         0.0800 
    142 H142       -0.6085  -20.4433  -47.5306 H         1 UNK         0.0800 
    143 H143        0.4771  -23.2838  -47.8739 H         1 UNK         0.0600 
    144 H144        0.5540  -21.5568  -45.6524 H         1 UNK         0.3000 
    145 H145        0.4439  -24.0186  -43.0387 H         1 UNK         0.0600 
    146 H146        2.5253  -22.8346  -42.4436 H         1 UNK         0.0600 
    147 H147        2.8003  -23.8693  -43.8367 H         1 UNK         0.0600 
    148 H148        2.6312  -22.1327  -44.0557 H         1 UNK         0.0600 
    149 H149        0.6094  -21.1843  -42.9281 H         1 UNK         0.3000 
    150 H150       -2.9438  -20.5660  -42.7956 H         1 UNK         0.0600 
    151 H151       -2.2090  -21.0939  -40.4976 H         1 UNK         0.0600 
    152 H152       -2.1222  -19.3587  -40.7675 H         1 UNK         0.0600 
    153 H153       -0.6520  -20.3307  -40.7778 H         1 UNK         0.0600 
    154 H154       -0.7517  -18.7551  -42.7985 H         1 UNK         0.3000 
    155 H155       -0.4678  -18.3579  -46.3398 H         1 UNK         0.0600 
    156 H156       -1.4907  -16.4748  -44.1538 H         1 UNK         0.0600 
    157 H157       -0.8946  -16.0148  -45.7490 H         1 UNK         0.0600 
    158 H158       -2.3900  -16.9169  -45.6004 H         1 UNK         0.0600 
    159 H159        0.9350  -17.0651  -44.2742 H         1 UNK         0.3000 
    160 H160        3.5586  -19.5399  -43.8984 H         1 UNK         0.0600 
    161 H161        4.7929  -17.4404  -44.1733 H         1 UNK         0.0600 
    162 H162        3.3197  -16.5821  -44.6131 H         1 UNK         0.0600 
    163 H163        3.9782  -17.8107  -45.6872 H         1 UNK         0.0600 
    164 H164        2.9276  -17.2449  -42.3122 H         1 UNK         0.3000 
    165 H165        0.9762  -18.8413  -39.8370 H         1 UNK         0.0600 
    166 H166        2.7859  -18.1774  -38.2856 H         1 UNK         0.0600 
    167 H167        3.2669  -19.6055  -39.1868 H         1 UNK         0.0600 
    168 H168        3.9251  -18.0337  -39.6252 H         1 UNK         0.0600 
    169 H169        2.1391  -16.2897  -39.7982 H         1 UNK         0.3000 
    170 H170       -0.4838  -14.6384  -40.3040 H         1 UNK         0.0600 
    171 H171        1.4402  -13.0132  -40.4035 H         1 UNK         0.0600 
    172 H172        2.4947  -14.2885  -40.9989 H         1 UNK         0.0600 
    173 H173        1.8134  -14.3747  -39.3712 H         1 UNK         0.0600 
    174 H174        0.4191  -14.9297  -43.0607 H         1 UNK         0.3000 
    175 H175       -1.3422  -13.9272  -44.5213 H         1 UNK         0.0600 
    176 H176       -2.0165  -11.7377  -45.4473 H         1 UNK         0.0600 
    177 H177       -1.3893  -10.9076  -44.0295 H         1 UNK         0.0600 
    178 H178       -2.7690  -11.9925  -43.8843 H         1 UNK         0.0600 
    179 H179        0.5067  -11.8707  -45.2270 H         1 UNK         0.3000 
    180 H180        2.9408  -12.3384  -45.4620 H         1 UNK         0.0600 
    181 H181        3.2372  -15.1442  -46.6759 H         1 UNK         0.0600 
    182 H182        4.0882  -14.5111  -45.2638 H         1 UNK         0.0600 
    183 H183        4.4094  -13.8407  -46.8510 H         1 UNK         0.0600 
    184 H184        1.1483  -13.2588  -47.5835 H         1 UNK         0.3000 
    185 H185        1.5932  -10.3296  -49.3912 H         1 UNK         0.0600 
    186 H186        2.3559  -13.0941  -50.4842 H         1 UNK         0.0600 
    187 H187        1.8311  -11.7086  -51.4421 H         1 UNK         0.0600 
    188 H188        3.3590  -11.6516  -50.5793 H         1 UNK         0.0600 
    189 H189       -0.0126  -12.5690  -49.9925 H         1 UNK         0.3000 
    190 H190       -2.2719  -21.8577  -46.0362 H         1 UNK         0.3000 
    191 H191       -4.3463  -23.1394  -47.4838 H         1 UNK         0.0600 
    192 H192       -4.7317  -21.1903  -46.0150 H         1 UNK         0.0600 
    193 H193       -5.7388  -22.5370  -45.5029 H         1 UNK         0.0600 
    194 H194       -4.2886  -22.1301  -44.5936 H         1 UNK         0.0600 
    195 H195       -2.6495  -24.1644  -44.4721 H         1 UNK         0.3000 
    196 H196       -4.0869  -26.5582  -44.0532 H         1 UNK         0.0600 
    197 H197       -2.1775  -27.1368  -42.5525 H         1 UNK         0.0600 
    198 H198       -2.6895  -25.4724  -42.3182 H         1 UNK         0.0600 
    199 H199       -1.2270  -25.8244  -43.2373 H         1 UNK         0.0600 
    200 H200       -1.1805  -25.9485  -46.0272 H         1 UNK         0.3000 
    201 H201       -0.7220  -28.6992  -46.7666 H         1 UNK         0.0600 
    202 H202        1.0732  -26.9772  -46.7472 H         1 UNK         0.0600 
    203 H203        0.2424  -26.0656  -48.0070 H         1 UNK         0.0600 
    204 H204        0.9018  -27.6593  -48.3556 H         1 UNK         0.0600 
    205 H205       -3.2027  -26.6117  -47.6765 H         1 UNK         0.3000 
    206 H206       -4.7535  -26.5042  -49.2207 H         1 UNK         0.0600 
    207 H207       -4.9620  -28.9913  -48.9357 H         1 UNK         0.0600 
    208 H208       -5.4130  -28.4523  -50.5444 H         1 UNK         0.0600 
    209 H209       -3.8590  -29.2296  -50.2912 H         1 UNK         0.0600 
    210 H210       -2.1458  -25.3629  -49.6718 H         1 UNK         0.3000 
    211 H211       -2.0996  -25.0017  -52.6442 H         1 UNK         0.0600 
    212 H212        0.0624  -24.5074  -50.5131 H         1 UNK         0.0600 
    213 H213        0.2175  -24.1435  -52.2266 H         1 UNK         0.0600 
    214 H214        0.0719  -25.8125  -51.6968 H         1 UNK         0.0600 
    215 H215       -4.2018  -24.0149  -51.6149 H         1 UNK         0.3000 
    216 H216       -4.5061  -22.2795  -49.7061 H         1 UNK         0.0600 
    217 H217       -6.6011  -21.5276  -50.7953 H         1 UNK         0.0600 
    218 H218       -6.3519  -23.2467  -51.0391 H         1 UNK         0.0600 
    219 H219       -6.0311  -22.1148  -52.3523 H         1 UNK         0.0600 
    220 H220       -3.8269  -20.4082  -49.0550 H         1 UNK         0.3000 
    221 H221       -2.0600  -18.7282  -50.3084 H         1 UNK         0.0600 
    222 H222       -3.9829  -18.1285  -47.9887 H         1 UNK         0.0600 
    223 H223       -2.4388  -18.9607  -47.8487 H         1 UNK         0.0600 
    224 H224       -2.4834  -17.2780  -48.3158 H         1 UNK         0.0600 
    225 H225       -2.2668  -17.3779  -51.9402 H         1 UNK         0.3000 
    226 H226       -2.8747  -15.9393  -53.4555 H         1 UNK         0.0600 
    227 H227       -3.4806  -14.3424  -51.6987 H         1 UNK         0.0600 
    228 H228       -4.6009  -14.1958  -53.0367 H         1 UNK         0.0600 
    229 H229       -5.1030  -15.0211  -51.5712 H         1 UNK         0.0600 
    230 H230       -5.5634  -17.8925  -52.2818 H         1 UNK         0.3000 
    231 H231       -7.2877  -17.5893  -54.5275 H         1 UNK         0.0600 
    232 H232       -7.1359  -19.7780  -52.3920 H         1 UNK         0.0600 
    233 H233       -8.4904  -19.5298  -53.4879 H         1 UNK         0.0600 
    234 H234       -8.0873  -18.2979  -52.3010 H         1 UNK         0.0600 
    235 H235       -4.6520  -19.8904  -53.8959 H         1 UNK         0.3000 
    236 H236       -4.8724  -20.9054  -56.6838 H         1 UNK         0.0600 
    237 H237       -6.0906  -22.5517  -55.2334 H         1 UNK         0.0600 
    238 H238       -4.6169  -23.2401  -55.8973 H         1 UNK         0.0600 
    239 H239       -4.6583  -22.7183  -54.2181 H         1 UNK         0.0600 
    240 H240       -2.9604  -20.6313  -53.6763 H         1 UNK         0.3000 
    241 H241       -0.8596  -20.4201  -53.2119 H         1 UNK         0.0600 
    242 H242       -1.7566  -23.1109  -54.9565 H         1 UNK         0.3800 
    243 H243       -0.2391  -23.9653  -54.8440 H         1 UNK         0.3800 
    244 H244        0.8114  -19.4861  -54.8847 H         1 UNK         0.0800 
    245 H245       -0.3729  -19.6518  -56.1349 H         1 UNK         0.0800 
    246 H246        0.3687  -15.9686  -53.9811 H         1 UNK         0.0800 
    247 H247        1.4008  -17.3255  -54.3210 H         1 UNK         0.0800 
@<TRIPOS>BOND
     1    1    2 1    
     2    1  127 1    
     3    1  128 1    
     4    1  129 1    
     5    2    3 2    
     6    2    4 am   BACKBONE|DICT|INTERRES
     7    4    5 1    
     8    4  130 1    
     9    5    6 1    
    10    5   65 1    
    11    5  131 1    
    12    6    7 1    
    13    6  132 1    
    14    6  133 1    
    15    7    8 1    
    16    8    9 1    
    17    8  134 1    
    18    8  135 1    
    19    9   10 ar   
    20    9   14 ar   
    21   10   11 ar   
    22   10  136 1    
    23   11   12 ar   
    24   11  126 1    
    25   12   13 ar   
    26   12  137 1    
    27   13   14 ar   
    28   13   15 1    
    29   14  138 1    
    30   15   16 1    
    31   15  139 1    
    32   15  140 1    
    33   16   17 1    
    34   17   18 1    
    35   17  141 1    
    36   17  142 1    
    37   18   19 1    
    38   18   67 1    
    39   18  143 1    
    40   19   20 am   BACKBONE|DICT|INTERRES
    41   19  144 1    
    42   20   21 2    
    43   20   22 1    
    44   22   23 1    
    45   22   24 1    
    46   22  145 1    
    47   23  146 1    
    48   23  147 1    
    49   23  148 1    
    50   24   25 am   BACKBONE|DICT|INTERRES
    51   24  149 1    
    52   25   26 2    
    53   25   27 1    
    54   27   28 1    
    55   27   29 1    
    56   27  150 1    
    57   28  151 1    
    58   28  152 1    
    59   28  153 1    
    60   29   30 am   BACKBONE|DICT|INTERRES
    61   29  154 1    
    62   30   31 2    
    63   30   32 1    
    64   32   33 1    
    65   32   34 1    
    66   32  155 1    
    67   33  156 1    
    68   33  157 1    
    69   33  158 1    
    70   34   35 am   BACKBONE|DICT|INTERRES
    71   34  159 1    
    72   35   36 2    
    73   35   37 1    
    74   37   38 1    
    75   37   39 1    
    76   37  160 1    
    77   38  161 1    
    78   38  162 1    
    79   38  163 1    
    80   39   40 am   BACKBONE|DICT|INTERRES
    81   39  164 1    
    82   40   41 2    
    83   40   42 1    
    84   42   43 1    
    85   42   44 1    
    86   42  165 1    
    87   43  166 1    
    88   43  167 1    
    89   43  168 1    
    90   44   45 am   BACKBONE|DICT|INTERRES
    91   44  169 1    
    92   45   46 2    
    93   45   47 1    
    94   47   48 1    
    95   47   49 1    
    96   47  170 1    
    97   48  171 1    
    98   48  172 1    
    99   48  173 1    
   100   49   50 am   BACKBONE|DICT|INTERRES
   101   49  174 1    
   102   50   51 2    
   103   50   52 1    
   104   52   53 1    
   105   52   54 1    
   106   52  175 1    
   107   53  176 1    
   108   53  177 1    
   109   53  178 1    
   110   54   55 am   BACKBONE|DICT|INTERRES
   111   54  179 1    
   112   55   56 2    
   113   55   57 1    
   114   57   58 1    
   115   57   59 1    
   116   57  180 1    
   117   58  181 1    
   118   58  182 1    
   119   58  183 1    
   120   59   60 am   BACKBONE|DICT|INTERRES
   121   59  184 1    
   122   60   61 2    
   123   60   62 1    
   124   62   63 1    
   125   62   64 1    
   126   62  185 1    
   127   63  186 1    
   128   63  187 1    
   129   63  188 1    
   130   64   65 am   BACKBONE|DICT|INTERRES
   131   64  189 1    
   132   65   66 2    
   133   67   68 2    
   134   67   69 am   BACKBONE|DICT|INTERRES
   135   69   70 1    
   136   69  190 1    
   137   70   71 1    
   138   70   72 1    
   139   70  191 1    
   140   71  192 1    
   141   71  193 1    
   142   71  194 1    
   143   72   73 2    
   144   72   74 am   BACKBONE|DICT|INTERRES
   145   74   75 1    
   146   74  195 1    
   147   75   76 1    
   148   75   77 1    
   149   75  196 1    
   150   76  197 1    
   151   76  198 1    
   152   76  199 1    
   153   77   78 2    
   154   77   79 am   BACKBONE|DICT|INTERRES
   155   79   80 1    
   156   79  200 1    
   157   80   81 1    
   158   80   82 1    
   159   80  201 1    
   160   81  202 1    
   161   81  203 1    
   162   81  204 1    
   163   82   83 2    
   164   82   84 am   BACKBONE|DICT|INTERRES
   165   84   85 1    
   166   84  205 1    
   167   85   86 1    
   168   85   87 1    
   169   85  206 1    
   170   86  207 1    
   171   86  208 1    
   172   86  209 1    
   173   87   88 2    
   174   87   89 am   BACKBONE|DICT|INTERRES
   175   89   90 1    
   176   89  210 1    
   177   90   91 1    
   178   90   92 1    
   179   90  211 1    
   180   91  212 1    
   181   91  213 1    
   182   91  214 1    
   183   92   93 2    
   184   92   94 am   BACKBONE|DICT|INTERRES
   185   94   95 1    
   186   94  215 1    
   187   95   96 1    
   188   95   97 1    
   189   95  216 1    
   190   96  217 1    
   191   96  218 1    
   192   96  219 1    
   193   97   98 2    
   194   97   99 am   BACKBONE|DICT|INTERRES
   195   99  100 1    
   196   99  220 1    
   197  100  101 1    
   198  100  102 1    
   199  100  221 1    
   200  101  222 1    
   201  101  223 1    
   202  101  224 1    
   203  102  103 2    
   204  102  104 am   BACKBONE|DICT|INTERRES
   205  104  105 1    
   206  104  225 1    
   207  105  106 1    
   208  105  107 1    
   209  105  226 1    
   210  106  227 1    
   211  106  228 1    
   212  106  229 1    
   213  107  108 2    
   214  107  109 am   BACKBONE|DICT|INTERRES
   215  109  110 1    
   216  109  230 1    
   217  110  111 1    
   218  110  112 1    
   219  110  231 1    
   220  111  232 1    
   221  111  233 1    
   222  111  234 1    
   223  112  113 2    
   224  112  114 am   BACKBONE|DICT|INTERRES
   225  114  115 1    
   226  114  235 1    
   227  115  116 1    
   228  115  117 1    
   229  115  236 1    
   230  116  237 1    
   231  116  238 1    
   232  116  239 1    
   233  117  118 2    
   234  117  119 am   BACKBONE|DICT|INTERRES
   235  119  120 1    
   236  119  240 1    
   237  120  121 1    
   238  120  124 1    
   239  120  241 1    
   240  121  122 am   BACKBONE|DICT|INTERRES
   241  121  123 2    
   242  122  242 1    
   243  122  243 1    
   244  124  125 1    
   245  124  244 1    
   246  124  245 1    
   247  125  126 1    
   248  126  246 1    
   249  126  247 1    
@<TRIPOS>SUBSTRUCTURE
     1 UNK         1 GROUP             0       ****    0 ROOT    
