@<TRIPOS>MOLECULE
3R540
247   249    1
SMALL
USER_CHARGES


@<TRIPOS>ATOM
      1 CA          1.1038  -11.2568  -46.8195 C.3       0 UNK        -0.1800 
      2 C           0.0217  -11.1072  -47.8873 C.2       0 UNK         0.5000 
      3 O          -0.5239  -10.0162  -48.0378 O.2       0 UNK        -0.5000 
      4 N          -0.3324  -12.1536  -48.6486 N.am      1 UNK        -0.5000 
      5 CA          0.1931  -13.5267  -48.6013 C.3       1 UNK         0.1400 
      6 C6         -0.2684  -14.3552  -49.8225 C.3       23 UNK        -0.0398 
      7 S7          0.4254  -13.7263  -51.3880 S.3       23 UNK        -0.2404 
      8 C8          1.8116  -14.8781  -51.6623 C.3       23 UNK        -0.0205 
      9 C9          1.3309  -16.2872  -51.9802 C.ar      23 UNK        -0.0193 
     10 C10         0.7660  -16.5671  -53.2264 C.ar      23 UNK        -0.1150 
     11 C11         0.3171  -17.8545  -53.5292 C.ar      23 UNK        -0.0193 
     12 C12         0.4307  -18.8626  -52.5676 C.ar      23 UNK        -0.1150 
     13 C13         0.9861  -18.6021  -51.3108 C.ar      23 UNK        -0.0193 
     14 C14         1.4520  -17.3095  -51.0334 C.ar      23 UNK        -0.1150 
     15 C15         1.0799  -19.7556  -50.3090 C.3       23 UNK        -0.0205 
     16 S16         1.3954  -19.2976  -48.5672 S.3       23 UNK        -0.2404 
     17 C17        -0.1558  -18.4561  -48.0959 C.3       23 UNK        -0.0398 
     18 CA         -1.3005  -19.4307  -47.7310 C.3       11 UNK         0.1400 
     19 N          -0.9021  -20.4692  -46.7785 N.am      11 UNK        -0.5000 
     20 C          -1.6231  -21.5666  -46.5125 C.2       10 UNK         0.5000 
     21 O          -2.6948  -21.8236  -47.0563 O.2       10 UNK        -0.5000 
     22 CA         -1.0811  -22.5006  -45.4169 C.3       10 UNK         0.1400 
     23 CB          0.0002  -23.4314  -45.9848 C.3       10 UNK        -0.1800 
     24 N          -0.5393  -21.7497  -44.2838 N.am      10 UNK        -0.5000 
     25 C          -1.2785  -20.9812  -43.4704 C.2       9 UNK         0.5000 
     26 O          -2.5047  -20.9110  -43.5303 O.2       9 UNK        -0.5000 
     27 CA         -0.5199  -20.1004  -42.4625 C.3       9 UNK         0.1400 
     28 CB         -0.3645  -20.8157  -41.1133 C.3       9 UNK        -0.1800 
     29 N           0.7992  -19.6912  -42.9444 N.am      9 UNK        -0.5000 
     30 C           1.0307  -18.8645  -43.9737 C.2       8 UNK         0.5000 
     31 O           0.1271  -18.3662  -44.6472 O.2       8 UNK        -0.5000 
     32 CA          2.5118  -18.5566  -44.2891 C.3       8 UNK         0.1400 
     33 CB          2.6853  -17.3012  -45.1611 C.3       8 UNK        -0.1800 
     34 N           3.3066  -18.4234  -43.0607 N.am      8 UNK        -0.5000 
     35 C           3.8741  -19.4498  -42.4079 C.2       7 UNK         0.5000 
     36 O           3.8139  -20.6094  -42.8186 O.2       7 UNK        -0.5000 
     37 CA          4.5303  -19.1786  -41.0387 C.3       7 UNK         0.1400 
     38 CB          5.7985  -20.0270  -40.8057 C.3       7 UNK        -0.1800 
     39 N           4.7611  -17.7633  -40.7413 N.am      7 UNK        -0.5000 
     40 C           5.6739  -16.9382  -41.2767 C.2       6 UNK         0.5000 
     41 O           6.4764  -17.2782  -42.1467 O.2       6 UNK        -0.5000 
     42 CA          5.6883  -15.4845  -40.7556 C.3       6 UNK         0.1400 
     43 CB          5.8602  -14.4787  -41.9072 C.3       6 UNK        -0.1800 
     44 N           4.4575  -15.1648  -40.0282 N.am      6 UNK        -0.5000 
     45 C           4.3184  -15.1376  -38.6952 C.2       5 UNK         0.5000 
     46 O           5.2510  -15.3049  -37.9092 O.2       5 UNK        -0.5000 
     47 CA          2.8953  -14.9104  -38.1390 C.3       5 UNK         0.1400 
     48 CB          2.7146  -13.4446  -37.7162 C.3       5 UNK        -0.1800 
     49 N           1.8290  -15.2646  -39.0806 N.am      5 UNK        -0.5000 
     50 C           1.5477  -16.5061  -39.5022 C.2       4 UNK         0.5000 
     51 O           2.1285  -17.5125  -39.0963 O.2       4 UNK        -0.5000 
     52 CA          0.5013  -16.6347  -40.6286 C.3       4 UNK         0.1400 
     53 CB         -0.9053  -16.8558  -40.0559 C.3       4 UNK        -0.1800 
     54 N           0.4803  -15.4905  -41.5471 N.am      4 UNK        -0.5000 
     55 C           1.5242  -15.0784  -42.2775 C.2       3 UNK         0.5000 
     56 O           2.6220  -15.6377  -42.2521 O.2       3 UNK        -0.5000 
     57 CA          1.2977  -13.8501  -43.1778 C.3       3 UNK         0.1400 
     58 CB          2.6028  -13.3293  -43.8051 C.3       3 UNK        -0.1800 
     59 N           0.3493  -14.1508  -44.2463 N.am      3 UNK        -0.5000 
     60 C          -0.9828  -14.1479  -44.1346 C.2       2 UNK         0.5000 
     61 O          -1.5620  -13.9014  -43.0749 O.2       2 UNK        -0.5000 
     62 CA         -1.7959  -14.4694  -45.4112 C.3       2 UNK         0.1400 
     63 CB         -3.2743  -14.0596  -45.2816 C.3       2 UNK        -0.1800 
     64 N          -1.2558  -13.8624  -46.6317 N.am      2 UNK        -0.5000 
     65 C          -0.1750  -14.2774  -47.3055 C.2       1 UNK         0.5000 
     66 O           0.5388  -15.2049  -46.9284 O.2       1 UNK        -0.5000 
     67 C          -2.5405  -18.6671  -47.2258 C.2       11 UNK         0.5000 
     68 O          -3.4602  -18.4203  -48.0082 O.2       11 UNK        -0.5000 
     69 N          -2.5623  -18.3686  -45.9161 N.am      12 UNK        -0.5000 
     70 CA         -3.6942  -17.7713  -45.2028 C.3       12 UNK         0.1400 
     71 CB         -3.2935  -17.4747  -43.7480 C.3       12 UNK        -0.1800 
     72 C          -4.9646  -18.6408  -45.2478 C.2       12 UNK         0.5000 
     73 O          -6.0635  -18.1003  -45.3773 O.2       12 UNK        -0.5000 
     74 N          -4.7954  -19.9694  -45.2040 N.am      13 UNK        -0.5000 
     75 CA         -5.8415  -20.9803  -45.3734 C.3       13 UNK         0.1400 
     76 CB         -5.3636  -22.3034  -44.7484 C.3       13 UNK        -0.1800 
     77 C          -6.2749  -21.1409  -46.8489 C.2       13 UNK         0.5000 
     78 O          -6.2832  -22.2541  -47.3784 O.2       13 UNK        -0.5000 
     79 N          -6.6308  -20.0147  -47.4828 N.am      14 UNK        -0.5000 
     80 CA         -7.1565  -19.8708  -48.8424 C.3       14 UNK         0.1400 
     81 CB         -8.6080  -20.3914  -48.8989 C.3       14 UNK        -0.1800 
     82 C          -6.2536  -20.5087  -49.9170 C.2       14 UNK         0.5000 
     83 O          -6.7411  -21.2816  -50.7431 O.2       14 UNK        -0.5000 
     84 N          -4.9486  -20.1974  -49.8705 N.am      15 UNK        -0.5000 
     85 CA         -3.9088  -20.7132  -50.7712 C.3       15 UNK         0.1400 
     86 CB         -4.1229  -20.1766  -52.2016 C.3       15 UNK        -0.1800 
     87 C          -3.7925  -22.2521  -50.7130 C.2       15 UNK         0.5000 
     88 O          -3.7578  -22.9138  -51.7524 O.2       15 UNK        -0.5000 
     89 N          -3.7760  -22.7859  -49.4832 N.am      16 UNK        -0.5000 
     90 CA         -3.8011  -24.2044  -49.1190 C.3       16 UNK         0.1400 
     91 CB         -2.4889  -24.8961  -49.5454 C.3       16 UNK        -0.1800 
     92 C          -5.0654  -24.9120  -49.6459 C.2       16 UNK         0.5000 
     93 O          -4.9697  -25.9871  -50.2355 O.2       16 UNK        -0.5000 
     94 N          -6.2275  -24.2651  -49.4697 N.am      17 UNK        -0.5000 
     95 CA         -7.5290  -24.6269  -50.0474 C.3       17 UNK         0.1400 
     96 CB         -8.0921  -25.8935  -49.3713 C.3       17 UNK        -0.1800 
     97 C          -7.4647  -24.7337  -51.5887 C.2       17 UNK         0.5000 
     98 O          -7.9196  -25.7191  -52.1719 O.2       17 UNK        -0.5000 
     99 N          -6.8416  -23.7176  -52.1996 N.am      18 UNK        -0.5000 
    100 CA        -6.5104  -23.5450  -53.6165 C.3       18 UNK         0.1400 
    101 CB        -7.7832  -23.5384  -54.4868 C.3       18 UNK        -0.1800 
    102 C         -5.4381  -24.5086  -54.1725 C.2       18 UNK         0.5000 
    103 O         -5.1015  -24.3936  -55.3528 O.2       18 UNK        -0.5000 
    104 N         -4.8825  -25.4118  -53.3489 N.am      19 UNK        -0.5000 
    105 CA        -3.8823  -26.4015  -53.7640 C.3       19 UNK         0.1400 
    106 CB        -3.7195  -27.4763  -52.6800 C.3       19 UNK        -0.1800 
    107 C         -2.5126  -25.7992  -54.1311 C.2       19 UNK         0.5000 
    108 O         -1.7481  -26.4560  -54.8394 O.2       19 UNK        -0.5000 
    109 N         -2.2242  -24.5678  -53.6802 N.am      20 UNK        -0.5000 
    110 CA        -1.0272  -23.8181  -54.0742 C.3       20 UNK         0.1400 
    111 CB        -0.8103  -22.6436  -53.1099 C.3       20 UNK        -0.1800 
    112 C         -1.0730  -23.3273  -55.5381 C.2       20 UNK         0.5000 
    113 O         -0.0182  -23.0152  -56.0917 O.2       20 UNK        -0.5000 
    114 N         -2.2764  -23.2977  -56.1371 N.am      21 UNK        -0.5000 
    115 CA        -2.5674  -23.0178  -57.5467 C.3       21 UNK         0.1400 
    116 CB        -2.0718  -24.1816  -58.4304 C.3       21 UNK        -0.1800 
    117 C         -2.0554  -21.6405  -58.0163 C.2       21 UNK         0.5000 
    118 O         -1.3282  -21.5510  -59.0084 O.2       21 UNK        -0.5000 
    119 N         -2.4366  -20.5923  -57.2754 N.am      22 UNK        -0.5000 
    120 CA        -2.1143  -19.1865  -57.5686 C.3       22 UNK         0.1400 
    121 C         -2.6496  -18.7065  -58.9487 C.2       22 UNK         0.5000 
    122 N         -1.8918  -17.8883  -59.6665 N.am      22 UNK        -0.7600 
    123 O         -3.7646  -19.0322  -59.3512 O.2       22 UNK        -0.5000 
    124 C124       -2.6223  -18.2337  -56.4566 C.3       23 UNK        -0.0398 
    125 S125       -2.0237  -18.6454  -54.7841 S.3       23 UNK        -0.2404 
    126 C126       -0.2754  -18.1552  -54.8982 C.3       23 UNK        -0.0205 
    127 H127        1.5376  -10.2847  -46.5845 H         1 UNK         0.0600 
    128 H128        1.9183  -11.9048  -47.1396 H         1 UNK         0.0600 
    129 H129        0.6722  -11.6581  -45.9031 H         1 UNK         0.0600 
    130 H130       -1.0328  -11.9991  -49.3599 H         1 UNK         0.3000 
    131 H131        1.2827  -13.4752  -48.6352 H         1 UNK         0.0600 
    132 H132        0.0070  -15.4034  -49.7074 H         1 UNK         0.0800 
    133 H133       -1.3569  -14.3456  -49.9030 H         1 UNK         0.0800 
    134 H134        2.4636  -14.8762  -50.7873 H         1 UNK         0.0800 
    135 H135        2.4160  -14.5105  -52.4928 H         1 UNK         0.0800 
    136 H136        0.6766  -15.7770  -53.9589 H         1 UNK         0.1150 
    137 H137        0.0780  -19.8560  -52.8026 H         1 UNK         0.1150 
    138 H138        1.9030  -17.0852  -50.0779 H         1 UNK         0.1150 
    139 H139        0.1661  -20.3502  -50.3497 H         1 UNK         0.0800 
    140 H140        1.8857  -20.4155  -50.6325 H         1 UNK         0.0800 
    141 H141       -0.4655  -17.7939  -48.9055 H         1 UNK         0.0800 
    142 H142        0.0740  -17.8070  -47.2503 H         1 UNK         0.0800 
    143 H143       -1.5907  -19.9422  -48.6487 H         1 UNK         0.0600 
    144 H144       -0.0461  -20.3045  -46.2711 H         1 UNK         0.3000 
    145 H145       -1.9098  -23.1146  -45.0580 H         1 UNK         0.0600 
    146 H146        0.8652  -22.8744  -46.3472 H         1 UNK         0.0600 
    147 H147        0.3472  -24.1382  -45.2309 H         1 UNK         0.0600 
    148 H148       -0.3886  -24.0144  -46.8209 H         1 UNK         0.0600 
    149 H149        0.4623  -21.7604  -44.1606 H         1 UNK         0.3000 
    150 H150       -1.1112  -19.1974  -42.3017 H         1 UNK         0.0600 
    151 H151       -1.3361  -21.1090  -40.7135 H         1 UNK         0.0600 
    152 H152        0.1069  -20.1663  -40.3750 H         1 UNK         0.0600 
    153 H153        0.2409  -21.7185  -41.2028 H         1 UNK         0.0600 
    154 H154        1.5995  -20.0928  -42.4758 H         1 UNK         0.3000 
    155 H155        2.8913  -19.3994  -44.8703 H         1 UNK         0.0600 
    156 H156        2.2691  -17.4593  -46.1561 H         1 UNK         0.0600 
    157 H157        3.7373  -17.0456  -45.2876 H         1 UNK         0.0600 
    158 H158        2.1773  -16.4370  -44.7390 H         1 UNK         0.0600 
    159 H159        3.3385  -17.4949  -42.6511 H         1 UNK         0.3000 
    160 H160        3.7945  -19.5043  -40.3021 H         1 UNK         0.0600 
    161 H161        6.2392  -19.8198  -39.8305 H         1 UNK         0.0600 
    162 H162        6.5582  -19.8426  -41.5655 H         1 UNK         0.0600 
    163 H163        5.5664  -21.0922  -40.8341 H         1 UNK         0.0600 
    164 H164        4.1305  -17.3736  -40.0519 H         1 UNK         0.3000 
    165 H165        6.5507  -15.3881  -40.0934 H         1 UNK         0.0600 
    166 H166        5.1067  -14.6229  -42.6813 H         1 UNK         0.0600 
    167 H167        5.7884  -13.4508  -41.5517 H         1 UNK         0.0600 
    168 H168        6.8365  -14.5903  -42.3801 H         1 UNK         0.0600 
    169 H169        3.6320  -15.0767  -40.6101 H         1 UNK         0.3000 
    170 H170        2.7861  -15.5393  -37.2529 H         1 UNK         0.0600 
    171 H171        2.7964  -12.7673  -38.5672 H         1 UNK         0.0600 
    172 H172        1.7418  -13.2848  -37.2507 H         1 UNK         0.0600 
    173 H173        3.4728  -13.1509  -36.9890 H         1 UNK         0.0600 
    174 H174        1.3020  -14.4986  -39.4736 H         1 UNK         0.3000 
    175 H175        0.7706  -17.5155  -41.2120 H         1 UNK         0.0600 
    176 H176       -1.2451  -15.9939  -39.4803 H         1 UNK         0.0600 
    177 H177       -1.6301  -17.0360  -40.8503 H         1 UNK         0.0600 
    178 H178       -0.9263  -17.7234  -39.3951 H         1 UNK         0.0600 
    179 H179       -0.3998  -14.9994  -41.6583 H         1 UNK         0.3000 
    180 H180        0.8920  -13.0533  -42.5510 H         1 UNK         0.0600 
    181 H181        3.0704  -14.0742  -44.4501 H         1 UNK         0.0600 
    182 H182        3.3232  -13.0590  -43.0326 H         1 UNK         0.0600 
    183 H183        2.4261  -12.4347  -44.4008 H         1 UNK         0.0600 
    184 H184        0.7381  -14.4551  -45.1331 H         1 UNK         0.3000 
    185 H185       -1.7561  -15.5523  -45.5364 H         1 UNK         0.0600 
    186 H186       -3.8423  -14.3425  -46.1680 H         1 UNK         0.0600 
    187 H187       -3.7483  -14.5448  -44.4278 H         1 UNK         0.0600 
    188 H188       -3.3799  -12.9826  -45.1458 H         1 UNK         0.0600 
    189 H189       -1.7623  -13.0676  -46.9947 H         1 UNK         0.3000 
    190 H190       -1.7334  -18.5725  -45.3662 H         1 UNK         0.3000 
    191 H191       -3.9262  -16.8281  -45.6990 H         1 UNK         0.0600 
    192 H192       -3.2036  -18.3874  -43.1604 H         1 UNK         0.0600 
    193 H193       -2.3424  -16.9470  -43.6853 H         1 UNK         0.0600 
    194 H194       -4.0450  -16.8529  -43.2605 H         1 UNK         0.0600 
    195 H195       -3.8584  -20.3256  -45.0564 H         1 UNK         0.3000 
    196 H196       -6.7243  -20.6568  -44.8184 H         1 UNK         0.0600 
    197 H197       -5.1011  -22.1713  -43.6986 H         1 UNK         0.0600 
    198 H198       -4.4890  -22.7001  -45.2635 H         1 UNK         0.0600 
    199 H199       -6.1445  -23.0634  -44.7940 H         1 UNK         0.0600 
    200 H200       -6.5586  -19.1554  -46.9461 H         1 UNK         0.3000 
    201 H201       -7.1781  -18.8014  -49.0563 H         1 UNK         0.0600 
    202 H202       -9.0520  -20.2108  -49.8786 H         1 UNK         0.0600 
    203 H203       -9.2354  -19.8892  -48.1626 H         1 UNK         0.0600 
    204 H204       -8.6605  -21.4637  -48.7073 H         1 UNK         0.0600 
    205 H205       -4.6248  -19.5667  -49.1422 H         1 UNK         0.3000 
    206 H206       -2.9573  -20.3187  -50.4181 H         1 UNK         0.0600 
    207 H207       -5.0516  -20.5372  -52.6430 H         1 UNK         0.0600 
    208 H208       -3.3141  -20.4862  -52.8602 H         1 UNK         0.0600 
    209 H209       -4.1474  -19.0870  -52.2134 H         1 UNK         0.0600 
    210 H210       -3.7675  -22.1595  -48.6840 H         1 UNK         0.3000 
    211 H211       -3.8590  -24.2419  -48.0303 H         1 UNK         0.0600 
    212 H212       -1.6216  -24.3757  -49.1392 H         1 UNK         0.0600 
    213 H213       -2.4528  -25.9229  -49.1804 H         1 UNK         0.0600 
    214 H214       -2.3801  -24.9310  -50.6296 H         1 UNK         0.0600 
    215 H215       -6.2112  -23.4043  -48.9276 H         1 UNK         0.3000 
    216 H216       -8.2057  -23.8012  -49.8230 H         1 UNK         0.0600 
    217 H217       -9.1029  -26.1053  -49.7215 H         1 UNK         0.0600 
    218 H218       -7.4821  -26.7724  -49.5820 H         1 UNK         0.0600 
    219 H219       -8.1422  -25.7717  -48.2893 H         1 UNK         0.0600 
    220 H220       -6.5491  -22.9419  -51.6086 H         1 UNK         0.3000 
    221 H221       -6.0675  -22.5507  -53.6841 H         1 UNK         0.0600 
    222 H222       -8.2536  -24.5210  -54.5271 H         1 UNK         0.0600 
    223 H223       -7.5541  -23.2470  -55.5125 H         1 UNK         0.0600 
    224 H224       -8.5174  -22.8282  -54.1063 H         1 UNK         0.0600 
    225 H225       -5.1623  -25.4304  -52.3756 H         1 UNK         0.3000 
    226 H226       -4.2670  -26.8931  -54.6600 H         1 UNK         0.0600 
    227 H227       -4.6830  -27.8844  -52.3740 H         1 UNK         0.0600 
    228 H228       -3.1154  -28.3072  -53.0463 H         1 UNK         0.0600 
    229 H229       -3.2203  -27.0816  -51.7950 H         1 UNK         0.0600 
    230 H230       -2.8884  -24.0892  -53.0766 H         1 UNK         0.3000 
    231 H231       -0.1676  -24.4852  -53.9813 H         1 UNK         0.0600 
    232 H232        0.1484  -22.1615  -53.3029 H         1 UNK         0.0600 
    233 H233       -0.8056  -22.9748  -52.0712 H         1 UNK         0.0600 
    234 H234       -1.5857  -21.8879  -53.2217 H         1 UNK         0.0600 
    235 H235       -3.0782  -23.5864  -55.5891 H         1 UNK         0.3000 
    236 H236       -3.6546  -22.9847  -57.6332 H         1 UNK         0.0600 
    237 H237       -2.4917  -25.1318  -58.0997 H         1 UNK         0.0600 
    238 H238       -2.3709  -24.0389  -59.4694 H         1 UNK         0.0600 
    239 H239       -0.9851  -24.2714  -58.4109 H         1 UNK         0.0600 
    240 H240       -3.0165  -20.7540  -56.4658 H         1 UNK         0.3000 
    241 H241       -1.0252  -19.1201  -57.5974 H         1 UNK         0.0600 
    242 H242       -2.2349  -17.5580  -60.5555 H         1 UNK         0.3800 
    243 H243       -0.9759  -17.6022  -59.3557 H         1 UNK         0.3800 
    244 H244       -3.7133  -18.2426  -56.4250 H         1 UNK         0.0800 
    245 H245       -2.3394  -17.2022  -56.6750 H         1 UNK         0.0800 
    246 H246        0.2924  -18.9587  -55.3697 H         1 UNK         0.0800 
    247 H247       -0.1812  -17.2850  -55.5495 H         1 UNK         0.0800 
@<TRIPOS>BOND
     1    1    2 1    
     2    1  127 1    
     3    1  128 1    
     4    1  129 1    
     5    2    3 2    
     6    2    4 am   BACKBONE|DICT|INTERRES
     7    4    5 1    
     8    4  130 1    
     9    5    6 1    
    10    5   65 1    
    11    5  131 1    
    12    6    7 1    
    13    6  132 1    
    14    6  133 1    
    15    7    8 1    
    16    8    9 1    
    17    8  134 1    
    18    8  135 1    
    19    9   10 ar   
    20    9   14 ar   
    21   10   11 ar   
    22   10  136 1    
    23   11   12 ar   
    24   11  126 1    
    25   12   13 ar   
    26   12  137 1    
    27   13   14 ar   
    28   13   15 1    
    29   14  138 1    
    30   15   16 1    
    31   15  139 1    
    32   15  140 1    
    33   16   17 1    
    34   17   18 1    
    35   17  141 1    
    36   17  142 1    
    37   18   19 1    
    38   18   67 1    
    39   18  143 1    
    40   19   20 am   BACKBONE|DICT|INTERRES
    41   19  144 1    
    42   20   21 2    
    43   20   22 1    
    44   22   23 1    
    45   22   24 1    
    46   22  145 1    
    47   23  146 1    
    48   23  147 1    
    49   23  148 1    
    50   24   25 am   BACKBONE|DICT|INTERRES
    51   24  149 1    
    52   25   26 2    
    53   25   27 1    
    54   27   28 1    
    55   27   29 1    
    56   27  150 1    
    57   28  151 1    
    58   28  152 1    
    59   28  153 1    
    60   29   30 am   BACKBONE|DICT|INTERRES
    61   29  154 1    
    62   30   31 2    
    63   30   32 1    
    64   32   33 1    
    65   32   34 1    
    66   32  155 1    
    67   33  156 1    
    68   33  157 1    
    69   33  158 1    
    70   34   35 am   BACKBONE|DICT|INTERRES
    71   34  159 1    
    72   35   36 2    
    73   35   37 1    
    74   37   38 1    
    75   37   39 1    
    76   37  160 1    
    77   38  161 1    
    78   38  162 1    
    79   38  163 1    
    80   39   40 am   BACKBONE|DICT|INTERRES
    81   39  164 1    
    82   40   41 2    
    83   40   42 1    
    84   42   43 1    
    85   42   44 1    
    86   42  165 1    
    87   43  166 1    
    88   43  167 1    
    89   43  168 1    
    90   44   45 am   BACKBONE|DICT|INTERRES
    91   44  169 1    
    92   45   46 2    
    93   45   47 1    
    94   47   48 1    
    95   47   49 1    
    96   47  170 1    
    97   48  171 1    
    98   48  172 1    
    99   48  173 1    
   100   49   50 am   BACKBONE|DICT|INTERRES
   101   49  174 1    
   102   50   51 2    
   103   50   52 1    
   104   52   53 1    
   105   52   54 1    
   106   52  175 1    
   107   53  176 1    
   108   53  177 1    
   109   53  178 1    
   110   54   55 am   BACKBONE|DICT|INTERRES
   111   54  179 1    
   112   55   56 2    
   113   55   57 1    
   114   57   58 1    
   115   57   59 1    
   116   57  180 1    
   117   58  181 1    
   118   58  182 1    
   119   58  183 1    
   120   59   60 am   BACKBONE|DICT|INTERRES
   121   59  184 1    
   122   60   61 2    
   123   60   62 1    
   124   62   63 1    
   125   62   64 1    
   126   62  185 1    
   127   63  186 1    
   128   63  187 1    
   129   63  188 1    
   130   64   65 am   BACKBONE|DICT|INTERRES
   131   64  189 1    
   132   65   66 2    
   133   67   68 2    
   134   67   69 am   BACKBONE|DICT|INTERRES
   135   69   70 1    
   136   69  190 1    
   137   70   71 1    
   138   70   72 1    
   139   70  191 1    
   140   71  192 1    
   141   71  193 1    
   142   71  194 1    
   143   72   73 2    
   144   72   74 am   BACKBONE|DICT|INTERRES
   145   74   75 1    
   146   74  195 1    
   147   75   76 1    
   148   75   77 1    
   149   75  196 1    
   150   76  197 1    
   151   76  198 1    
   152   76  199 1    
   153   77   78 2    
   154   77   79 am   BACKBONE|DICT|INTERRES
   155   79   80 1    
   156   79  200 1    
   157   80   81 1    
   158   80   82 1    
   159   80  201 1    
   160   81  202 1    
   161   81  203 1    
   162   81  204 1    
   163   82   83 2    
   164   82   84 am   BACKBONE|DICT|INTERRES
   165   84   85 1    
   166   84  205 1    
   167   85   86 1    
   168   85   87 1    
   169   85  206 1    
   170   86  207 1    
   171   86  208 1    
   172   86  209 1    
   173   87   88 2    
   174   87   89 am   BACKBONE|DICT|INTERRES
   175   89   90 1    
   176   89  210 1    
   177   90   91 1    
   178   90   92 1    
   179   90  211 1    
   180   91  212 1    
   181   91  213 1    
   182   91  214 1    
   183   92   93 2    
   184   92   94 am   BACKBONE|DICT|INTERRES
   185   94   95 1    
   186   94  215 1    
   187   95   96 1    
   188   95   97 1    
   189   95  216 1    
   190   96  217 1    
   191   96  218 1    
   192   96  219 1    
   193   97   98 2    
   194   97   99 am   BACKBONE|DICT|INTERRES
   195   99  100 1    
   196   99  220 1    
   197  100  101 1    
   198  100  102 1    
   199  100  221 1    
   200  101  222 1    
   201  101  223 1    
   202  101  224 1    
   203  102  103 2    
   204  102  104 am   BACKBONE|DICT|INTERRES
   205  104  105 1    
   206  104  225 1    
   207  105  106 1    
   208  105  107 1    
   209  105  226 1    
   210  106  227 1    
   211  106  228 1    
   212  106  229 1    
   213  107  108 2    
   214  107  109 am   BACKBONE|DICT|INTERRES
   215  109  110 1    
   216  109  230 1    
   217  110  111 1    
   218  110  112 1    
   219  110  231 1    
   220  111  232 1    
   221  111  233 1    
   222  111  234 1    
   223  112  113 2    
   224  112  114 am   BACKBONE|DICT|INTERRES
   225  114  115 1    
   226  114  235 1    
   227  115  116 1    
   228  115  117 1    
   229  115  236 1    
   230  116  237 1    
   231  116  238 1    
   232  116  239 1    
   233  117  118 2    
   234  117  119 am   BACKBONE|DICT|INTERRES
   235  119  120 1    
   236  119  240 1    
   237  120  121 1    
   238  120  124 1    
   239  120  241 1    
   240  121  122 am   BACKBONE|DICT|INTERRES
   241  121  123 2    
   242  122  242 1    
   243  122  243 1    
   244  124  125 1    
   245  124  244 1    
   246  124  245 1    
   247  125  126 1    
   248  126  246 1    
   249  126  247 1    
@<TRIPOS>SUBSTRUCTURE
     1 UNK         1 GROUP             0       ****    0 ROOT    
