@<TRIPOS>MOLECULE
3R540
247   249    1
SMALL
USER_CHARGES


@<TRIPOS>ATOM
      1 CA         -0.4370  -10.0009  -50.4468 C.3       0 UNK        -0.1800 
      2 C          -0.0165  -11.3667  -49.9212 C.2       0 UNK         0.5000 
      3 O          -0.2465  -11.6643  -48.7490 O.2       0 UNK        -0.5000 
      4 N           0.5881  -12.1911  -50.7883 N.am      1 UNK        -0.5000 
      5 CA          1.1274  -13.5271  -50.4995 C.3       1 UNK         0.1400 
      6 C6          0.0508  -14.5015  -49.9401 C.3       23 UNK        -0.0398 
      7 S7          0.3840  -16.2514  -50.3444 S.3       23 UNK        -0.2404 
      8 C8          0.0613  -17.0479  -48.7344 C.3       23 UNK        -0.0205 
      9 C9         -1.3972  -16.9573  -48.2949 C.ar      23 UNK        -0.0193 
     10 C10        -2.4373  -17.1776  -49.2058 C.ar      23 UNK        -0.1150 
     11 C11        -3.7716  -17.1152  -48.7980 C.ar      23 UNK        -0.0193 
     12 C12        -4.0646  -16.8656  -47.4560 C.ar      23 UNK        -0.1150 
     13 C13        -3.0382  -16.6636  -46.5282 C.ar      23 UNK        -0.0193 
     14 C14        -1.7070  -16.6834  -46.9581 C.ar      23 UNK        -0.1150 
     15 C15        -3.3782  -16.4537  -45.0579 C.3       23 UNK        -0.0205 
     16 S16        -2.9522  -17.8914  -44.0129 S.3       23 UNK        -0.2404 
     17 C17        -3.5401  -19.3142  -44.9984 C.3       23 UNK        -0.0398 
     18 CA         -2.3549  -19.9841  -45.7452 C.3       11 UNK         0.1400 
     19 N          -1.4093  -20.6040  -44.8123 N.am      11 UNK        -0.5000 
     20 C          -1.4849  -21.8118  -44.2343 C.2       10 UNK         0.5000 
     21 O          -2.3099  -22.6794  -44.5186 O.2       10 UNK        -0.5000 
     22 CA         -0.4929  -22.0545  -43.0887 C.3       10 UNK         0.1400 
     23 CB          0.9333  -22.2636  -43.6208 C.3       10 UNK        -0.1800 
     24 N          -0.5091  -20.9262  -42.1612 N.am      10 UNK        -0.5000 
     25 C          -1.4946  -20.6660  -41.2902 C.2       9 UNK         0.5000 
     26 O          -2.4612  -21.4091  -41.1109 O.2       9 UNK        -0.5000 
     27 CA         -1.3653  -19.3509  -40.4934 C.3       9 UNK         0.1400 
     28 CB         -2.2257  -19.3234  -39.2135 C.3       9 UNK        -0.1800 
     29 N           0.0288  -19.0097  -40.1996 N.am      9 UNK        -0.5000 
     30 C           0.9118  -19.7121  -39.4731 C.2       8 UNK         0.5000 
     31 O           0.6362  -20.7443  -38.8605 O.2       8 UNK        -0.5000 
     32 CA          2.3630  -19.1923  -39.4504 C.3       8 UNK         0.1400 
     33 CB          3.2515  -20.0824  -40.3340 C.3       8 UNK        -0.1800 
     34 N           2.4874  -17.8032  -39.8992 N.am      8 UNK        -0.5000 
     35 C           2.0931  -16.7371  -39.1892 C.2       7 UNK         0.5000 
     36 O           1.6514  -16.8051  -38.0416 O.2       7 UNK        -0.5000 
     37 CA          2.1725  -15.3701  -39.8914 C.3       7 UNK         0.1400 
     38 CB          3.5906  -14.7901  -39.7806 C.3       7 UNK        -0.1800 
     39 N           1.7685  -15.4215  -41.2995 N.am      7 UNK        -0.5000 
     40 C           0.5311  -15.7025  -41.7347 C.2       6 UNK         0.5000 
     41 O          -0.4133  -15.9553  -40.9876 O.2       6 UNK        -0.5000 
     42 CA          0.3184  -15.7489  -43.2590 C.3       6 UNK         0.1400 
     43 CB          0.2090  -14.3380  -43.8554 C.3       6 UNK        -0.1800 
     44 N           1.3764  -16.4879  -43.9416 N.am      6 UNK        -0.5000 
     45 C           1.5617  -17.8113  -43.8436 C.2       5 UNK         0.5000 
     46 O           0.8124  -18.5755  -43.2331 O.2       5 UNK        -0.5000 
     47 CA          2.8150  -18.3751  -44.5299 C.3       5 UNK         0.1400 
     48 CB          2.5209  -18.6744  -46.0057 C.3       5 UNK        -0.1800 
     49 N           3.9645  -17.4740  -44.4247 N.am      5 UNK        -0.5000 
     50 C           4.6014  -17.1955  -43.2776 C.2       4 UNK         0.5000 
     51 O           4.2920  -17.6779  -42.1893 O.2       4 UNK        -0.5000 
     52 CA          5.7466  -16.1701  -43.3510 C.3       4 UNK         0.1400 
     53 CB          7.0369  -16.8316  -43.8574 C.3       4 UNK        -0.1800 
     54 N           5.4223  -15.0226  -44.1986 N.am      4 UNK        -0.5000 
     55 C           4.4489  -14.1377  -43.9399 C.2       3 UNK         0.5000 
     56 O           3.7333  -14.1809  -42.9415 O.2       3 UNK        -0.5000 
     57 CA          4.1997  -13.0494  -44.9978 C.3       3 UNK         0.1400 
     58 CB          5.0836  -11.8225  -44.7299 C.3       3 UNK        -0.1800 
     59 N           4.4190  -13.5182  -46.3673 N.am      3 UNK        -0.5000 
     60 C           3.7116  -14.4881  -46.9599 C.2       2 UNK         0.5000 
     61 O           2.8088  -15.1213  -46.4057 O.2       2 UNK        -0.5000 
     62 CA          4.0945  -14.8216  -48.4103 C.3       2 UNK         0.1400 
     63 CB          4.6056  -16.2664  -48.5243 C.3       2 UNK        -0.1800 
     64 N           2.9463  -14.6470  -49.2921 N.am      2 UNK        -0.5000 
     65 C           2.4118  -13.4690  -49.6347 C.2       1 UNK         0.5000 
     66 O           2.9190  -12.3861  -49.3277 O.2       1 UNK        -0.5000 
     67 C          -2.7792  -20.9206  -46.8945 C.2       11 UNK         0.5000 
     68 O          -1.9987  -21.1128  -47.8274 O.2       11 UNK        -0.5000 
     69 N          -3.9695  -21.5288  -46.7926 N.am      12 UNK        -0.5000 
     70 CA         -4.5076  -22.4899  -47.7563 C.3       12 UNK         0.1400 
     71 CB         -5.9087  -22.9242  -47.3031 C.3       12 UNK        -0.1800 
     72 C          -3.6153  -23.7266  -47.9838 C.2       12 UNK         0.5000 
     73 O          -3.6213  -24.2630  -49.0902 O.2       12 UNK        -0.5000 
     74 N          -2.8609  -24.1401  -46.9552 N.am      13 UNK        -0.5000 
     75 CA         -1.9158  -25.2559  -47.0162 C.3       13 UNK         0.1400 
     76 CB         -1.7380  -25.8420  -45.6066 C.3       13 UNK        -0.1800 
     77 C          -0.5496  -24.8575  -47.6073 C.2       13 UNK         0.5000 
     78 O           0.1763  -25.7370  -48.0725 O.2       13 UNK        -0.5000 
     79 N          -0.2122  -23.5594  -47.5765 N.am      14 UNK        -0.5000 
     80 CA          0.9651  -23.0066  -48.2517 C.3       14 UNK         0.1400 
     81 CB          1.3933  -21.7015  -47.5658 C.3       14 UNK        -0.1800 
     82 C           0.6754  -22.7772  -49.7452 C.2       14 UNK         0.5000 
     83 O           1.5351  -23.0392  -50.5876 O.2       14 UNK        -0.5000 
     84 N          -0.5512  -22.3283  -50.0379 N.am      15 UNK        -0.5000 
     85 CA         -1.1563  -22.2903  -51.3651 C.3       15 UNK         0.1400 
     86 CB         -2.4230  -21.4248  -51.2722 C.3       15 UNK        -0.1800 
     87 C          -1.4808  -23.7063  -51.8919 C.2       15 UNK         0.5000 
     88 O          -1.3478  -24.6980  -51.1705 O.2       15 UNK        -0.5000 
     89 N          -1.9281  -23.7844  -53.1498 N.am      16 UNK        -0.5000 
     90 CA         -2.3090  -25.0194  -53.8408 C.3       16 UNK         0.1400 
     91 CB         -2.2311  -24.7650  -55.3579 C.3       16 UNK        -0.1800 
     92 C          -3.6968  -25.5356  -53.3965 C.2       16 UNK         0.5000 
     93 O          -4.5953  -25.6640  -54.2286 O.2       16 UNK        -0.5000 
     94 N          -3.8495  -25.7963  -52.0881 N.am      17 UNK        -0.5000 
     95 CA         -5.0983  -26.1267  -51.3865 C.3       17 UNK         0.1400 
     96 CB         -5.6524  -27.4929  -51.8429 C.3       17 UNK        -0.1800 
     97 C          -6.1169  -24.9750  -51.5159 C.2       17 UNK         0.5000 
     98 O          -7.2578  -25.1901  -51.9296 O.2       17 UNK        -0.5000 
     99 N          -5.6371  -23.7602  -51.2083 N.am      18 UNK        -0.5000 
    100 CA        -6.2183  -22.4574  -51.5379 C.3       18 UNK         0.1400 
    101 CB        -7.5497  -22.2118  -50.7946 C.3       18 UNK        -0.1800 
    102 C         -6.3047  -22.2886  -53.0669 C.2       18 UNK         0.5000 
    103 O         -5.2893  -21.9699  -53.6880 O.2       18 UNK        -0.5000 
    104 N         -7.4937  -22.5296  -53.6368 N.am      19 UNK        -0.5000 
    105 CA        -7.7918  -22.5999  -55.0702 C.3       19 UNK         0.1400 
    106 CB        -7.2231  -23.9147  -55.6495 C.3       19 UNK        -0.1800 
    107 C         -7.3489  -21.3393  -55.8451 C.2       19 UNK         0.5000 
    108 O         -7.4881  -20.2276  -55.3308 O.2       19 UNK        -0.5000 
    109 N         -6.8163  -21.5254  -57.0596 N.am      20 UNK        -0.5000 
    110 CA        -6.3319  -20.4646  -57.9452 C.3       20 UNK         0.1400 
    111 CB        -6.0711  -21.0647  -59.3357 C.3       20 UNK        -0.1800 
    112 C         -5.0753  -19.7347  -57.4288 C.2       20 UNK         0.5000 
    113 O         -4.7974  -18.6280  -57.8923 O.2       20 UNK        -0.5000 
    114 N         -4.3392  -20.3513  -56.4920 N.am      21 UNK        -0.5000 
    115 CA        -3.1807  -19.7460  -55.8356 C.3       21 UNK         0.1400 
    116 CB        -2.3229  -20.8384  -55.1806 C.3       21 UNK        -0.1800 
    117 C         -3.5937  -18.6566  -54.8279 C.2       21 UNK         0.5000 
    118 O         -2.9552  -17.6039  -54.7908 O.2       21 UNK        -0.5000 
    119 N         -4.6680  -18.9053  -54.0653 N.am      22 UNK        -0.5000 
    120 CA        -5.3273  -17.8820  -53.2362 C.3       22 UNK         0.1400 
    121 C         -6.2810  -16.9677  -54.0540 C.2       22 UNK         0.5000 
    122 N         -7.0298  -17.4881  -55.0170 N.am      22 UNK        -0.7600 
    123 O         -6.3398  -15.7654  -53.8122 O.2       22 UNK        -0.5000 
    124 C124       -6.0593  -18.4873  -52.0102 C.3       23 UNK        -0.0398 
    125 S125       -4.9026  -18.8753  -50.6543 S.3       23 UNK        -0.2404 
    126 C126       -4.8933  -17.2570  -49.8163 C.3       23 UNK        -0.0205 
    127 H127       -0.1832   -9.8746  -51.4997 H         1 UNK         0.0600 
    128 H128        0.0595   -9.2127  -49.8808 H         1 UNK         0.0600 
    129 H129       -1.5141   -9.8726  -50.3392 H         1 UNK         0.0600 
    130 H130        0.7622  -11.8592  -51.7267 H         1 UNK         0.3000 
    131 H131        1.4457  -13.9037  -51.4729 H         1 UNK         0.0600 
    132 H132       -0.9237  -14.2686  -50.3715 H         1 UNK         0.0800 
    133 H133       -0.0682  -14.3735  -48.8624 H         1 UNK         0.0800 
    134 H134        0.3368  -18.1013  -48.8007 H         1 UNK         0.0800 
    135 H135        0.7167  -16.6010  -47.9849 H         1 UNK         0.0800 
    136 H136       -2.2129  -17.3882  -50.2419 H         1 UNK         0.1150 
    137 H137       -5.0951  -16.8295  -47.1314 H         1 UNK         0.1150 
    138 H138       -0.9134  -16.5285  -46.2402 H         1 UNK         0.1150 
    139 H139       -2.8484  -15.5756  -44.6863 H         1 UNK         0.0800 
    140 H140       -4.4413  -16.2391  -44.9383 H         1 UNK         0.0800 
    141 H141       -4.3179  -18.9802  -45.6857 H         1 UNK         0.0800 
    142 H142       -4.0183  -20.0231  -44.3206 H         1 UNK         0.0800 
    143 H143       -1.7811  -19.2036  -46.2395 H         1 UNK         0.0600 
    144 H144       -0.6973  -19.9771  -44.4625 H         1 UNK         0.3000 
    145 H145       -0.7981  -22.9574  -42.5556 H         1 UNK         0.0600 
    146 H146        1.6214  -22.5047  -42.8104 H         1 UNK         0.0600 
    147 H147        0.9667  -23.0892  -44.3332 H         1 UNK         0.0600 
    148 H148        1.3136  -21.3748  -44.1251 H         1 UNK         0.0600 
    149 H149        0.1986  -20.2111  -42.2952 H         1 UNK         0.3000 
    150 H150       -1.7331  -18.5635  -41.1528 H         1 UNK         0.0600 
    151 H151       -3.2843  -19.4289  -39.4532 H         1 UNK         0.0600 
    152 H152       -2.1072  -18.3795  -38.6812 H         1 UNK         0.0600 
    153 H153       -1.9638  -20.1308  -38.5294 H         1 UNK         0.0600 
    154 H154        0.3674  -18.1760  -40.6611 H         1 UNK         0.3000 
    155 H155        2.7233  -19.2593  -38.4219 H         1 UNK         0.0600 
    156 H156        2.9383  -20.0498  -41.3786 H         1 UNK         0.0600 
    157 H157        3.2104  -21.1234  -40.0113 H         1 UNK         0.0600 
    158 H158        4.2947  -19.7695  -40.2867 H         1 UNK         0.0600 
    159 H159        2.9120  -17.6596  -40.8115 H         1 UNK         0.3000 
    160 H160        1.4890  -14.6934  -39.3744 H         1 UNK         0.0600 
    161 H161        4.3165  -15.3983  -40.3214 H         1 UNK         0.0600 
    162 H162        3.9133  -14.7389  -38.7400 H         1 UNK         0.0600 
    163 H163        3.6346  -13.7784  -40.1840 H         1 UNK         0.0600 
    164 H164        2.4828  -15.1698  -41.9787 H         1 UNK         0.3000 
    165 H165       -0.6239  -16.2644  -43.4453 H         1 UNK         0.0600 
    166 H166        0.0092  -14.3778  -44.9265 H         1 UNK         0.0600 
    167 H167       -0.6068  -13.7821  -43.3919 H         1 UNK         0.0600 
    168 H168        1.1237  -13.7638  -43.7079 H         1 UNK         0.0600 
    169 H169        2.0237  -15.9490  -44.5045 H         1 UNK         0.3000 
    170 H170        3.0697  -19.3143  -44.0341 H         1 UNK         0.0600 
    171 H171        1.6453  -19.3159  -46.1010 H         1 UNK         0.0600 
    172 H172        2.3152  -17.7642  -46.5673 H         1 UNK         0.0600 
    173 H173        3.3576  -19.1849  -46.4825 H         1 UNK         0.0600 
    174 H174        4.2449  -16.9934  -45.2663 H         1 UNK         0.3000 
    175 H175        5.9271  -15.8009  -42.3392 H         1 UNK         0.0600 
    176 H176        6.9315  -17.1945  -44.8806 H         1 UNK         0.0600 
    177 H177        7.8735  -16.1331  -43.8333 H         1 UNK         0.0600 
    178 H178        7.3088  -17.6838  -43.2330 H         1 UNK         0.0600 
    179 H179        5.9616  -14.9100  -45.0440 H         1 UNK         0.3000 
    180 H180        3.1551  -12.7425  -44.9146 H         1 UNK         0.0600 
    181 H181        6.1438  -12.0593  -44.8279 H         1 UNK         0.0600 
    182 H182        4.9244  -11.4402  -43.7206 H         1 UNK         0.0600 
    183 H183        4.8543  -11.0123  -45.4223 H         1 UNK         0.0600 
    184 H184        5.1323  -13.0386  -46.8975 H         1 UNK         0.3000 
    185 H185        4.8919  -14.1512  -48.7383 H         1 UNK         0.0600 
    186 H186        3.8314  -16.9915  -48.2724 H         1 UNK         0.0600 
    187 H187        4.9459  -16.4829  -49.5370 H         1 UNK         0.0600 
    188 H188        5.4493  -16.4384  -47.8549 H         1 UNK         0.0600 
    189 H189        2.4616  -15.4895  -49.5709 H         1 UNK         0.3000 
    190 H190       -4.5285  -21.3699  -45.9679 H         1 UNK         0.3000 
    191 H191       -4.6055  -21.9727  -48.7122 H         1 UNK         0.0600 
    192 H192       -6.5876  -22.0731  -47.2474 H         1 UNK         0.0600 
    193 H193       -6.3419  -23.6404  -48.0030 H         1 UNK         0.0600 
    194 H194       -5.8838  -23.4004  -46.3221 H         1 UNK         0.0600 
    195 H195       -2.8877  -23.6207  -46.0809 H         1 UNK         0.3000 
    196 H196       -2.3349  -26.0366  -47.6547 H         1 UNK         0.0600 
    197 H197       -1.1031  -26.7284  -45.6311 H         1 UNK         0.0600 
    198 H198       -2.6953  -26.1398  -45.1785 H         1 UNK         0.0600 
    199 H199       -1.2733  -25.1273  -44.9269 H         1 UNK         0.0600 
    200 H200       -0.8881  -22.8924  -47.2288 H         1 UNK         0.3000 
    201 H201        1.7932  -23.7141  -48.1722 H         1 UNK         0.0600 
    202 H202        1.6455  -21.8729  -46.5203 H         1 UNK         0.0600 
    203 H203        0.6104  -20.9443  -47.6048 H         1 UNK         0.0600 
    204 H204        2.2771  -21.2816  -48.0475 H         1 UNK         0.0600 
    205 H205       -1.1645  -22.0888  -49.2653 H         1 UNK         0.3000 
    206 H206       -0.4538  -21.8208  -52.0564 H         1 UNK         0.0600 
    207 H207       -3.1438  -21.8518  -50.5767 H         1 UNK         0.0600 
    208 H208       -2.1853  -20.4193  -50.9235 H         1 UNK         0.0600 
    209 H209       -2.9224  -21.3194  -52.2336 H         1 UNK         0.0600 
    210 H210       -2.0556  -22.9325  -53.6745 H         1 UNK         0.3000 
    211 H211       -1.5824  -25.7976  -53.5978 H         1 UNK         0.0600 
    212 H212       -2.9389  -23.9975  -55.6743 H         1 UNK         0.0600 
    213 H213       -2.4574  -25.6725  -55.9191 H         1 UNK         0.0600 
    214 H214       -1.2325  -24.4433  -55.6541 H         1 UNK         0.0600 
    215 H215       -3.0470  -25.6115  -51.4909 H         1 UNK         0.3000 
    216 H216       -4.8533  -26.2148  -50.3277 H         1 UNK         0.0600 
    217 H217       -6.5126  -27.7826  -51.2386 H         1 UNK         0.0600 
    218 H218       -4.9025  -28.2768  -51.7375 H         1 UNK         0.0600 
    219 H219       -5.9776  -27.4774  -52.8834 H         1 UNK         0.0600 
    220 H220       -4.6962  -23.7367  -50.8333 H         1 UNK         0.3000 
    221 H221       -5.5090  -21.7085  -51.1879 H         1 UNK         0.0600 
    222 H222       -8.3053  -22.9647  -51.0174 H         1 UNK         0.0600 
    223 H223       -7.3971  -22.2107  -49.7166 H         1 UNK         0.0600 
    224 H224       -7.9670  -21.2387  -51.0565 H         1 UNK         0.0600 
    225 H225       -8.2562  -22.7824  -53.0250 H         1 UNK         0.3000 
    226 H226       -8.8784  -22.6408  -55.1543 H         1 UNK         0.0600 
    227 H227       -7.5223  -24.7700  -55.0429 H         1 UNK         0.0600 
    228 H228       -7.5884  -24.1005  -56.6600 H         1 UNK         0.0600 
    229 H229       -6.1327  -23.9048  -55.6803 H         1 UNK         0.0600 
    230 H230       -6.7276  -22.4706  -57.4035 H         1 UNK         0.3000 
    231 H231       -7.1233  -19.7179  -58.0384 H         1 UNK         0.0600 
    232 H232       -5.2987  -21.8341  -59.3029 H         1 UNK         0.0600 
    233 H233       -5.7408  -20.2978  -60.0377 H         1 UNK         0.0600 
    234 H234       -6.9752  -21.5121  -59.7491 H         1 UNK         0.0600 
    235 H235       -4.6502  -21.2453  -56.1393 H         1 UNK         0.3000 
    236 H236       -2.5661  -19.2638  -56.5991 H         1 UNK         0.0600 
    237 H237       -1.8809  -21.4908  -55.9339 H         1 UNK         0.0600 
    238 H238       -1.5051  -20.4054  -54.6029 H         1 UNK         0.0600 
    239 H239       -2.9132  -21.4587  -54.5111 H         1 UNK         0.0600 
    240 H240       -5.1310  -19.8016  -54.1482 H         1 UNK         0.3000 
    241 H241       -4.5530  -17.2152  -52.8512 H         1 UNK         0.0600 
    242 H242       -7.0715  -18.4949  -55.1677 H         1 UNK         0.3800 
    243 H243       -7.6401  -16.8849  -55.5443 H         1 UNK         0.3800 
    244 H244       -6.6019  -19.3890  -52.2943 H         1 UNK         0.0800 
    245 H245       -6.8146  -17.8039  -51.6167 H         1 UNK         0.0800 
    246 H246       -5.8650  -17.1006  -49.3453 H         1 UNK         0.0800 
    247 H247       -4.7800  -16.4629  -50.5554 H         1 UNK         0.0800 
@<TRIPOS>BOND
     1    1    2 1    
     2    1  127 1    
     3    1  128 1    
     4    1  129 1    
     5    2    3 2    
     6    2    4 am   BACKBONE|DICT|INTERRES
     7    4    5 1    
     8    4  130 1    
     9    5    6 1    
    10    5   65 1    
    11    5  131 1    
    12    6    7 1    
    13    6  132 1    
    14    6  133 1    
    15    7    8 1    
    16    8    9 1    
    17    8  134 1    
    18    8  135 1    
    19    9   10 ar   
    20    9   14 ar   
    21   10   11 ar   
    22   10  136 1    
    23   11   12 ar   
    24   11  126 1    
    25   12   13 ar   
    26   12  137 1    
    27   13   14 ar   
    28   13   15 1    
    29   14  138 1    
    30   15   16 1    
    31   15  139 1    
    32   15  140 1    
    33   16   17 1    
    34   17   18 1    
    35   17  141 1    
    36   17  142 1    
    37   18   19 1    
    38   18   67 1    
    39   18  143 1    
    40   19   20 am   BACKBONE|DICT|INTERRES
    41   19  144 1    
    42   20   21 2    
    43   20   22 1    
    44   22   23 1    
    45   22   24 1    
    46   22  145 1    
    47   23  146 1    
    48   23  147 1    
    49   23  148 1    
    50   24   25 am   BACKBONE|DICT|INTERRES
    51   24  149 1    
    52   25   26 2    
    53   25   27 1    
    54   27   28 1    
    55   27   29 1    
    56   27  150 1    
    57   28  151 1    
    58   28  152 1    
    59   28  153 1    
    60   29   30 am   BACKBONE|DICT|INTERRES
    61   29  154 1    
    62   30   31 2    
    63   30   32 1    
    64   32   33 1    
    65   32   34 1    
    66   32  155 1    
    67   33  156 1    
    68   33  157 1    
    69   33  158 1    
    70   34   35 am   BACKBONE|DICT|INTERRES
    71   34  159 1    
    72   35   36 2    
    73   35   37 1    
    74   37   38 1    
    75   37   39 1    
    76   37  160 1    
    77   38  161 1    
    78   38  162 1    
    79   38  163 1    
    80   39   40 am   BACKBONE|DICT|INTERRES
    81   39  164 1    
    82   40   41 2    
    83   40   42 1    
    84   42   43 1    
    85   42   44 1    
    86   42  165 1    
    87   43  166 1    
    88   43  167 1    
    89   43  168 1    
    90   44   45 am   BACKBONE|DICT|INTERRES
    91   44  169 1    
    92   45   46 2    
    93   45   47 1    
    94   47   48 1    
    95   47   49 1    
    96   47  170 1    
    97   48  171 1    
    98   48  172 1    
    99   48  173 1    
   100   49   50 am   BACKBONE|DICT|INTERRES
   101   49  174 1    
   102   50   51 2    
   103   50   52 1    
   104   52   53 1    
   105   52   54 1    
   106   52  175 1    
   107   53  176 1    
   108   53  177 1    
   109   53  178 1    
   110   54   55 am   BACKBONE|DICT|INTERRES
   111   54  179 1    
   112   55   56 2    
   113   55   57 1    
   114   57   58 1    
   115   57   59 1    
   116   57  180 1    
   117   58  181 1    
   118   58  182 1    
   119   58  183 1    
   120   59   60 am   BACKBONE|DICT|INTERRES
   121   59  184 1    
   122   60   61 2    
   123   60   62 1    
   124   62   63 1    
   125   62   64 1    
   126   62  185 1    
   127   63  186 1    
   128   63  187 1    
   129   63  188 1    
   130   64   65 am   BACKBONE|DICT|INTERRES
   131   64  189 1    
   132   65   66 2    
   133   67   68 2    
   134   67   69 am   BACKBONE|DICT|INTERRES
   135   69   70 1    
   136   69  190 1    
   137   70   71 1    
   138   70   72 1    
   139   70  191 1    
   140   71  192 1    
   141   71  193 1    
   142   71  194 1    
   143   72   73 2    
   144   72   74 am   BACKBONE|DICT|INTERRES
   145   74   75 1    
   146   74  195 1    
   147   75   76 1    
   148   75   77 1    
   149   75  196 1    
   150   76  197 1    
   151   76  198 1    
   152   76  199 1    
   153   77   78 2    
   154   77   79 am   BACKBONE|DICT|INTERRES
   155   79   80 1    
   156   79  200 1    
   157   80   81 1    
   158   80   82 1    
   159   80  201 1    
   160   81  202 1    
   161   81  203 1    
   162   81  204 1    
   163   82   83 2    
   164   82   84 am   BACKBONE|DICT|INTERRES
   165   84   85 1    
   166   84  205 1    
   167   85   86 1    
   168   85   87 1    
   169   85  206 1    
   170   86  207 1    
   171   86  208 1    
   172   86  209 1    
   173   87   88 2    
   174   87   89 am   BACKBONE|DICT|INTERRES
   175   89   90 1    
   176   89  210 1    
   177   90   91 1    
   178   90   92 1    
   179   90  211 1    
   180   91  212 1    
   181   91  213 1    
   182   91  214 1    
   183   92   93 2    
   184   92   94 am   BACKBONE|DICT|INTERRES
   185   94   95 1    
   186   94  215 1    
   187   95   96 1    
   188   95   97 1    
   189   95  216 1    
   190   96  217 1    
   191   96  218 1    
   192   96  219 1    
   193   97   98 2    
   194   97   99 am   BACKBONE|DICT|INTERRES
   195   99  100 1    
   196   99  220 1    
   197  100  101 1    
   198  100  102 1    
   199  100  221 1    
   200  101  222 1    
   201  101  223 1    
   202  101  224 1    
   203  102  103 2    
   204  102  104 am   BACKBONE|DICT|INTERRES
   205  104  105 1    
   206  104  225 1    
   207  105  106 1    
   208  105  107 1    
   209  105  226 1    
   210  106  227 1    
   211  106  228 1    
   212  106  229 1    
   213  107  108 2    
   214  107  109 am   BACKBONE|DICT|INTERRES
   215  109  110 1    
   216  109  230 1    
   217  110  111 1    
   218  110  112 1    
   219  110  231 1    
   220  111  232 1    
   221  111  233 1    
   222  111  234 1    
   223  112  113 2    
   224  112  114 am   BACKBONE|DICT|INTERRES
   225  114  115 1    
   226  114  235 1    
   227  115  116 1    
   228  115  117 1    
   229  115  236 1    
   230  116  237 1    
   231  116  238 1    
   232  116  239 1    
   233  117  118 2    
   234  117  119 am   BACKBONE|DICT|INTERRES
   235  119  120 1    
   236  119  240 1    
   237  120  121 1    
   238  120  124 1    
   239  120  241 1    
   240  121  122 am   BACKBONE|DICT|INTERRES
   241  121  123 2    
   242  122  242 1    
   243  122  243 1    
   244  124  125 1    
   245  124  244 1    
   246  124  245 1    
   247  125  126 1    
   248  126  246 1    
   249  126  247 1    
@<TRIPOS>SUBSTRUCTURE
     1 UNK         1 GROUP             0       ****    0 ROOT    
