@<TRIPOS>MOLECULE
3R540
247   249    1
SMALL
USER_CHARGES


@<TRIPOS>ATOM
      1 CA         -0.5663  -12.2681  -53.7804 C.3       0 UNK        -0.1800 
      2 C           0.5469  -12.3954  -52.7506 C.2       0 UNK         0.5000 
      3 O           1.3262  -11.4596  -52.5719 O.2       0 UNK        -0.5000 
      4 N           0.6166  -13.5425  -52.0659 N.am      1 UNK        -0.5000 
      5 CA          1.5979  -13.8355  -51.0120 C.3       1 UNK         0.1400 
      6 C6          1.9171  -15.3484  -50.9299 C.3       23 UNK        -0.0398 
      7 S7          2.4451  -16.0612  -52.5253 S.3       23 UNK        -0.2404 
      8 C8          3.0549  -17.7002  -51.9956 C.3       23 UNK        -0.0205 
      9 C9          2.0281  -18.6055  -51.3111 C.ar      23 UNK        -0.0193 
     10 C10         0.6475  -18.4551  -51.4966 C.ar      23 UNK        -0.1150 
     11 C11        -0.2580  -19.2983  -50.8488 C.ar      23 UNK        -0.0193 
     12 C12         0.2214  -20.3184  -50.0254 C.ar      23 UNK        -0.1150 
     13 C13         1.5945  -20.5111  -49.8641 C.ar      23 UNK        -0.0193 
     14 C14         2.4900  -19.6447  -50.4966 C.ar      23 UNK        -0.1150 
     15 C15         2.1069  -21.6940  -49.0619 C.3       23 UNK        -0.0205 
     16 S16         2.3835  -21.2918  -47.3112 S.3       23 UNK        -0.2404 
     17 C17         2.7832  -22.9678  -46.6989 C.3       23 UNK        -0.0398 
     18 CA          1.7142  -23.6275  -45.7933 C.3       11 UNK         0.1400 
     19 N           1.7104  -23.0636  -44.4429 N.am      11 UNK        -0.5000 
     20 C           1.2725  -23.7069  -43.3521 C.2       10 UNK         0.5000 
     21 O           0.8104  -24.8479  -43.3892 O.2       10 UNK        -0.5000 
     22 CA          1.3113  -22.9483  -42.0098 C.3       10 UNK         0.1400 
     23 CB          1.7714  -23.8423  -40.8407 C.3       10 UNK        -0.1800 
     24 N           2.0714  -21.6950  -42.0531 N.am      10 UNK        -0.5000 
     25 C           3.3902  -21.5157  -42.2200 C.2       9 UNK         0.5000 
     26 O           4.2018  -22.4344  -42.3337 O.2       9 UNK        -0.5000 
     27 CA          3.8856  -20.0573  -42.3115 C.3       9 UNK         0.1400 
     28 CB          4.2504  -19.7171  -43.7656 C.3       9 UNK        -0.1800 
     29 N           2.9035  -19.0802  -41.8344 N.am      9 UNK        -0.5000 
     30 C           2.5708  -18.8835  -40.5513 C.2       8 UNK         0.5000 
     31 O           3.1276  -19.4434  -39.6064 O.2       8 UNK        -0.5000 
     32 CA          1.3830  -17.9385  -40.2854 C.3       8 UNK         0.1400 
     33 CB          1.8478  -16.4751  -40.2515 C.3       8 UNK        -0.1800 
     34 N           0.3021  -18.0935  -41.2649 N.am      8 UNK        -0.5000 
     35 C          -0.4402  -19.2015  -41.4084 C.2       7 UNK         0.5000 
     36 O          -0.3125  -20.2014  -40.7031 O.2       7 UNK        -0.5000 
     37 CA         -1.4661  -19.2238  -42.5543 C.3       7 UNK         0.1400 
     38 CB         -2.7600  -18.5015  -42.1529 C.3       7 UNK        -0.1800 
     39 N          -0.9377  -18.6473  -43.7894 N.am      7 UNK        -0.5000 
     40 C           0.0159  -19.2063  -44.5477 C.2       6 UNK         0.5000 
     41 O           0.4867  -20.3246  -44.3347 O.2       6 UNK        -0.5000 
     42 CA          0.5497  -18.3654  -45.7247 C.3       6 UNK         0.1400 
     43 CB         -0.3160  -18.5625  -46.9774 C.3       6 UNK        -0.1800 
     44 N           0.6395  -16.9386  -45.4060 N.am      6 UNK        -0.5000 
     45 C           1.4412  -16.4281  -44.4600 C.2       5 UNK         0.5000 
     46 O           2.2323  -17.0999  -43.7999 O.2       5 UNK        -0.5000 
     47 CA          1.2885  -14.9301  -44.1516 C.3       5 UNK         0.1400 
     48 CB          2.1011  -14.0766  -45.1343 C.3       5 UNK        -0.1800 
     49 N          -0.1156  -14.5189  -44.1648 N.am      5 UNK        -0.5000 
     50 C          -0.9977  -14.8494  -43.2102 C.2       4 UNK         0.5000 
     51 O          -0.7014  -15.4972  -42.2072 O.2       4 UNK        -0.5000 
     52 CA         -2.4613  -14.4220  -43.4277 C.3       4 UNK         0.1400 
     53 CB         -2.6842  -12.9868  -42.9289 C.3       4 UNK        -0.1800 
     54 N          -2.8764  -14.5180  -44.8271 N.am      4 UNK        -0.5000 
     55 C          -2.9822  -15.6652  -45.5136 C.2       3 UNK         0.5000 
     56 O          -2.7972  -16.7752  -45.0181 O.2       3 UNK        -0.5000 
     57 CA         -3.2851  -15.5448  -47.0197 C.3       3 UNK         0.1400 
     58 CB         -4.7982  -15.5816  -47.2790 C.3       3 UNK        -0.1800 
     59 N          -2.7166  -14.3346  -47.6221 N.am      3 UNK        -0.5000 
     60 C          -1.4041  -14.0772  -47.7012 C.2       2 UNK         0.5000 
     61 O          -0.5384  -14.8322  -47.2546 O.2       2 UNK        -0.5000 
     62 CA         -1.0113  -12.7471  -48.3659 C.3       2 UNK         0.1400 
     63 CB         -0.3737  -11.7642  -47.3646 C.3       2 UNK        -0.1800 
     64 N          -0.1823  -12.9908  -49.5477 N.am      2 UNK        -0.5000 
     65 C           1.1110  -13.3423  -49.6316 C.2       1 UNK         0.5000 
     66 O           1.9091  -13.3133  -48.6954 O.2       1 UNK        -0.5000 
     67 C           0.2968  -23.6514  -46.4077 C.2       11 UNK         0.5000 
     68 O           0.0175  -24.4974  -47.2579 O.2       11 UNK        -0.5000 
     69 N          -0.5962  -22.7781  -45.9142 N.am      12 UNK        -0.5000 
     70 CA         -2.0228  -22.7236  -46.2498 C.3       12 UNK         0.1400 
     71 CB         -2.6515  -21.5088  -45.5518 C.3       12 UNK        -0.1800 
     72 C          -2.8109  -24.0047  -45.9005 C.2       12 UNK         0.5000 
     73 O          -3.9078  -24.1924  -46.4224 O.2       12 UNK        -0.5000 
     74 N          -2.2510  -24.8659  -45.0382 N.am      13 UNK        -0.5000 
     75 CA         -2.7934  -26.1898  -44.7319 C.3       13 UNK         0.1400 
     76 CB         -2.1447  -26.7103  -43.4404 C.3       13 UNK        -0.1800 
     77 C          -2.5903  -27.1988  -45.8815 C.2       13 UNK         0.5000 
     78 O          -3.3793  -28.1372  -46.0008 O.2       13 UNK        -0.5000 
     79 N          -1.5427  -26.9985  -46.6935 N.am      14 UNK        -0.5000 
     80 CA         -1.2113  -27.8303  -47.8503 C.3       14 UNK         0.1400 
     81 CB          0.3088  -28.0564  -47.8850 C.3       14 UNK        -0.1800 
     82 C          -1.6895  -27.1825  -49.1605 C.2       14 UNK         0.5000 
     83 O          -2.1895  -27.8861  -50.0396 O.2       14 UNK        -0.5000 
     84 N          -1.5204  -25.8588  -49.2698 N.am      15 UNK        -0.5000 
     85 CA         -1.9368  -25.0425  -50.4087 C.3       15 UNK         0.1400 
     86 CB         -1.1087  -23.7479  -50.3907 C.3       15 UNK        -0.1800 
     87 C          -3.4528  -24.7487  -50.4075 C.2       15 UNK         0.5000 
     88 O          -4.1803  -25.1916  -49.5167 O.2       15 UNK        -0.5000 
     89 N          -3.9068  -23.9986  -51.4209 N.am      16 UNK        -0.5000 
     90 CA         -5.3069  -23.6032  -51.6064 C.3       16 UNK         0.1400 
     91 CB         -5.4765  -23.0345  -53.0243 C.3       16 UNK        -0.1800 
     92 C          -5.8175  -22.5884  -50.5626 C.2       16 UNK         0.5000 
     93 O          -7.0245  -22.5253  -50.3266 O.2       16 UNK        -0.5000 
     94 N          -4.8981  -21.8022  -49.9832 N.am      17 UNK        -0.5000 
     95 CA         -5.0782  -20.7087  -49.0180 C.3       17 UNK         0.1400 
     96 CB         -5.8131  -21.1797  -47.7490 C.3       17 UNK        -0.1800 
     97 C          -5.7474  -19.4556  -49.6152 C.2       17 UNK         0.5000 
     98 O          -5.2330  -18.3526  -49.4295 O.2       17 UNK        -0.5000 
     99 N          -6.8657  -19.6483  -50.3208 N.am      18 UNK        -0.5000 
    100 CA        -7.5929  -18.6348  -51.0732 C.3       18 UNK         0.1400 
    101 CB        -9.0290  -18.5488  -50.5338 C.3       18 UNK        -0.1800 
    102 C         -7.5979  -19.0573  -52.5574 C.2       18 UNK         0.5000 
    103 O         -7.8705  -20.2267  -52.8322 O.2       18 UNK        -0.5000 
    104 N         -7.3506  -18.1639  -53.5271 N.am      19 UNK        -0.5000 
    105 CA        -6.8814  -16.7817  -53.3930 C.3       19 UNK         0.1400 
    106 CB        -6.9361  -16.1166  -54.7774 C.3       19 UNK        -0.1800 
    107 C         -5.4503  -16.7048  -52.8264 C.2       19 UNK         0.5000 
    108 O         -4.7161  -17.6912  -52.8776 O.2       19 UNK        -0.5000 
    109 N         -5.0777  -15.5258  -52.3143 N.am      20 UNK        -0.5000 
    110 CA        -3.8271  -15.2578  -51.5928 C.3       20 UNK         0.1400 
    111 CB        -3.8720  -13.8168  -51.0631 C.3       20 UNK        -0.1800 
    112 C         -2.5230  -15.4904  -52.3847 C.2       20 UNK         0.5000 
    113 O         -1.4545  -15.5231  -51.7753 O.2       20 UNK        -0.5000 
    114 N         -2.6119  -15.6269  -53.7125 N.am      21 UNK        -0.5000 
    115 CA        -1.4956  -16.0010  -54.5819 C.3       21 UNK         0.1400 
    116 CB        -1.7061  -15.3472  -55.9566 C.3       21 UNK        -0.1800 
    117 C         -1.3448  -17.5288  -54.7358 C.2       21 UNK         0.5000 
    118 O         -0.2711  -17.9801  -55.1336 O.2       21 UNK        -0.5000 
    119 N         -2.4125  -18.2911  -54.4486 N.am      22 UNK        -0.5000 
    120 CA        -2.5179  -19.7551  -54.6022 C.3       22 UNK         0.1400 
    121 C         -2.3110  -20.2863  -56.0573 C.2       22 UNK         0.5000 
    122 N         -2.4911  -19.4693  -57.0884 N.am      22 UNK        -0.7600 
    123 O         -2.0240  -21.4617  -56.2676 O.2       22 UNK        -0.5000 
    124 C124       -1.6900  -20.5231  -53.5326 C.3       23 UNK        -0.0398 
    125 S125       -2.5169  -20.5243  -51.9048 S.3       23 UNK        -0.2404 
    126 C126       -1.7532  -19.1133  -51.0494 C.3       23 UNK        -0.0205 
    127 H127       -1.0436  -11.2914  -53.7017 H         1 UNK         0.0600 
    128 H128       -1.3344  -13.0271  -53.6407 H         1 UNK         0.0600 
    129 H129       -0.1602  -12.3708  -54.7866 H         1 UNK         0.0600 
    130 H130       -0.0608  -14.2830  -52.2273 H         1 UNK         0.3000 
    131 H131        2.5289  -13.3098  -51.2347 H         1 UNK         0.0600 
    132 H132        2.7069  -15.5286  -50.1982 H         1 UNK         0.0800 
    133 H133        1.0432  -15.8977  -50.5762 H         1 UNK         0.0800 
    134 H134        3.9076  -17.5469  -51.3323 H         1 UNK         0.0800 
    135 H135        3.4375  -18.2222  -52.8734 H         1 UNK         0.0800 
    136 H136        0.2669  -17.6788  -52.1437 H         1 UNK         0.1150 
    137 H137       -0.4768  -20.9777  -49.5317 H         1 UNK         0.1150 
    138 H138        3.5531  -19.7932  -50.3679 H         1 UNK         0.1150 
    139 H139        1.3946  -22.5166  -49.1310 H         1 UNK         0.0800 
    140 H140        3.0377  -22.0594  -49.4985 H         1 UNK         0.0800 
    141 H141        3.7305  -22.9088  -46.1609 H         1 UNK         0.0800 
    142 H142        2.9842  -23.6239  -47.5473 H         1 UNK         0.0800 
    143 H143        2.0099  -24.6747  -45.6956 H         1 UNK         0.0600 
    144 H144        1.9803  -22.0928  -44.3532 H         1 UNK         0.3000 
    145 H145        0.2791  -22.6584  -41.8100 H         1 UNK         0.0600 
    146 H146        1.7814  -23.2880  -39.9021 H         1 UNK         0.0600 
    147 H147        1.0979  -24.6897  -40.7082 H         1 UNK         0.0600 
    148 H148        2.7709  -24.2453  -41.0050 H         1 UNK         0.0600 
    149 H149        1.5036  -20.8608  -41.9851 H         1 UNK         0.3000 
    150 H150        4.7857  -19.9732  -41.6994 H         1 UNK         0.0600 
    151 H151        5.0049  -20.4025  -44.1536 H         1 UNK         0.0600 
    152 H152        4.6565  -18.7085  -43.8447 H         1 UNK         0.0600 
    153 H153        3.3817  -19.7794  -44.4225 H         1 UNK         0.0600 
    154 H154        2.4530  -18.5093  -42.5457 H         1 UNK         0.3000 
    155 H155        0.9776  -18.1862  -39.3022 H         1 UNK         0.0600 
    156 H156        2.6262  -16.3305  -39.5014 H         1 UNK         0.0600 
    157 H157        1.0253  -15.8055  -39.9994 H         1 UNK         0.0600 
    158 H158        2.2553  -16.1592  -41.2115 H         1 UNK         0.0600 
    159 H159        0.0940  -17.2852  -41.8427 H         1 UNK         0.3000 
    160 H160       -1.7131  -20.2688  -42.7461 H         1 UNK         0.0600 
    161 H161       -2.5898  -17.4423  -41.9620 H         1 UNK         0.0600 
    162 H162       -3.1840  -18.9349  -41.2463 H         1 UNK         0.0600 
    163 H163       -3.5140  -18.5831  -42.9360 H         1 UNK         0.0600 
    164 H164       -1.3463  -17.7689  -44.0919 H         1 UNK         0.3000 
    165 H165        1.5580  -18.7169  -45.9499 H         1 UNK         0.0600 
    166 H166        0.0891  -18.0145  -47.8287 H         1 UNK         0.0600 
    167 H167       -0.3533  -19.6155  -47.2578 H         1 UNK         0.0600 
    168 H168       -1.3411  -18.2292  -46.8191 H         1 UNK         0.0600 
    169 H169        0.0527  -16.3054  -45.9392 H         1 UNK         0.3000 
    170 H170        1.6866  -14.7513  -43.1507 H         1 UNK         0.0600 
    171 H171        3.1617  -14.3239  -45.0765 H         1 UNK         0.0600 
    172 H172        1.7874  -14.2376  -46.1651 H         1 UNK         0.0600 
    173 H173        2.0021  -13.0139  -44.9131 H         1 UNK         0.0600 
    174 H174       -0.4419  -14.0476  -44.9956 H         1 UNK         0.3000 
    175 H175       -3.0942  -15.0904  -42.8403 H         1 UNK         0.0600 
    176 H176       -2.3999  -12.8902  -41.8802 H         1 UNK         0.0600 
    177 H177       -2.0951  -12.2654  -43.4966 H         1 UNK         0.0600 
    178 H178       -3.7332  -12.7005  -43.0074 H         1 UNK         0.0600 
    179 H179       -3.0511  -13.6506  -45.3118 H         1 UNK         0.3000 
    180 H180       -2.8365  -16.4074  -47.5167 H         1 UNK         0.0600 
    181 H181       -5.3075  -14.7289  -46.8286 H         1 UNK         0.0600 
    182 H182       -5.2416  -16.4880  -46.8641 H         1 UNK         0.0600 
    183 H183       -5.0153  -15.5798  -48.3475 H         1 UNK         0.0600 
    184 H184       -3.3769  -13.6656  -47.9901 H         1 UNK         0.3000 
    185 H185       -1.9182  -12.2701  -48.7401 H         1 UNK         0.0600 
    186 H186       -1.0888  -11.4850  -46.5903 H         1 UNK         0.0600 
    187 H187        0.4927  -12.1906  -46.8601 H         1 UNK         0.0600 
    188 H188       -0.0556  -10.8471  -47.8602 H         1 UNK         0.0600 
    189 H189       -0.6981  -13.0654  -50.4123 H         1 UNK         0.3000 
    190 H190       -0.2641  -22.0986  -45.2387 H         1 UNK         0.3000 
    191 H191       -2.1079  -22.5793  -47.3280 H         1 UNK         0.0600 
    192 H192       -2.5161  -21.5592  -44.4722 H         1 UNK         0.0600 
    193 H193       -3.7232  -21.4519  -45.7386 H         1 UNK         0.0600 
    194 H194       -2.2173  -20.5764  -45.9083 H         1 UNK         0.0600 
    195 H195       -1.3536  -24.6391  -44.6325 H         1 UNK         0.3000 
    196 H196       -3.8672  -26.0937  -44.5579 H         1 UNK         0.0600 
    197 H197       -2.5709  -27.6715  -43.1503 H         1 UNK         0.0600 
    198 H198       -2.3036  -26.0205  -42.6113 H         1 UNK         0.0600 
    199 H199       -1.0697  -26.8514  -43.5585 H         1 UNK         0.0600 
    200 H200       -0.9702  -26.1746  -46.5570 H         1 UNK         0.3000 
    201 H201       -1.6923  -28.8070  -47.7645 H         1 UNK         0.0600 
    202 H202        0.6510  -28.5631  -46.9825 H         1 UNK         0.0600 
    203 H203        0.8570  -27.1171  -47.9692 H         1 UNK         0.0600 
    204 H204        0.5913  -28.6792  -48.7347 H         1 UNK         0.0600 
    205 H205       -1.0742  -25.3613  -48.5051 H         1 UNK         0.3000 
    206 H206       -1.7050  -25.5856  -51.3272 H         1 UNK         0.0600 
    207 H207       -0.0422  -23.9687  -50.3532 H         1 UNK         0.0600 
    208 H208       -1.2742  -23.1516  -51.2873 H         1 UNK         0.0600 
    209 H209       -1.3537  -23.1306  -49.5272 H         1 UNK         0.0600 
    210 H210       -3.2552  -23.6728  -52.1198 H         1 UNK         0.3000 
    211 H211       -5.9260  -24.4987  -51.5218 H         1 UNK         0.0600 
    212 H212       -6.5167  -22.7666  -53.2149 H         1 UNK         0.0600 
    213 H213       -5.1862  -23.7629  -53.7814 H         1 UNK         0.0600 
    214 H214       -4.8772  -22.1355  -53.1735 H         1 UNK         0.0600 
    215 H215       -3.9505  -21.9115  -50.3165 H         1 UNK         0.3000 
    216 H216       -4.0695  -20.4177  -48.7200 H         1 UNK         0.0600 
    217 H217       -5.7655  -20.4182  -46.9698 H         1 UNK         0.0600 
    218 H218       -5.3669  -22.0895  -47.3495 H         1 UNK         0.0600 
    219 H219       -6.8673  -21.3843  -47.9370 H         1 UNK         0.0600 
    220 H220       -7.1748  -20.6068  -50.4616 H         1 UNK         0.3000 
    221 H221       -7.1296  -17.6612  -50.9295 H         1 UNK         0.0600 
    222 H222       -9.5562  -19.4988  -50.6324 H         1 UNK         0.0600 
    223 H223       -9.0367  -18.2710  -49.4796 H         1 UNK         0.0600 
    224 H224       -9.6030  -17.7952  -51.0741 H         1 UNK         0.0600 
    225 H225       -7.3752  -18.5054  -54.4756 H         1 UNK         0.3000 
    226 H226       -7.5578  -16.2460  -52.7242 H         1 UNK         0.0600 
    227 H227       -7.9462  -16.1418  -55.1871 H         1 UNK         0.0600 
    228 H228       -6.6373  -15.0688  -54.7263 H         1 UNK         0.0600 
    229 H229       -6.2741  -16.6120  -55.4892 H         1 UNK         0.0600 
    230 H230       -5.7341  -14.7587  -52.3455 H         1 UNK         0.3000 
    231 H231       -3.7938  -15.9356  -50.7368 H         1 UNK         0.0600 
    232 H232       -4.7103  -13.6720  -50.3814 H         1 UNK         0.0600 
    233 H233       -3.9673  -13.0939  -51.8743 H         1 UNK         0.0600 
    234 H234       -2.9637  -13.5722  -50.5149 H         1 UNK         0.0600 
    235 H235       -3.5232  -15.5604  -54.1405 H         1 UNK         0.3000 
    236 H236       -0.5597  -15.6197  -54.1676 H         1 UNK         0.0600 
    237 H237       -0.8793  -15.5778  -56.6298 H         1 UNK         0.0600 
    238 H238       -2.6241  -15.6942  -56.4323 H         1 UNK         0.0600 
    239 H239       -1.7620  -14.2619  -55.8741 H         1 UNK         0.0600 
    240 H240       -3.2350  -17.8569  -54.0408 H         1 UNK         0.3000 
    241 H241       -3.5686  -19.9793  -54.4136 H         1 UNK         0.0600 
    242 H242       -2.3687  -19.8202  -58.0253 H         1 UNK         0.3800 
    243 H243       -2.7415  -18.5053  -56.9421 H         1 UNK         0.3800 
    244 H244       -1.5740  -21.5742  -53.7984 H         1 UNK         0.0800 
    245 H245       -0.6767  -20.1293  -53.4574 H         1 UNK         0.0800 
    246 H246       -1.9637  -18.2075  -51.6149 H         1 UNK         0.0800 
    247 H247       -2.2318  -18.9839  -50.0779 H         1 UNK         0.0800 
@<TRIPOS>BOND
     1    1    2 1    
     2    1  127 1    
     3    1  128 1    
     4    1  129 1    
     5    2    3 2    
     6    2    4 am   BACKBONE|DICT|INTERRES
     7    4    5 1    
     8    4  130 1    
     9    5    6 1    
    10    5   65 1    
    11    5  131 1    
    12    6    7 1    
    13    6  132 1    
    14    6  133 1    
    15    7    8 1    
    16    8    9 1    
    17    8  134 1    
    18    8  135 1    
    19    9   10 ar   
    20    9   14 ar   
    21   10   11 ar   
    22   10  136 1    
    23   11   12 ar   
    24   11  126 1    
    25   12   13 ar   
    26   12  137 1    
    27   13   14 ar   
    28   13   15 1    
    29   14  138 1    
    30   15   16 1    
    31   15  139 1    
    32   15  140 1    
    33   16   17 1    
    34   17   18 1    
    35   17  141 1    
    36   17  142 1    
    37   18   19 1    
    38   18   67 1    
    39   18  143 1    
    40   19   20 am   BACKBONE|DICT|INTERRES
    41   19  144 1    
    42   20   21 2    
    43   20   22 1    
    44   22   23 1    
    45   22   24 1    
    46   22  145 1    
    47   23  146 1    
    48   23  147 1    
    49   23  148 1    
    50   24   25 am   BACKBONE|DICT|INTERRES
    51   24  149 1    
    52   25   26 2    
    53   25   27 1    
    54   27   28 1    
    55   27   29 1    
    56   27  150 1    
    57   28  151 1    
    58   28  152 1    
    59   28  153 1    
    60   29   30 am   BACKBONE|DICT|INTERRES
    61   29  154 1    
    62   30   31 2    
    63   30   32 1    
    64   32   33 1    
    65   32   34 1    
    66   32  155 1    
    67   33  156 1    
    68   33  157 1    
    69   33  158 1    
    70   34   35 am   BACKBONE|DICT|INTERRES
    71   34  159 1    
    72   35   36 2    
    73   35   37 1    
    74   37   38 1    
    75   37   39 1    
    76   37  160 1    
    77   38  161 1    
    78   38  162 1    
    79   38  163 1    
    80   39   40 am   BACKBONE|DICT|INTERRES
    81   39  164 1    
    82   40   41 2    
    83   40   42 1    
    84   42   43 1    
    85   42   44 1    
    86   42  165 1    
    87   43  166 1    
    88   43  167 1    
    89   43  168 1    
    90   44   45 am   BACKBONE|DICT|INTERRES
    91   44  169 1    
    92   45   46 2    
    93   45   47 1    
    94   47   48 1    
    95   47   49 1    
    96   47  170 1    
    97   48  171 1    
    98   48  172 1    
    99   48  173 1    
   100   49   50 am   BACKBONE|DICT|INTERRES
   101   49  174 1    
   102   50   51 2    
   103   50   52 1    
   104   52   53 1    
   105   52   54 1    
   106   52  175 1    
   107   53  176 1    
   108   53  177 1    
   109   53  178 1    
   110   54   55 am   BACKBONE|DICT|INTERRES
   111   54  179 1    
   112   55   56 2    
   113   55   57 1    
   114   57   58 1    
   115   57   59 1    
   116   57  180 1    
   117   58  181 1    
   118   58  182 1    
   119   58  183 1    
   120   59   60 am   BACKBONE|DICT|INTERRES
   121   59  184 1    
   122   60   61 2    
   123   60   62 1    
   124   62   63 1    
   125   62   64 1    
   126   62  185 1    
   127   63  186 1    
   128   63  187 1    
   129   63  188 1    
   130   64   65 am   BACKBONE|DICT|INTERRES
   131   64  189 1    
   132   65   66 2    
   133   67   68 2    
   134   67   69 am   BACKBONE|DICT|INTERRES
   135   69   70 1    
   136   69  190 1    
   137   70   71 1    
   138   70   72 1    
   139   70  191 1    
   140   71  192 1    
   141   71  193 1    
   142   71  194 1    
   143   72   73 2    
   144   72   74 am   BACKBONE|DICT|INTERRES
   145   74   75 1    
   146   74  195 1    
   147   75   76 1    
   148   75   77 1    
   149   75  196 1    
   150   76  197 1    
   151   76  198 1    
   152   76  199 1    
   153   77   78 2    
   154   77   79 am   BACKBONE|DICT|INTERRES
   155   79   80 1    
   156   79  200 1    
   157   80   81 1    
   158   80   82 1    
   159   80  201 1    
   160   81  202 1    
   161   81  203 1    
   162   81  204 1    
   163   82   83 2    
   164   82   84 am   BACKBONE|DICT|INTERRES
   165   84   85 1    
   166   84  205 1    
   167   85   86 1    
   168   85   87 1    
   169   85  206 1    
   170   86  207 1    
   171   86  208 1    
   172   86  209 1    
   173   87   88 2    
   174   87   89 am   BACKBONE|DICT|INTERRES
   175   89   90 1    
   176   89  210 1    
   177   90   91 1    
   178   90   92 1    
   179   90  211 1    
   180   91  212 1    
   181   91  213 1    
   182   91  214 1    
   183   92   93 2    
   184   92   94 am   BACKBONE|DICT|INTERRES
   185   94   95 1    
   186   94  215 1    
   187   95   96 1    
   188   95   97 1    
   189   95  216 1    
   190   96  217 1    
   191   96  218 1    
   192   96  219 1    
   193   97   98 2    
   194   97   99 am   BACKBONE|DICT|INTERRES
   195   99  100 1    
   196   99  220 1    
   197  100  101 1    
   198  100  102 1    
   199  100  221 1    
   200  101  222 1    
   201  101  223 1    
   202  101  224 1    
   203  102  103 2    
   204  102  104 am   BACKBONE|DICT|INTERRES
   205  104  105 1    
   206  104  225 1    
   207  105  106 1    
   208  105  107 1    
   209  105  226 1    
   210  106  227 1    
   211  106  228 1    
   212  106  229 1    
   213  107  108 2    
   214  107  109 am   BACKBONE|DICT|INTERRES
   215  109  110 1    
   216  109  230 1    
   217  110  111 1    
   218  110  112 1    
   219  110  231 1    
   220  111  232 1    
   221  111  233 1    
   222  111  234 1    
   223  112  113 2    
   224  112  114 am   BACKBONE|DICT|INTERRES
   225  114  115 1    
   226  114  235 1    
   227  115  116 1    
   228  115  117 1    
   229  115  236 1    
   230  116  237 1    
   231  116  238 1    
   232  116  239 1    
   233  117  118 2    
   234  117  119 am   BACKBONE|DICT|INTERRES
   235  119  120 1    
   236  119  240 1    
   237  120  121 1    
   238  120  124 1    
   239  120  241 1    
   240  121  122 am   BACKBONE|DICT|INTERRES
   241  121  123 2    
   242  122  242 1    
   243  122  243 1    
   244  124  125 1    
   245  124  244 1    
   246  124  245 1    
   247  125  126 1    
   248  126  246 1    
   249  126  247 1    
@<TRIPOS>SUBSTRUCTURE
     1 UNK         1 GROUP             0       ****    0 ROOT    
