@<TRIPOS>MOLECULE
3R540
247   249    1
SMALL
USER_CHARGES


@<TRIPOS>ATOM
      1 CA         -1.4002  -10.8383  -51.4639 C.3       0 UNK        -0.1800 
      2 C          -1.2320  -11.2631  -50.0114 C.2       0 UNK         0.5000 
      3 O          -1.4394  -10.4467  -49.1135 O.2       0 UNK        -0.5000 
      4 N          -0.8689  -12.5347  -49.7921 N.am      1 UNK        -0.5000 
      5 CA         -0.5898  -13.1761  -48.4997 C.3       1 UNK         0.1400 
      6 C6         -1.7613  -13.0337  -47.4844 C.3       23 UNK        -0.0398 
      7 S7         -1.6929  -14.2164  -46.0957 S.3       23 UNK        -0.2404 
      8 C8         -3.0196  -15.4130  -46.4699 C.3       23 UNK        -0.0205 
      9 C9         -2.7656  -16.3099  -47.6800 C.ar      23 UNK        -0.0193 
     10 C10        -3.8590  -16.7972  -48.4010 C.ar      23 UNK        -0.1150 
     11 C11        -3.6858  -17.6337  -49.5079 C.ar      23 UNK        -0.0193 
     12 C12        -2.3823  -17.9643  -49.9036 C.ar      23 UNK        -0.1150 
     13 C13        -1.2759  -17.4772  -49.2032 C.ar      23 UNK        -0.0193 
     14 C14        -1.4758  -16.6788  -48.0758 C.ar      23 UNK        -0.1150 
     15 C15         0.1379  -17.7636  -49.6925 C.3       23 UNK        -0.0205 
     16 S16         0.6598  -19.4848  -49.4278 S.3       23 UNK        -0.2404 
     17 C17         0.6375  -19.6159  -47.6078 C.3       23 UNK        -0.0398 
     18 CA         -0.0566  -20.9039  -47.1124 C.3       11 UNK         0.1400 
     19 N           0.2084  -21.1475  -45.6946 N.am      11 UNK        -0.5000 
     20 C          -0.0558  -22.2961  -45.0585 C.2       10 UNK         0.5000 
     21 O          -0.5587  -23.2792  -45.6017 O.2       10 UNK        -0.5000 
     22 CA          0.2622  -22.3439  -43.5546 C.3       10 UNK         0.1400 
     23 CB          1.7713  -22.5093  -43.3219 C.3       10 UNK        -0.1800 
     24 N          -0.2244  -21.1666  -42.8353 N.am      10 UNK        -0.5000 
     25 C          -1.5175  -20.8263  -42.7321 C.2       9 UNK         0.5000 
     26 O          -2.4394  -21.4735  -43.2283 O.2       9 UNK        -0.5000 
     27 CA         -1.8355  -19.5230  -41.9806 C.3       9 UNK         0.1400 
     28 CB         -1.7233  -19.7265  -40.4623 C.3       9 UNK        -0.1800 
     29 N          -0.9830  -18.4093  -42.3919 N.am      9 UNK        -0.5000 
     30 C          -0.9300  -17.9085  -43.6347 C.2       8 UNK         0.5000 
     31 O          -1.5991  -18.3271  -44.5789 O.2       8 UNK        -0.5000 
     32 CA          0.0869  -16.7819  -43.8714 C.3       8 UNK         0.1400 
     33 CB         -0.3655  -15.4847  -43.1844 C.3       8 UNK        -0.1800 
     34 N           1.4255  -17.1338  -43.4038 N.am      8 UNK        -0.5000 
     35 C           2.1398  -18.1911  -43.8142 C.2       7 UNK         0.5000 
     36 O           1.7717  -18.9792  -44.6837 O.2       7 UNK        -0.5000 
     37 CA          3.4730  -18.4353  -43.0917 C.3       7 UNK         0.1400 
     38 CB          4.5717  -17.5217  -43.6540 C.3       7 UNK        -0.1800 
     39 N           3.3526  -18.2365  -41.6475 N.am      7 UNK        -0.5000 
     40 C           2.6319  -19.0209  -40.8328 C.2       6 UNK         0.5000 
     41 O           2.0099  -20.0154  -41.2069 O.2       6 UNK        -0.5000 
     42 CA          2.5619  -18.5906  -39.3575 C.3       6 UNK         0.1400 
     43 CB          3.8393  -18.9978  -38.6078 C.3       6 UNK        -0.1800 
     44 N           2.3466  -17.1504  -39.2107 N.am      6 UNK        -0.5000 
     45 C           1.2203  -16.5191  -39.5696 C.2       5 UNK         0.5000 
     46 O           0.2362  -17.0904  -40.0391 O.2       5 UNK        -0.5000 
     47 CA          1.2027  -14.9882  -39.4064 C.3       5 UNK         0.1400 
     48 CB          0.7804  -14.6047  -37.9802 C.3       5 UNK        -0.1800 
     49 N           2.4797  -14.3422  -39.7244 N.am      5 UNK        -0.5000 
     50 C           3.0750  -14.3698  -40.9240 C.2       4 UNK         0.5000 
     51 O           2.6602  -15.0210  -41.8848 O.2       4 UNK        -0.5000 
     52 CA          4.3704  -13.5577  -41.0690 C.3       4 UNK         0.1400 
     53 CB          5.5907  -14.4878  -41.1477 C.3       4 UNK        -0.1800 
     54 N           4.3123  -12.7318  -42.2729 N.am      4 UNK        -0.5000 
     55 C           3.7067  -11.5384  -42.3425 C.2       3 UNK         0.5000 
     56 O           3.1827  -10.9811  -41.3769 O.2       3 UNK        -0.5000 
     57 CA          3.6890  -10.8439  -43.7179 C.3       3 UNK         0.1400 
     58 CB          4.9414   -9.9713  -43.8956 C.3       3 UNK        -0.1800 
     59 N           3.6001  -11.7894  -44.8331 N.am      3 UNK        -0.5000 
     60 C           2.4764  -12.4238  -45.1898 C.2       2 UNK         0.5000 
     61 O           1.3914  -12.2654  -44.6256 O.2       2 UNK        -0.5000 
     62 CA          2.6054  -13.4245  -46.3527 C.3       2 UNK         0.1400 
     63 CB          3.0886  -14.7858  -45.8283 C.3       2 UNK        -0.1800 
     64 N           1.3314  -13.6171  -47.0431 N.am      2 UNK        -0.5000 
     65 C           0.7921  -12.7672  -47.9259 C.2       1 UNK         0.5000 
     66 O           1.3633  -11.7420  -48.3072 O.2       1 UNK        -0.5000 
     67 C          -1.5652  -20.9302  -47.4327 C.2       11 UNK         0.5000 
     68 O          -1.9503  -21.5378  -48.4325 O.2       11 UNK        -0.5000 
     69 N          -2.3915  -20.3307  -46.5628 N.am      12 UNK        -0.5000 
     70 CA         -3.8496  -20.3566  -46.6710 C.3       12 UNK         0.1400 
     71 CB         -4.4659  -19.3931  -45.6466 C.3       12 UNK        -0.1800 
     72 C          -4.4298  -21.7731  -46.5066 C.2       12 UNK         0.5000 
     73 O          -5.3027  -22.1587  -47.2840 O.2       12 UNK        -0.5000 
     74 N          -3.9164  -22.5341  -45.5279 N.am      13 UNK        -0.5000 
     75 CA         -4.3019  -23.9234  -45.2660 C.3       13 UNK         0.1400 
     76 CB         -3.6921  -24.3884  -43.9350 C.3       13 UNK        -0.1800 
     77 C          -3.9094  -24.8803  -46.4066 C.2       13 UNK         0.5000 
     78 O          -4.6982  -25.7556  -46.7645 O.2       13 UNK        -0.5000 
     79 N          -2.7129  -24.6795  -46.9748 N.am      14 UNK        -0.5000 
     80 CA         -2.2074  -25.4165  -48.1347 C.3       14 UNK         0.1400 
     81 CB         -0.6809  -25.2484  -48.2010 C.3       14 UNK        -0.1800 
     82 C          -2.8406  -24.9722  -49.4676 C.2       14 UNK         0.5000 
     83 O          -2.6462  -25.6532  -50.4745 O.2       14 UNK        -0.5000 
     84 N          -3.5313  -23.8233  -49.4674 N.am      15 UNK        -0.5000 
     85 CA         -4.0960  -23.1149  -50.6193 C.3       15 UNK         0.1400 
     86 CB         -5.3020  -23.8828  -51.1962 C.3       15 UNK        -0.1800 
     87 C          -3.0240  -22.7819  -51.6784 C.2       15 UNK         0.5000 
     88 O          -3.2325  -23.0233  -52.8670 O.2       15 UNK        -0.5000 
     89 N          -1.8664  -22.2919  -51.2081 N.am      16 UNK        -0.5000 
     90 CA         -0.6438  -22.0264  -51.9769 C.3       16 UNK         0.1400 
     91 CB         -0.8157  -20.7727  -52.8564 C.3       16 UNK        -0.1800 
     92 C          -0.1542  -23.2603  -52.7686 C.2       16 UNK         0.5000 
     93 O           0.1922  -23.1477  -53.9455 O.2       16 UNK        -0.5000 
     94 N          -0.1594  -24.4182  -52.0908 N.am      17 UNK        -0.5000 
     95 CA          0.1319  -25.7583  -52.6096 C.3       17 UNK         0.1400 
     96 CB          1.5865  -25.8665  -53.1151 C.3       17 UNK        -0.1800 
     97 C          -0.9195  -26.2177  -53.6413 C.2       17 UNK         0.5000 
     98 O          -0.5726  -26.6065  -54.7584 O.2       17 UNK        -0.5000 
     99 N          -2.1910  -26.1711  -53.2188 N.am      18 UNK        -0.5000 
    100 CA        -3.3938  -26.6032  -53.9369 C.3       18 UNK         0.1400 
    101 CB        -3.4030  -28.1384  -54.0930 C.3       18 UNK        -0.1800 
    102 C         -3.6318  -25.8583  -55.2678 C.2       18 UNK         0.5000 
    103 O         -4.0363  -26.4736  -56.2572 O.2       18 UNK        -0.5000 
    104 N         -3.3906  -24.5429  -55.2696 N.am      19 UNK        -0.5000 
    105 CA        -3.6916  -23.6522  -56.3852 C.3       19 UNK         0.1400 
    106 CB        -2.6939  -22.4860  -56.3743 C.3       19 UNK        -0.1800 
    107 C         -5.1375  -23.1420  -56.2666 C.2       19 UNK         0.5000 
    108 O         -5.6107  -22.8852  -55.1558 O.2       19 UNK        -0.5000 
    109 N         -5.8113  -22.9873  -57.4141 N.am      20 UNK        -0.5000 
    110 CA        -7.1883  -22.5008  -57.5246 C.3       20 UNK         0.1400 
    111 CB        -7.6355  -22.5769  -58.9933 C.3       20 UNK        -0.1800 
    112 C         -7.3205  -21.0697  -56.9739 C.2       20 UNK         0.5000 
    113 O         -6.7567  -20.1415  -57.5579 O.2       20 UNK        -0.5000 
    114 N         -7.9973  -20.9376  -55.8235 N.am      21 UNK        -0.5000 
    115 CA        -8.1568  -19.7113  -55.0289 C.3       21 UNK         0.1400 
    116 CB        -9.0959  -18.7232  -55.7518 C.3       21 UNK        -0.1800 
    117 C         -6.8102  -19.0686  -54.6197 C.2       21 UNK         0.5000 
    118 O         -6.7143  -17.8431  -54.5360 O.2       21 UNK        -0.5000 
    119 N         -5.7913  -19.9138  -54.4064 N.am      22 UNK        -0.5000 
    120 CA        -4.3827  -19.5489  -54.1770 C.3       22 UNK         0.1400 
    121 C         -3.6535  -18.9617  -55.4265 C.2       22 UNK         0.5000 
    122 N         -4.2131  -19.0241  -56.6296 N.am      22 UNK        -0.7600 
    123 O         -2.5363  -18.4653  -55.3152 O.2       22 UNK        -0.5000 
    124 C124       -4.1494  -18.6901  -52.9009 C.3       23 UNK        -0.0398 
    125 S125       -4.7174  -19.5274  -51.3821 S.3       23 UNK        -0.2404 
    126 C126       -4.9408  -18.1248  -50.2357 C.3       23 UNK        -0.0205 
    127 H127       -2.4179  -10.4887  -51.6374 H         1 UNK         0.0600 
    128 H128       -1.2009  -11.6587  -52.1538 H         1 UNK         0.0600 
    129 H129       -0.7145  -10.0239  -51.6979 H         1 UNK         0.0600 
    130 H130       -0.7034  -13.1257  -50.5947 H         1 UNK         0.3000 
    131 H131       -0.5033  -14.2312  -48.7558 H         1 UNK         0.0600 
    132 H132       -1.7854  -12.0277  -47.0635 H         1 UNK         0.0800 
    133 H133       -2.7143  -13.1657  -47.9985 H         1 UNK         0.0800 
    134 H134       -3.1515  -16.0550  -45.5982 H         1 UNK         0.0800 
    135 H135       -3.9548  -14.8648  -46.5935 H         1 UNK         0.0800 
    136 H136       -4.8595  -16.5277  -48.0924 H         1 UNK         0.1150 
    137 H137       -2.2091  -18.5996  -50.7556 H         1 UNK         0.1150 
    138 H138       -0.6188  -16.3283  -47.5210 H         1 UNK         0.1150 
    139 H139        0.1924  -17.5457  -50.7600 H         1 UNK         0.0800 
    140 H140        0.8567  -17.0978  -49.2123 H         1 UNK         0.0800 
    141 H141        0.1813  -18.7363  -47.1528 H         1 UNK         0.0800 
    142 H142        1.6783  -19.6117  -47.2820 H         1 UNK         0.0800 
    143 H143        0.3924  -21.7403  -47.6531 H         1 UNK         0.0600 
    144 H144        0.6391  -20.3823  -45.1802 H         1 UNK         0.3000 
    145 H145       -0.2420  -23.2185  -43.1385 H         1 UNK         0.0600 
    146 H146        1.9931  -22.6452  -42.2633 H         1 UNK         0.0600 
    147 H147        2.1555  -23.3832  -43.8494 H         1 UNK         0.0600 
    148 H148        2.3305  -21.6407  -43.6711 H         1 UNK         0.0600 
    149 H149        0.4769  -20.5904  -42.3799 H         1 UNK         0.3000 
    150 H150       -2.8675  -19.2515  -42.2120 H         1 UNK         0.0600 
    151 H151       -2.3516  -20.5540  -40.1303 H         1 UNK         0.0600 
    152 H152       -2.0453  -18.8363  -39.9218 H         1 UNK         0.0600 
    153 H153       -0.6988  -19.9473  -40.1600 H         1 UNK         0.0600 
    154 H154       -0.4057  -17.9908  -41.6681 H         1 UNK         0.3000 
    155 H155        0.1410  -16.6036  -44.9470 H         1 UNK         0.0600 
    156 H156       -1.4008  -15.2471  -43.4285 H         1 UNK         0.0600 
    157 H157        0.2497  -14.6397  -43.4944 H         1 UNK         0.0600 
    158 H158       -0.3066  -15.5588  -42.1011 H         1 UNK         0.0600 
    159 H159        1.8374  -16.5093  -42.7150 H         1 UNK         0.3000 
    160 H160        3.7672  -19.4720  -43.2682 H         1 UNK         0.0600 
    161 H161        4.3217  -16.4684  -43.5294 H         1 UNK         0.0600 
    162 H162        4.7141  -17.6977  -44.7210 H         1 UNK         0.0600 
    163 H163        5.5280  -17.7025  -43.1633 H         1 UNK         0.0600 
    164 H164        3.7871  -17.4108  -41.2645 H         1 UNK         0.3000 
    165 H165        1.7175  -19.1099  -38.8990 H         1 UNK         0.0600 
    166 H166        3.7627  -18.7665  -37.5452 H         1 UNK         0.0600 
    167 H167        4.0159  -20.0709  -38.6937 H         1 UNK         0.0600 
    168 H168        4.7199  -18.4876  -38.9999 H         1 UNK         0.0600 
    169 H169        3.1072  -16.6056  -38.8323 H         1 UNK         0.3000 
    170 H170        0.4547  -14.5917  -40.0952 H         1 UNK         0.0600 
    171 H171       -0.1791  -15.0555  -37.7228 H         1 UNK         0.0600 
    172 H172        1.5088  -14.9379  -37.2399 H         1 UNK         0.0600 
    173 H173        0.6673  -13.5252  -37.8788 H         1 UNK         0.0600 
    174 H174        2.8939  -13.7885  -38.9884 H         1 UNK         0.3000 
    175 H175        4.4921  -12.9138  -40.1952 H         1 UNK         0.0600 
    176 H176        5.5561  -15.1313  -42.0263 H         1 UNK         0.0600 
    177 H177        6.5171  -13.9149  -41.1922 H         1 UNK         0.0600 
    178 H178        5.6500  -15.1321  -40.2695 H         1 UNK         0.0600 
    179 H179        4.6712  -13.1425  -43.1211 H         1 UNK         0.3000 
    180 H180        2.8157  -10.1884  -43.7467 H         1 UNK         0.0600 
    181 H181        5.8542  -10.5684  -43.8906 H         1 UNK         0.0600 
    182 H182        5.0240   -9.2392  -43.0911 H         1 UNK         0.0600 
    183 H183        4.9066   -9.4178  -44.8341 H         1 UNK         0.0600 
    184 H184        4.4523  -11.9660  -45.3455 H         1 UNK         0.3000 
    185 H185        3.3379  -13.0445  -47.0680 H         1 UNK         0.0600 
    186 H186        4.0772  -14.7033  -45.3757 H         1 UNK         0.0600 
    187 H187        2.4148  -15.1799  -45.0682 H         1 UNK         0.0600 
    188 H188        3.1592  -15.5211  -46.6300 H         1 UNK         0.0600 
    189 H189        0.7642  -14.3845  -46.7144 H         1 UNK         0.3000 
    190 H190       -2.0048  -19.8120  -45.7789 H         1 UNK         0.3000 
    191 H191       -4.1142  -20.0030  -47.6698 H         1 UNK         0.0600 
    192 H192       -4.1253  -18.3720  -45.8149 H         1 UNK         0.0600 
    193 H193       -5.5541  -19.3887  -45.7182 H         1 UNK         0.0600 
    194 H194       -4.2019  -19.6685  -44.6249 H         1 UNK         0.0600 
    195 H195       -3.2282  -22.1299  -44.8985 H         1 UNK         0.3000 
    196 H196       -5.3890  -23.9546  -45.1683 H         1 UNK         0.0600 
    197 H197       -3.9680  -25.4208  -43.7168 H         1 UNK         0.0600 
    198 H198       -4.0451  -23.7758  -43.1054 H         1 UNK         0.0600 
    199 H199       -2.6030  -24.3344  -43.9505 H         1 UNK         0.0600 
    200 H200       -2.0904  -23.9819  -46.5752 H         1 UNK         0.3000 
    201 H201       -2.4305  -26.4769  -48.0014 H         1 UNK         0.0600 
    202 H202       -0.2064  -25.5989  -47.2843 H         1 UNK         0.0600 
    203 H203       -0.3987  -24.2044  -48.3447 H         1 UNK         0.0600 
    204 H204       -0.2556  -25.8228  -49.0249 H         1 UNK         0.0600 
    205 H205       -3.5871  -23.3205  -48.5915 H         1 UNK         0.3000 
    206 H206       -4.4620  -22.1637  -50.2339 H         1 UNK         0.0600 
    207 H207       -6.0620  -24.0486  -50.4329 H         1 UNK         0.0600 
    208 H208       -5.7706  -23.3215  -52.0060 H         1 UNK         0.0600 
    209 H209       -5.0113  -24.8535  -51.5960 H         1 UNK         0.0600 
    210 H210       -1.8155  -22.0963  -50.2096 H         1 UNK         0.3000 
    211 H211        0.1361  -21.8111  -51.2461 H         1 UNK         0.0600 
    212 H212       -1.5679  -20.9208  -53.6293 H         1 UNK         0.0600 
    213 H213        0.1185  -20.5128  -53.3551 H         1 UNK         0.0600 
    214 H214       -1.1096  -19.9116  -52.2594 H         1 UNK         0.0600 
    215 H215       -0.5151  -24.3946  -51.1464 H         1 UNK         0.3000 
    216 H216        0.0372  -26.4368  -51.7603 H         1 UNK         0.0600 
    217 H217        1.8299  -26.8976  -53.3737 H         1 UNK         0.0600 
    218 H218        2.2944  -25.5483  -52.3499 H         1 UNK         0.0600 
    219 H219        1.7589  -25.2610  -54.0050 H         1 UNK         0.0600 
    220 H220       -2.3579  -25.8449  -52.2682 H         1 UNK         0.3000 
    221 H221       -4.2354  -26.3391  -53.2962 H         1 UNK         0.0600 
    222 H222       -2.6118  -28.4820  -54.7602 H         1 UNK         0.0600 
    223 H223       -3.2690  -28.6327  -53.1308 H         1 UNK         0.0600 
    224 H224       -4.3518  -28.4852  -54.5041 H         1 UNK         0.0600 
    225 H225       -3.1661  -24.0834  -54.3886 H         1 UNK         0.3000 
    226 H226       -3.5774  -24.1892  -57.3292 H         1 UNK         0.0600 
    227 H227       -1.6722  -22.8422  -56.5075 H         1 UNK         0.0600 
    228 H228       -2.9031  -21.7791  -57.1780 H         1 UNK         0.0600 
    229 H229       -2.7306  -21.9388  -55.4339 H         1 UNK         0.0600 
    230 H230       -5.3424  -23.1893  -58.2850 H         1 UNK         0.3000 
    231 H231       -7.8284  -23.1667  -56.9421 H         1 UNK         0.0600 
    232 H232       -7.0034  -21.9677  -59.6408 H         1 UNK         0.0600 
    233 H233       -8.6605  -22.2215  -59.1070 H         1 UNK         0.0600 
    234 H234       -7.6049  -23.6021  -59.3627 H         1 UNK         0.0600 
    235 H235       -8.3762  -21.7741  -55.4009 H         1 UNK         0.3000 
    236 H236       -8.6427  -20.0084  -54.0985 H         1 UNK         0.0600 
    237 H237      -10.0410  -19.1982  -56.0150 H         1 UNK         0.0600 
    238 H238       -9.3306  -17.8684  -55.1165 H         1 UNK         0.0600 
    239 H239       -8.6481  -18.3369  -56.6680 H         1 UNK         0.0600 
    240 H240       -5.9577  -20.9076  -54.5248 H         1 UNK         0.3000 
    241 H241       -3.8859  -20.5024  -54.0027 H         1 UNK         0.0600 
    242 H242       -3.7144  -18.6437  -57.4176 H         1 UNK         0.3800 
    243 H243       -5.1377  -19.4183  -56.7737 H         1 UNK         0.3800 
    244 H244       -3.0883  -18.4732  -52.7825 H         1 UNK         0.0800 
    245 H245       -4.6408  -17.7215  -52.9927 H         1 UNK         0.0800 
    246 H246       -5.3963  -17.2885  -50.7672 H         1 UNK         0.0800 
    247 H247       -5.6692  -18.4402  -49.4872 H         1 UNK         0.0800 
@<TRIPOS>BOND
     1    1    2 1    
     2    1  127 1    
     3    1  128 1    
     4    1  129 1    
     5    2    3 2    
     6    2    4 am   BACKBONE|DICT|INTERRES
     7    4    5 1    
     8    4  130 1    
     9    5    6 1    
    10    5   65 1    
    11    5  131 1    
    12    6    7 1    
    13    6  132 1    
    14    6  133 1    
    15    7    8 1    
    16    8    9 1    
    17    8  134 1    
    18    8  135 1    
    19    9   10 ar   
    20    9   14 ar   
    21   10   11 ar   
    22   10  136 1    
    23   11   12 ar   
    24   11  126 1    
    25   12   13 ar   
    26   12  137 1    
    27   13   14 ar   
    28   13   15 1    
    29   14  138 1    
    30   15   16 1    
    31   15  139 1    
    32   15  140 1    
    33   16   17 1    
    34   17   18 1    
    35   17  141 1    
    36   17  142 1    
    37   18   19 1    
    38   18   67 1    
    39   18  143 1    
    40   19   20 am   BACKBONE|DICT|INTERRES
    41   19  144 1    
    42   20   21 2    
    43   20   22 1    
    44   22   23 1    
    45   22   24 1    
    46   22  145 1    
    47   23  146 1    
    48   23  147 1    
    49   23  148 1    
    50   24   25 am   BACKBONE|DICT|INTERRES
    51   24  149 1    
    52   25   26 2    
    53   25   27 1    
    54   27   28 1    
    55   27   29 1    
    56   27  150 1    
    57   28  151 1    
    58   28  152 1    
    59   28  153 1    
    60   29   30 am   BACKBONE|DICT|INTERRES
    61   29  154 1    
    62   30   31 2    
    63   30   32 1    
    64   32   33 1    
    65   32   34 1    
    66   32  155 1    
    67   33  156 1    
    68   33  157 1    
    69   33  158 1    
    70   34   35 am   BACKBONE|DICT|INTERRES
    71   34  159 1    
    72   35   36 2    
    73   35   37 1    
    74   37   38 1    
    75   37   39 1    
    76   37  160 1    
    77   38  161 1    
    78   38  162 1    
    79   38  163 1    
    80   39   40 am   BACKBONE|DICT|INTERRES
    81   39  164 1    
    82   40   41 2    
    83   40   42 1    
    84   42   43 1    
    85   42   44 1    
    86   42  165 1    
    87   43  166 1    
    88   43  167 1    
    89   43  168 1    
    90   44   45 am   BACKBONE|DICT|INTERRES
    91   44  169 1    
    92   45   46 2    
    93   45   47 1    
    94   47   48 1    
    95   47   49 1    
    96   47  170 1    
    97   48  171 1    
    98   48  172 1    
    99   48  173 1    
   100   49   50 am   BACKBONE|DICT|INTERRES
   101   49  174 1    
   102   50   51 2    
   103   50   52 1    
   104   52   53 1    
   105   52   54 1    
   106   52  175 1    
   107   53  176 1    
   108   53  177 1    
   109   53  178 1    
   110   54   55 am   BACKBONE|DICT|INTERRES
   111   54  179 1    
   112   55   56 2    
   113   55   57 1    
   114   57   58 1    
   115   57   59 1    
   116   57  180 1    
   117   58  181 1    
   118   58  182 1    
   119   58  183 1    
   120   59   60 am   BACKBONE|DICT|INTERRES
   121   59  184 1    
   122   60   61 2    
   123   60   62 1    
   124   62   63 1    
   125   62   64 1    
   126   62  185 1    
   127   63  186 1    
   128   63  187 1    
   129   63  188 1    
   130   64   65 am   BACKBONE|DICT|INTERRES
   131   64  189 1    
   132   65   66 2    
   133   67   68 2    
   134   67   69 am   BACKBONE|DICT|INTERRES
   135   69   70 1    
   136   69  190 1    
   137   70   71 1    
   138   70   72 1    
   139   70  191 1    
   140   71  192 1    
   141   71  193 1    
   142   71  194 1    
   143   72   73 2    
   144   72   74 am   BACKBONE|DICT|INTERRES
   145   74   75 1    
   146   74  195 1    
   147   75   76 1    
   148   75   77 1    
   149   75  196 1    
   150   76  197 1    
   151   76  198 1    
   152   76  199 1    
   153   77   78 2    
   154   77   79 am   BACKBONE|DICT|INTERRES
   155   79   80 1    
   156   79  200 1    
   157   80   81 1    
   158   80   82 1    
   159   80  201 1    
   160   81  202 1    
   161   81  203 1    
   162   81  204 1    
   163   82   83 2    
   164   82   84 am   BACKBONE|DICT|INTERRES
   165   84   85 1    
   166   84  205 1    
   167   85   86 1    
   168   85   87 1    
   169   85  206 1    
   170   86  207 1    
   171   86  208 1    
   172   86  209 1    
   173   87   88 2    
   174   87   89 am   BACKBONE|DICT|INTERRES
   175   89   90 1    
   176   89  210 1    
   177   90   91 1    
   178   90   92 1    
   179   90  211 1    
   180   91  212 1    
   181   91  213 1    
   182   91  214 1    
   183   92   93 2    
   184   92   94 am   BACKBONE|DICT|INTERRES
   185   94   95 1    
   186   94  215 1    
   187   95   96 1    
   188   95   97 1    
   189   95  216 1    
   190   96  217 1    
   191   96  218 1    
   192   96  219 1    
   193   97   98 2    
   194   97   99 am   BACKBONE|DICT|INTERRES
   195   99  100 1    
   196   99  220 1    
   197  100  101 1    
   198  100  102 1    
   199  100  221 1    
   200  101  222 1    
   201  101  223 1    
   202  101  224 1    
   203  102  103 2    
   204  102  104 am   BACKBONE|DICT|INTERRES
   205  104  105 1    
   206  104  225 1    
   207  105  106 1    
   208  105  107 1    
   209  105  226 1    
   210  106  227 1    
   211  106  228 1    
   212  106  229 1    
   213  107  108 2    
   214  107  109 am   BACKBONE|DICT|INTERRES
   215  109  110 1    
   216  109  230 1    
   217  110  111 1    
   218  110  112 1    
   219  110  231 1    
   220  111  232 1    
   221  111  233 1    
   222  111  234 1    
   223  112  113 2    
   224  112  114 am   BACKBONE|DICT|INTERRES
   225  114  115 1    
   226  114  235 1    
   227  115  116 1    
   228  115  117 1    
   229  115  236 1    
   230  116  237 1    
   231  116  238 1    
   232  116  239 1    
   233  117  118 2    
   234  117  119 am   BACKBONE|DICT|INTERRES
   235  119  120 1    
   236  119  240 1    
   237  120  121 1    
   238  120  124 1    
   239  120  241 1    
   240  121  122 am   BACKBONE|DICT|INTERRES
   241  121  123 2    
   242  122  242 1    
   243  122  243 1    
   244  124  125 1    
   245  124  244 1    
   246  124  245 1    
   247  125  126 1    
   248  126  246 1    
   249  126  247 1    
@<TRIPOS>SUBSTRUCTURE
     1 UNK         1 GROUP             0       ****    0 ROOT    
