@<TRIPOS>MOLECULE
3R540
247   249    1
SMALL
USER_CHARGES


@<TRIPOS>ATOM
      1 CA          6.1605  -14.2998  -51.5958 C.3       0 UNK        -0.1800 
      2 C           5.6228  -14.5475  -50.1936 C.2       0 UNK         0.5000 
      3 O           6.3026  -15.1689  -49.3756 O.2       0 UNK        -0.5000 
      4 N           4.4081  -14.0618  -49.9073 N.am      1 UNK        -0.5000 
      5 CA          3.7328  -14.1751  -48.6117 C.3       1 UNK         0.1400 
      6 C6          2.1948  -14.0814  -48.7695 C.3       23 UNK        -0.0398 
      7 S7          1.3029  -14.6335  -47.2751 S.3       23 UNK        -0.2404 
      8 C8         -0.4113  -14.6381  -47.8977 C.3       23 UNK        -0.0205 
      9 C9         -0.8457  -15.8814  -48.6770 C.ar      23 UNK        -0.0193 
     10 C10        -2.1829  -15.9650  -49.0743 C.ar      23 UNK        -0.1150 
     11 C11        -2.6640  -17.0776  -49.7708 C.ar      23 UNK        -0.0193 
     12 C12        -1.7852  -18.1201  -50.0791 C.ar      23 UNK        -0.1150 
     13 C13        -0.4409  -18.0497  -49.7042 C.ar      23 UNK        -0.0193 
     14 C14         0.0211  -16.9343  -49.0009 C.ar      23 UNK        -0.1150 
     15 C15         0.5173  -19.1781  -50.0573 C.3       23 UNK        -0.0205 
     16 S16         0.9419  -20.1867  -48.6036 S.3       23 UNK        -0.2404 
     17 C17        -0.6984  -20.8324  -48.1529 C.3       23 UNK        -0.0398 
     18 CA         -0.6156  -22.1254  -47.3135 C.3       11 UNK         0.1400 
     19 N           0.0605  -21.9077  -46.0341 N.am      11 UNK        -0.5000 
     20 C           0.4162  -22.8532  -45.1569 C.2       10 UNK         0.5000 
     21 O           0.2218  -24.0535  -45.3481 O.2       10 UNK        -0.5000 
     22 CA          1.0157  -22.3795  -43.8172 C.3       10 UNK         0.1400 
     23 CB          2.1673  -23.2833  -43.3335 C.3       10 UNK        -0.1800 
     24 N           1.3929  -20.9609  -43.8080 N.am      10 UNK        -0.5000 
     25 C           2.3914  -20.3569  -44.4717 C.2       9 UNK         0.5000 
     26 O           3.2076  -20.9495  -45.1770 O.2       9 UNK        -0.5000 
     27 CA          2.4764  -18.8204  -44.3523 C.3       9 UNK         0.1400 
     28 CB          2.0351  -18.1622  -45.6702 C.3       9 UNK        -0.1800 
     29 N           1.6605  -18.2764  -43.2642 N.am      9 UNK        -0.5000 
     30 C           1.9378  -18.3878  -41.9575 C.2       8 UNK         0.5000 
     31 O           2.9643  -18.9042  -41.5161 O.2       8 UNK        -0.5000 
     32 CA          0.8619  -17.8762  -40.9824 C.3       8 UNK         0.1400 
     33 CB          1.0067  -16.3680  -40.7323 C.3       8 UNK        -0.1800 
     34 N          -0.4924  -18.1576  -41.4607 N.am      8 UNK        -0.5000 
     35 C          -1.0639  -19.3700  -41.4567 C.2       7 UNK         0.5000 
     36 O          -0.5063  -20.3897  -41.0522 O.2       7 UNK        -0.5000 
     37 CA         -2.4877  -19.4617  -42.0324 C.3       7 UNK         0.1400 
     38 CB         -3.5310  -19.0770  -40.9732 C.3       7 UNK        -0.1800 
     39 N          -2.6587  -18.6151  -43.2122 N.am      7 UNK        -0.5000 
     40 C          -2.1340  -18.8876  -44.4138 C.2       6 UNK         0.5000 
     41 O          -1.5137  -19.9192  -44.6689 O.2       6 UNK        -0.5000 
     42 CA         -2.3281  -17.8293  -45.5133 C.3       6 UNK         0.1400 
     43 CB         -3.6179  -18.1230  -46.2929 C.3       6 UNK        -0.1800 
     44 N          -2.3675  -16.4538  -45.0053 N.am      6 UNK        -0.5000 
     45 C          -1.3435  -15.8361  -44.4017 C.2       5 UNK         0.5000 
     46 O          -0.2674  -16.3786  -44.1432 O.2       5 UNK        -0.5000 
     47 CA         -1.5645  -14.3791  -43.9871 C.3       5 UNK         0.1400 
     48 CB         -1.9938  -14.2884  -42.5121 C.3       5 UNK        -0.1800 
     49 N          -0.3233  -13.6442  -44.2064 N.am      5 UNK        -0.5000 
     50 C          -0.2277  -12.3188  -44.3596 C.2       4 UNK         0.5000 
     51 O          -1.1991  -11.5644  -44.2793 O.2       4 UNK        -0.5000 
     52 CA          1.1596  -11.7277  -44.6996 C.3       4 UNK         0.1400 
     53 CB          1.3867  -10.3477  -44.0479 C.3       4 UNK        -0.1800 
     54 N           2.3050  -12.6098  -44.4459 N.am      4 UNK        -0.5000 
     55 C           2.7447  -13.0780  -43.2669 C.2       3 UNK         0.5000 
     56 O           2.1703  -12.8881  -42.1950 O.2       3 UNK        -0.5000 
     57 CA          4.0534  -13.8979  -43.2811 C.3       3 UNK         0.1400 
     58 CB          3.7523  -15.3956  -43.1417 C.3       3 UNK        -0.1800 
     59 N           4.8488  -13.7007  -44.4932 N.am      3 UNK        -0.5000 
     60 C           5.5808  -12.6125  -44.7706 C.2       2 UNK         0.5000 
     61 O           5.7236  -11.6671  -43.9948 O.2       2 UNK        -0.5000 
     62 CA          6.2463  -12.5661  -46.1622 C.3       2 UNK         0.1400 
     63 CB          7.7086  -13.0287  -46.0775 C.3       2 UNK        -0.1800 
     64 N           5.5483  -13.3742  -47.1680 N.am      2 UNK        -0.5000 
     65 C           4.3046  -13.1465  -47.6098 C.2       1 UNK         0.5000 
     66 O           3.6272  -12.1831  -47.2472 O.2       1 UNK        -0.5000 
     67 C          -2.0278  -22.7073  -47.1272 C.2       11 UNK         0.5000 
     68 O          -2.4797  -23.4744  -47.9775 O.2       11 UNK        -0.5000 
     69 N          -2.6918  -22.3436  -46.0219 N.am      12 UNK        -0.5000 
     70 CA         -3.9913  -22.8846  -45.6260 C.3       12 UNK         0.1400 
     71 CB         -4.5673  -22.0251  -44.4911 C.3       12 UNK        -0.1800 
     72 C          -3.9129  -24.3656  -45.2051 C.2       12 UNK         0.5000 
     73 O          -4.8488  -25.1202  -45.4686 O.2       12 UNK        -0.5000 
     74 N          -2.7952  -24.7558  -44.5759 N.am      13 UNK        -0.5000 
     75 CA         -2.5239  -26.1249  -44.1359 C.3       13 UNK         0.1400 
     76 CB         -1.5083  -26.0977  -42.9825 C.3       13 UNK        -0.1800 
     77 C          -2.0176  -27.0065  -45.2904 C.2       13 UNK         0.5000 
     78 O          -2.4476  -28.1532  -45.4165 O.2       13 UNK        -0.5000 
     79 N          -1.1277  -26.4480  -46.1225 N.am      14 UNK        -0.5000 
     80 CA         -0.5379  -27.1053  -47.2917 C.3       14 UNK         0.1400 
     81 CB          0.7146  -26.3190  -47.7117 C.3       14 UNK        -0.1800 
     82 C          -1.5041  -27.2391  -48.4863 C.2       14 UNK         0.5000 
     83 O          -1.1971  -27.9750  -49.4241 O.2       14 UNK        -0.5000 
     84 N          -2.6237  -26.5015  -48.4460 N.am      15 UNK        -0.5000 
     85 CA         -3.6488  -26.3493  -49.4860 C.3       15 UNK         0.1400 
     86 CB         -4.2828  -27.6989  -49.8789 C.3       15 UNK        -0.1800 
     87 C          -3.1726  -25.5372  -50.7084 C.2       15 UNK         0.5000 
     88 O          -3.8708  -25.4860  -51.7218 O.2       15 UNK        -0.5000 
     89 N          -2.0364  -24.8388  -50.5760 N.am      16 UNK        -0.5000 
     90 CA         -1.5274  -23.8775  -51.5544 C.3       16 UNK         0.1400 
     91 CB         -0.1149  -23.4312  -51.1528 C.3       16 UNK        -0.1800 
     92 C          -2.4620  -22.6644  -51.7194 C.2       16 UNK         0.5000 
     93 O          -2.5458  -22.1121  -52.8134 O.2       16 UNK        -0.5000 
     94 N          -3.1995  -22.3180  -50.6542 N.am      17 UNK        -0.5000 
     95 CA         -4.2489  -21.2973  -50.6610 C.3       17 UNK         0.1400 
     96 CB         -4.6215  -20.9587  -49.2100 C.3       17 UNK        -0.1800 
     97 C          -5.5023  -21.6963  -51.4671 C.2       17 UNK         0.5000 
     98 O          -6.2660  -20.8127  -51.8532 O.2       17 UNK        -0.5000 
     99 N          -5.6994  -23.0019  -51.7040 N.am      18 UNK        -0.5000 
    100 CA        -6.7542  -23.5265  -52.5726 C.3       18 UNK         0.1400 
    101 CB        -7.2380  -24.8817  -52.0320 C.3       18 UNK        -0.1800 
    102 C         -6.2703  -23.6583  -54.0286 C.2       18 UNK         0.5000 
    103 O         -7.0809  -23.5248  -54.9461 O.2       18 UNK        -0.5000 
    104 N         -4.9683  -23.9212  -54.2189 N.am      19 UNK        -0.5000 
    105 CA        -4.3166  -23.9868  -55.5278 C.3       19 UNK         0.1400 
    106 CB        -2.9534  -24.6817  -55.3870 C.3       19 UNK        -0.1800 
    107 C         -4.1623  -22.5945  -56.1686 C.2       19 UNK         0.5000 
    108 O         -4.4457  -22.4351  -57.3571 O.2       19 UNK        -0.5000 
    109 N         -3.7305  -21.6124  -55.3667 N.am      20 UNK        -0.5000 
    110 CA        -3.6715  -20.1962  -55.7251 C.3       20 UNK         0.1400 
    111 CB        -2.7890  -19.4681  -54.6989 C.3       20 UNK        -0.1800 
    112 C         -5.0750  -19.5618  -55.7819 C.2       20 UNK         0.5000 
    113 O         -6.0268  -20.1083  -55.2201 O.2       20 UNK        -0.5000 
    114 N         -5.1762  -18.4084  -56.4570 N.am      21 UNK        -0.5000 
    115 CA        -6.4173  -17.6430  -56.5963 C.3       21 UNK         0.1400 
    116 CB        -6.2257  -16.5306  -57.6402 C.3       21 UNK        -0.1800 
    117 C         -6.9057  -17.0712  -55.2525 C.2       21 UNK         0.5000 
    118 O         -8.0498  -17.3187  -54.8696 O.2       21 UNK        -0.5000 
    119 N         -6.0154  -16.3432  -54.5608 N.am      22 UNK        -0.5000 
    120 CA        -6.2063  -15.7941  -53.2031 C.3       22 UNK         0.1400 
    121 C         -7.4179  -14.8217  -53.0329 C.2       22 UNK         0.5000 
    122 N         -7.8963  -14.1792  -54.0915 N.am      22 UNK        -0.7600 
    123 O         -7.9108  -14.6103  -51.9279 O.2       22 UNK        -0.5000 
    124 C124       -6.1369  -16.9105  -52.1206 C.3       23 UNK        -0.0398 
    125 S125       -4.4203  -17.5015  -51.9093 S.3       23 UNK        -0.2404 
    126 C126       -4.1405  -17.1518  -50.1426 C.3       23 UNK        -0.0205 
    127 H127        7.0897  -13.7321  -51.5459 H         1 UNK         0.0600 
    128 H128        6.3655  -15.2486  -52.0916 H         1 UNK         0.0600 
    129 H129        5.4529  -13.7414  -52.2090 H         1 UNK         0.0600 
    130 H130        3.9141  -13.5329  -50.6122 H         1 UNK         0.3000 
    131 H131        3.9505  -15.1679  -48.2105 H         1 UNK         0.0600 
    132 H132        1.8741  -14.7128  -49.5992 H         1 UNK         0.0800 
    133 H133        1.8822  -13.0675  -49.0253 H         1 UNK         0.0800 
    134 H134       -0.5659  -13.7554  -48.5198 H         1 UNK         0.0800 
    135 H135       -1.0753  -14.5217  -47.0420 H         1 UNK         0.0800 
    136 H136       -2.8587  -15.1591  -48.8243 H         1 UNK         0.1150 
    137 H137       -2.1455  -18.9840  -50.6169 H         1 UNK         0.1150 
    138 H138        1.0596  -16.9079  -48.7071 H         1 UNK         0.1150 
    139 H139        0.0953  -19.8186  -50.8336 H         1 UNK         0.0800 
    140 H140        1.4329  -18.7565  -50.4742 H         1 UNK         0.0800 
    141 H141       -1.2393  -20.0527  -47.6138 H         1 UNK         0.0800 
    142 H142       -1.2538  -21.0106  -49.0746 H         1 UNK         0.0800 
    143 H143       -0.0331  -22.8649  -47.8649 H         1 UNK         0.0600 
    144 H144        0.1818  -20.9439  -45.7551 H         1 UNK         0.3000 
    145 H145        0.2085  -22.4683  -43.0888 H         1 UNK         0.0600 
    146 H146        2.5756  -22.9292  -42.3869 H         1 UNK         0.0600 
    147 H147        1.8202  -24.3049  -43.1744 H         1 UNK         0.0600 
    148 H148        2.9816  -23.3286  -44.0568 H         1 UNK         0.0600 
    149 H149        0.7790  -20.3636  -43.2715 H         1 UNK         0.3000 
    150 H150        3.5200  -18.5586  -44.1671 H         1 UNK         0.0600 
    151 H151        2.1303  -17.0782  -45.6258 H         1 UNK         0.0600 
    152 H152        0.9958  -18.3929  -45.9070 H         1 UNK         0.0600 
    153 H153        2.6459  -18.5053  -46.5060 H         1 UNK         0.0600 
    154 H154        0.8317  -17.7560  -43.5430 H         1 UNK         0.3000 
    155 H155        1.0022  -18.3907  -40.0292 H         1 UNK         0.0600 
    156 H156        0.2425  -16.0062  -40.0444 H         1 UNK         0.0600 
    157 H157        0.9255  -15.7940  -41.6561 H         1 UNK         0.0600 
    158 H158        1.9746  -16.1404  -40.2847 H         1 UNK         0.0600 
    159 H159       -1.0005  -17.3833  -41.8600 H         1 UNK         0.3000 
    160 H160       -2.6626  -20.5003  -42.3193 H         1 UNK         0.0600 
    161 H161       -3.4225  -18.0392  -40.6557 H         1 UNK         0.0600 
    162 H162       -3.4351  -19.7040  -40.0857 H         1 UNK         0.0600 
    163 H163       -4.5441  -19.2078  -41.3540 H         1 UNK         0.0600 
    164 H164       -3.1752  -17.7564  -43.0936 H         1 UNK         0.3000 
    165 H165       -1.4841  -17.9062  -46.2022 H         1 UNK         0.0600 
    166 H166       -4.4977  -18.0768  -45.6500 H         1 UNK         0.0600 
    167 H167       -3.7618  -17.4108  -47.1038 H         1 UNK         0.0600 
    168 H168       -3.5879  -19.1191  -46.7353 H         1 UNK         0.0600 
    169 H169       -3.2238  -15.9432  -45.1658 H         1 UNK         0.3000 
    170 H170       -2.3467  -13.9536  -44.6193 H         1 UNK         0.0600 
    171 H171       -2.8959  -14.8730  -42.3278 H         1 UNK         0.0600 
    172 H172       -1.2171  -14.6589  -41.8433 H         1 UNK         0.0600 
    173 H173       -2.2127  -13.2595  -42.2266 H         1 UNK         0.0600 
    174 H174        0.5003  -14.2220  -44.3153 H         1 UNK         0.3000 
    175 H175        1.1498  -11.5754  -45.7799 H         1 UNK         0.0600 
    176 H176        2.3575   -9.9366  -44.3256 H         1 UNK         0.0600 
    177 H177        0.6303   -9.6307  -44.3690 H         1 UNK         0.0600 
    178 H178        1.3435  -10.4023  -42.9599 H         1 UNK         0.0600 
    179 H179        2.8586  -12.8149  -45.2682 H         1 UNK         0.3000 
    180 H180        4.6515  -13.5866  -42.4222 H         1 UNK         0.0600 
    181 H181        4.6588  -15.9968  -43.2133 H         1 UNK         0.0600 
    182 H182        3.3078  -15.6058  -42.1712 H         1 UNK         0.0600 
    183 H183        3.0564  -15.7387  -43.9071 H         1 UNK         0.0600 
    184 H184        4.8077  -14.4335  -45.1857 H         1 UNK         0.3000 
    185 H185        6.2333  -11.5270  -46.4976 H         1 UNK         0.0600 
    186 H186        8.2101  -12.9294  -47.0404 H         1 UNK         0.0600 
    187 H187        8.2674  -12.4294  -45.3575 H         1 UNK         0.0600 
    188 H188        7.7830  -14.0713  -45.7658 H         1 UNK         0.0600 
    189 H189        6.0591  -14.1516  -47.5731 H         1 UNK         0.3000 
    190 H190       -2.2605  -21.6662  -45.4012 H         1 UNK         0.3000 
    191 H191       -4.6663  -22.8174  -46.4813 H         1 UNK         0.0600 
    192 H192       -5.5618  -22.3708  -44.2066 H         1 UNK         0.0600 
    193 H193       -3.9397  -22.0638  -43.6007 H         1 UNK         0.0600 
    194 H194       -4.6597  -20.9815  -44.7926 H         1 UNK         0.0600 
    195 H195       -2.0558  -24.0828  -44.4417 H         1 UNK         0.3000 
    196 H196       -3.4493  -26.5650  -43.7575 H         1 UNK         0.0600 
    197 H197       -1.3097  -27.1055  -42.6157 H         1 UNK         0.0600 
    198 H198       -1.8834  -25.5144  -42.1414 H         1 UNK         0.0600 
    199 H199       -0.5543  -25.6678  -43.2892 H         1 UNK         0.0600 
    200 H200       -0.7694  -25.5217  -45.9012 H         1 UNK         0.3000 
    201 H201       -0.2307  -28.1127  -47.0035 H         1 UNK         0.0600 
    202 H202        1.4352  -26.2603  -46.8957 H         1 UNK         0.0600 
    203 H203        0.4674  -25.3003  -48.0119 H         1 UNK         0.0600 
    204 H204        1.2165  -26.7975  -48.5536 H         1 UNK         0.0600 
    205 H205       -2.7436  -25.9011  -47.6413 H         1 UNK         0.3000 
    206 H206       -4.4345  -25.7473  -49.0274 H         1 UNK         0.0600 
    207 H207       -4.6041  -28.2552  -48.9983 H         1 UNK         0.0600 
    208 H208       -5.1629  -27.5471  -50.5049 H         1 UNK         0.0600 
    209 H209       -3.5919  -28.3266  -50.4417 H         1 UNK         0.0600 
    210 H210       -1.5669  -24.8787  -49.6833 H         1 UNK         0.3000 
    211 H211       -1.4632  -24.3838  -52.5191 H         1 UNK         0.0600 
    212 H212       -0.1101  -22.9166  -50.1940 H         1 UNK         0.0600 
    213 H213        0.3017  -22.7460  -51.8923 H         1 UNK         0.0600 
    214 H214        0.5625  -24.2823  -51.0804 H         1 UNK         0.0600 
    215 H215       -3.0694  -22.8337  -49.7898 H         1 UNK         0.3000 
    216 H216       -3.8466  -20.3997  -51.1318 H         1 UNK         0.0600 
    217 H217       -5.4122  -20.2086  -49.1713 H         1 UNK         0.0600 
    218 H218       -3.7666  -20.5562  -48.6684 H         1 UNK         0.0600 
    219 H219       -4.9792  -21.8382  -48.6745 H         1 UNK         0.0600 
    220 H220       -5.0219  -23.6726  -51.3676 H         1 UNK         0.3000 
    221 H221       -7.6079  -22.8454  -52.5668 H         1 UNK         0.0600 
    222 H222       -6.4546  -25.6386  -52.0634 H         1 UNK         0.0600 
    223 H223       -7.5812  -24.7959  -51.0010 H         1 UNK         0.0600 
    224 H224       -8.0746  -25.2567  -52.6228 H         1 UNK         0.0600 
    225 H225       -4.3832  -24.0779  -53.4099 H         1 UNK         0.3000 
    226 H226       -4.9382  -24.5953  -56.1882 H         1 UNK         0.0600 
    227 H227       -2.4853  -24.8173  -56.3627 H         1 UNK         0.0600 
    228 H228       -2.2648  -24.1007  -54.7737 H         1 UNK         0.0600 
    229 H229       -3.0564  -25.6682  -54.9344 H         1 UNK         0.0600 
    230 H230       -3.4896  -21.8361  -54.4047 H         1 UNK         0.3000 
    231 H231       -3.2109  -20.1061  -56.7110 H         1 UNK         0.0600 
    232 H232       -2.7066  -18.4045  -54.9253 H         1 UNK         0.0600 
    233 H233       -1.7788  -19.8778  -54.6867 H         1 UNK         0.0600 
    234 H234       -3.1951  -19.5589  -53.6911 H         1 UNK         0.0600 
    235 H235       -4.3523  -18.0182  -56.8911 H         1 UNK         0.3000 
    236 H236       -7.1893  -18.3203  -56.9682 H         1 UNK         0.0600 
    237 H237       -5.4291  -15.8404  -57.3600 H         1 UNK         0.0600 
    238 H238       -5.9786  -16.9471  -58.6169 H         1 UNK         0.0600 
    239 H239       -7.1395  -15.9471  -57.7598 H         1 UNK         0.0600 
    240 H240       -5.1006  -16.1999  -54.9622 H         1 UNK         0.3000 
    241 H241       -5.3514  -15.1370  -53.0384 H         1 UNK         0.0600 
    242 H242       -8.6704  -13.5434  -53.9785 H         1 UNK         0.3800 
    243 H243       -7.5009  -14.3308  -55.0057 H         1 UNK         0.3800 
    244 H244       -6.7722  -17.7560  -52.3886 H         1 UNK         0.0800 
    245 H245       -6.5074  -16.5607  -51.1569 H         1 UNK         0.0800 
    246 H246       -4.6303  -16.2114  -49.8858 H         1 UNK         0.0800 
    247 H247       -4.6226  -17.9243  -49.5437 H         1 UNK         0.0800 
@<TRIPOS>BOND
     1    1    2 1    
     2    1  127 1    
     3    1  128 1    
     4    1  129 1    
     5    2    3 2    
     6    2    4 am   BACKBONE|DICT|INTERRES
     7    4    5 1    
     8    4  130 1    
     9    5    6 1    
    10    5   65 1    
    11    5  131 1    
    12    6    7 1    
    13    6  132 1    
    14    6  133 1    
    15    7    8 1    
    16    8    9 1    
    17    8  134 1    
    18    8  135 1    
    19    9   10 ar   
    20    9   14 ar   
    21   10   11 ar   
    22   10  136 1    
    23   11   12 ar   
    24   11  126 1    
    25   12   13 ar   
    26   12  137 1    
    27   13   14 ar   
    28   13   15 1    
    29   14  138 1    
    30   15   16 1    
    31   15  139 1    
    32   15  140 1    
    33   16   17 1    
    34   17   18 1    
    35   17  141 1    
    36   17  142 1    
    37   18   19 1    
    38   18   67 1    
    39   18  143 1    
    40   19   20 am   BACKBONE|DICT|INTERRES
    41   19  144 1    
    42   20   21 2    
    43   20   22 1    
    44   22   23 1    
    45   22   24 1    
    46   22  145 1    
    47   23  146 1    
    48   23  147 1    
    49   23  148 1    
    50   24   25 am   BACKBONE|DICT|INTERRES
    51   24  149 1    
    52   25   26 2    
    53   25   27 1    
    54   27   28 1    
    55   27   29 1    
    56   27  150 1    
    57   28  151 1    
    58   28  152 1    
    59   28  153 1    
    60   29   30 am   BACKBONE|DICT|INTERRES
    61   29  154 1    
    62   30   31 2    
    63   30   32 1    
    64   32   33 1    
    65   32   34 1    
    66   32  155 1    
    67   33  156 1    
    68   33  157 1    
    69   33  158 1    
    70   34   35 am   BACKBONE|DICT|INTERRES
    71   34  159 1    
    72   35   36 2    
    73   35   37 1    
    74   37   38 1    
    75   37   39 1    
    76   37  160 1    
    77   38  161 1    
    78   38  162 1    
    79   38  163 1    
    80   39   40 am   BACKBONE|DICT|INTERRES
    81   39  164 1    
    82   40   41 2    
    83   40   42 1    
    84   42   43 1    
    85   42   44 1    
    86   42  165 1    
    87   43  166 1    
    88   43  167 1    
    89   43  168 1    
    90   44   45 am   BACKBONE|DICT|INTERRES
    91   44  169 1    
    92   45   46 2    
    93   45   47 1    
    94   47   48 1    
    95   47   49 1    
    96   47  170 1    
    97   48  171 1    
    98   48  172 1    
    99   48  173 1    
   100   49   50 am   BACKBONE|DICT|INTERRES
   101   49  174 1    
   102   50   51 2    
   103   50   52 1    
   104   52   53 1    
   105   52   54 1    
   106   52  175 1    
   107   53  176 1    
   108   53  177 1    
   109   53  178 1    
   110   54   55 am   BACKBONE|DICT|INTERRES
   111   54  179 1    
   112   55   56 2    
   113   55   57 1    
   114   57   58 1    
   115   57   59 1    
   116   57  180 1    
   117   58  181 1    
   118   58  182 1    
   119   58  183 1    
   120   59   60 am   BACKBONE|DICT|INTERRES
   121   59  184 1    
   122   60   61 2    
   123   60   62 1    
   124   62   63 1    
   125   62   64 1    
   126   62  185 1    
   127   63  186 1    
   128   63  187 1    
   129   63  188 1    
   130   64   65 am   BACKBONE|DICT|INTERRES
   131   64  189 1    
   132   65   66 2    
   133   67   68 2    
   134   67   69 am   BACKBONE|DICT|INTERRES
   135   69   70 1    
   136   69  190 1    
   137   70   71 1    
   138   70   72 1    
   139   70  191 1    
   140   71  192 1    
   141   71  193 1    
   142   71  194 1    
   143   72   73 2    
   144   72   74 am   BACKBONE|DICT|INTERRES
   145   74   75 1    
   146   74  195 1    
   147   75   76 1    
   148   75   77 1    
   149   75  196 1    
   150   76  197 1    
   151   76  198 1    
   152   76  199 1    
   153   77   78 2    
   154   77   79 am   BACKBONE|DICT|INTERRES
   155   79   80 1    
   156   79  200 1    
   157   80   81 1    
   158   80   82 1    
   159   80  201 1    
   160   81  202 1    
   161   81  203 1    
   162   81  204 1    
   163   82   83 2    
   164   82   84 am   BACKBONE|DICT|INTERRES
   165   84   85 1    
   166   84  205 1    
   167   85   86 1    
   168   85   87 1    
   169   85  206 1    
   170   86  207 1    
   171   86  208 1    
   172   86  209 1    
   173   87   88 2    
   174   87   89 am   BACKBONE|DICT|INTERRES
   175   89   90 1    
   176   89  210 1    
   177   90   91 1    
   178   90   92 1    
   179   90  211 1    
   180   91  212 1    
   181   91  213 1    
   182   91  214 1    
   183   92   93 2    
   184   92   94 am   BACKBONE|DICT|INTERRES
   185   94   95 1    
   186   94  215 1    
   187   95   96 1    
   188   95   97 1    
   189   95  216 1    
   190   96  217 1    
   191   96  218 1    
   192   96  219 1    
   193   97   98 2    
   194   97   99 am   BACKBONE|DICT|INTERRES
   195   99  100 1    
   196   99  220 1    
   197  100  101 1    
   198  100  102 1    
   199  100  221 1    
   200  101  222 1    
   201  101  223 1    
   202  101  224 1    
   203  102  103 2    
   204  102  104 am   BACKBONE|DICT|INTERRES
   205  104  105 1    
   206  104  225 1    
   207  105  106 1    
   208  105  107 1    
   209  105  226 1    
   210  106  227 1    
   211  106  228 1    
   212  106  229 1    
   213  107  108 2    
   214  107  109 am   BACKBONE|DICT|INTERRES
   215  109  110 1    
   216  109  230 1    
   217  110  111 1    
   218  110  112 1    
   219  110  231 1    
   220  111  232 1    
   221  111  233 1    
   222  111  234 1    
   223  112  113 2    
   224  112  114 am   BACKBONE|DICT|INTERRES
   225  114  115 1    
   226  114  235 1    
   227  115  116 1    
   228  115  117 1    
   229  115  236 1    
   230  116  237 1    
   231  116  238 1    
   232  116  239 1    
   233  117  118 2    
   234  117  119 am   BACKBONE|DICT|INTERRES
   235  119  120 1    
   236  119  240 1    
   237  120  121 1    
   238  120  124 1    
   239  120  241 1    
   240  121  122 am   BACKBONE|DICT|INTERRES
   241  121  123 2    
   242  122  242 1    
   243  122  243 1    
   244  124  125 1    
   245  124  244 1    
   246  124  245 1    
   247  125  126 1    
   248  126  246 1    
   249  126  247 1    
@<TRIPOS>SUBSTRUCTURE
     1 UNK         1 GROUP             0       ****    0 ROOT    
