@<TRIPOS>MOLECULE
3R540
247   249    1
SMALL
USER_CHARGES


@<TRIPOS>ATOM
      1 CA         -0.9330  -11.3332  -44.8869 C.3       0 UNK        -0.1800 
      2 C           0.2565  -10.8929  -45.7287 C.2       0 UNK         0.5000 
      3 O           1.0153  -10.0212  -45.3061 O.2       0 UNK        -0.5000 
      4 N           0.4170  -11.4850  -46.9192 N.am      1 UNK        -0.5000 
      5 CA          1.5182  -11.2080  -47.8522 C.3       1 UNK         0.1400 
      6 C6          1.1385  -11.5713  -49.3101 C.3       23 UNK        -0.0398 
      7 S7          0.6775  -13.3247  -49.5551 S.3       23 UNK        -0.2404 
      8 C8          2.1399  -13.9362  -50.4482 C.3       23 UNK        -0.0205 
      9 C9          2.0189  -15.4208  -50.7468 C.ar      23 UNK        -0.0193 
     10 C10         1.3047  -15.8552  -51.8676 C.ar      23 UNK        -0.1150 
     11 C11         1.1805  -17.2196  -52.1461 C.ar      23 UNK        -0.0193 
     12 C12         1.7857  -18.1499  -51.2966 C.ar      23 UNK        -0.1150 
     13 C13         2.4863  -17.7292  -50.1627 C.ar      23 UNK        -0.0193 
     14 C14         2.6112  -16.3616  -49.8995 C.ar      23 UNK        -0.1150 
     15 C15         3.0720  -18.7603  -49.2073 C.3       23 UNK        -0.0205 
     16 S16         2.3422  -18.6695  -47.5378 S.3       23 UNK        -0.2404 
     17 C17         0.5491  -18.8076  -47.8606 C.3       23 UNK        -0.0398 
     18 CA         -0.0499  -20.1792  -47.4709 C.3       11 UNK         0.1400 
     19 N           0.0270  -20.4584  -46.0321 N.am      11 UNK        -0.5000 
     20 C          -0.3265  -21.6175  -45.4572 C.2       10 UNK         0.5000 
     21 O          -0.6853  -22.6099  -46.0906 O.2       10 UNK        -0.5000 
     22 CA         -0.3451  -21.6644  -43.9173 C.3       10 UNK         0.1400 
     23 CB          1.0542  -21.9393  -43.3468 C.3       10 UNK        -0.1800 
     24 N          -0.9018  -20.4449  -43.3279 N.am      10 UNK        -0.5000 
     25 C          -2.1809  -20.0643  -43.4617 C.2       9 UNK         0.5000 
     26 O          -3.0321  -20.7359  -44.0440 O.2       9 UNK        -0.5000 
     27 CA         -2.5688  -18.6850  -42.8966 C.3       9 UNK         0.1400 
     28 CB         -2.8571  -18.7701  -41.3907 C.3       9 UNK        -0.1800 
     29 N          -1.5499  -17.6661  -43.1487 N.am      9 UNK        -0.5000 
     30 C          -1.1845  -17.2435  -44.3671 C.2       8 UNK         0.5000 
     31 O          -1.7263  -17.6143  -45.4079 O.2       8 UNK        -0.5000 
     32 CA          0.0284  -16.2974  -44.4418 C.3       8 UNK         0.1400 
     33 CB         -0.3932  -14.8396  -44.2107 C.3       8 UNK        -0.1800 
     34 N           1.0891  -16.6630  -43.5009 N.am      8 UNK        -0.5000 
     35 C           1.7613  -17.8227  -43.5348 C.2       7 UNK         0.5000 
     36 O           1.5606  -18.6995  -44.3704 O.2       7 UNK        -0.5000 
     37 CA          2.7750  -18.0786  -42.4084 C.3       7 UNK         0.1400 
     38 CB          4.1091  -17.3646  -42.6764 C.3       7 UNK        -0.1800 
     39 N           2.2381  -17.6762  -41.1101 N.am      7 UNK        -0.5000 
     40 C           1.2424  -18.3171  -40.4805 C.2       6 UNK         0.5000 
     41 O           0.7242  -19.3529  -40.8982 O.2       6 UNK        -0.5000 
     42 CA          0.7098  -17.6641  -39.1916 C.3       6 UNK         0.1400 
     43 CB          1.5525  -18.0907  -37.9806 C.3       6 UNK        -0.1800 
     44 N           0.6855  -16.2023  -39.2746 N.am      6 UNK        -0.5000 
     45 C          -0.1157  -15.5026  -40.0912 C.2       5 UNK         0.5000 
     46 O          -0.9583  -16.0172  -40.8249 O.2       5 UNK        -0.5000 
     47 CA          0.1011  -13.9779  -40.1337 C.3       5 UNK         0.1400 
     48 CB         -0.7273  -13.2825  -39.0436 C.3       5 UNK        -0.1800 
     49 N           1.5105  -13.5982  -39.9939 N.am      5 UNK        -0.5000 
     50 C           2.4666  -13.9129  -40.8767 C.2       4 UNK         0.5000 
     51 O           2.2574  -14.5463  -41.9149 O.2       4 UNK        -0.5000 
     52 CA          3.8986  -13.5081  -40.5085 C.3       4 UNK         0.1400 
     53 CB          4.4980  -14.4952  -39.4905 C.3       4 UNK        -0.1800 
     54 N           4.7112  -13.5008  -41.7187 N.am      4 UNK        -0.5000 
     55 C           5.8088  -12.7630  -41.9160 C.2       3 UNK         0.5000 
     56 O           6.2878  -12.0177  -41.0598 O.2       3 UNK        -0.5000 
     57 CA          6.5037  -12.8698  -43.2911 C.3       3 UNK         0.1400 
     58 CB          7.7903  -13.7025  -43.1731 C.3       3 UNK        -0.1800 
     59 N           5.6774  -13.4390  -44.3616 N.am      3 UNK        -0.5000 
     60 C           4.5830  -12.8682  -44.8815 C.2       2 UNK         0.5000 
     61 O           4.1171  -11.8011  -44.4756 O.2       2 UNK        -0.5000 
     62 CA          3.9016  -13.6424  -46.0298 C.3       2 UNK         0.1400 
     63 CB          3.4027  -15.0152  -45.5523 C.3       2 UNK        -0.1800 
     64 N           2.7659  -12.9120  -46.5879 N.am      2 UNK        -0.5000 
     65 C           2.8486  -11.8718  -47.4279 C.2       1 UNK         0.5000 
     66 O           3.9113  -11.4428  -47.8809 O.2       1 UNK        -0.5000 
     67 C          -1.4971  -20.2871  -47.9944 C.2       11 UNK         0.5000 
     68 O          -1.7186  -20.9244  -49.0227 O.2       11 UNK        -0.5000 
     69 N          -2.4576  -19.6970  -47.2677 N.am      12 UNK        -0.5000 
     70 CA         -3.8869  -19.7594  -47.5786 C.3       12 UNK         0.1400 
     71 CB         -4.6624  -18.8160  -46.6476 C.3       12 UNK        -0.1800 
     72 C          -4.4511  -21.1901  -47.5077 C.2       12 UNK         0.5000 
     73 O          -5.2166  -21.5831  -48.3885 O.2       12 UNK        -0.5000 
     74 N          -4.0321  -21.9575  -46.4917 N.am      13 UNK        -0.5000 
     75 CA         -4.3622  -23.3742  -46.3378 C.3       13 UNK         0.1400 
     76 CB         -3.8776  -23.8792  -44.9708 C.3       13 UNK        -0.1800 
     77 C          -3.7936  -24.2352  -47.4797 C.2       13 UNK         0.5000 
     78 O          -4.5170  -25.0704  -48.0206 O.2       13 UNK        -0.5000 
     79 N          -2.5315  -23.9877  -47.8591 N.am      14 UNK        -0.5000 
     80 CA         -1.8665  -24.6304  -48.9939 C.3       14 UNK         0.1400 
     81 CB         -0.3784  -24.2511  -49.0095 C.3       14 UNK        -0.1800 
     82 C          -2.5346  -24.2971  -50.3405 C.2       14 UNK         0.5000 
     83 O          -2.7101  -25.1935  -51.1656 O.2       14 UNK        -0.5000 
     84 N          -2.9363  -23.0310  -50.5226 N.am      15 UNK        -0.5000 
     85 CA         -3.6909  -22.5566  -51.6818 C.3       15 UNK         0.1400 
     86 CB         -3.8537  -21.0309  -51.6175 C.3       15 UNK        -0.1800 
     87 C          -5.0595  -23.2428  -51.8050 C.2       15 UNK         0.5000 
     88 O          -5.3894  -23.7320  -52.8840 O.2       15 UNK        -0.5000 
     89 N          -5.8056  -23.3064  -50.6938 N.am      16 UNK        -0.5000 
     90 CA         -7.0992  -23.9847  -50.5982 C.3       16 UNK         0.1400 
     91 CB         -7.7371  -23.6734  -49.2362 C.3       16 UNK        -0.1800 
     92 C          -7.0037  -25.5061  -50.8211 C.2       16 UNK         0.5000 
     93 O          -7.8945  -26.0821  -51.4458 O.2       16 UNK        -0.5000 
     94 N          -5.9214  -26.1267  -50.3300 N.am      17 UNK        -0.5000 
     95 CA         -5.6087  -27.5398  -50.5464 C.3       17 UNK         0.1400 
     96 CB         -4.4613  -27.9675  -49.6191 C.3       17 UNK        -0.1800 
     97 C          -5.2721  -27.8554  -52.0157 C.2       17 UNK         0.5000 
     98 O          -5.6595  -28.9174  -52.5052 O.2       17 UNK        -0.5000 
     99 N          -4.5777  -26.9301  -52.6948 N.am      18 UNK        -0.5000 
    100 CA        -4.2848  -27.0011  -54.1259 C.3       18 UNK         0.1400 
    101 CB        -3.2146  -25.9615  -54.4979 C.3       18 UNK        -0.1800 
    102 C         -5.5583  -26.8340  -54.9750 C.2       18 UNK         0.5000 
    103 O         -5.8561  -27.7081  -55.7901 O.2       18 UNK        -0.5000 
    104 N         -6.2980  -25.7430  -54.7352 N.am      19 UNK        -0.5000 
    105 CA        -7.6095  -25.4458  -55.3123 C.3       19 UNK         0.1400 
    106 CB        -7.5629  -25.3415  -56.8543 C.3       19 UNK        -0.1800 
    107 C         -8.1485  -24.1475  -54.6984 C.2       19 UNK         0.5000 
    108 O         -9.1638  -24.1736  -54.0035 O.2       19 UNK        -0.5000 
    109 N         -7.4332  -23.0480  -54.9674 N.am      20 UNK        -0.5000 
    110 CA        -7.6789  -21.6757  -54.5099 C.3       20 UNK         0.1400 
    111 CB        -9.1101  -21.2010  -54.8434 C.3       20 UNK        -0.1800 
    112 C         -6.6711  -20.7050  -55.1525 C.2       20 UNK         0.5000 
    113 O         -6.4071  -19.6456  -54.5848 O.2       20 UNK        -0.5000 
    114 N         -6.1415  -21.0729  -56.3307 N.am      21 UNK        -0.5000 
    115 CA        -5.2958  -20.2441  -57.1976 C.3       21 UNK         0.1400 
    116 CB        -5.1110  -20.9775  -58.5361 C.3       21 UNK        -0.1800 
    117 C         -3.9242  -19.8350  -56.6196 C.2       21 UNK         0.5000 
    118 O         -3.3159  -18.9038  -57.1498 O.2       21 UNK        -0.5000 
    119 N         -3.4674  -20.5154  -55.5591 N.am      22 UNK        -0.5000 
    120 CA        -2.1716  -20.3102  -54.8874 C.3       22 UNK         0.1400 
    121 C         -0.9577  -20.8764  -55.6848 C.2       22 UNK         0.5000 
    122 N          0.2335  -20.8554  -55.1038 N.am      22 UNK        -0.7600 
    123 O         -1.0773  -21.3623  -56.8077 O.2       22 UNK        -0.5000 
    124 C124       -1.9700  -18.8337  -54.4257 C.3       23 UNK        -0.0398 
    125 S125       -1.0722  -18.6623  -52.8474 S.3       23 UNK        -0.2404 
    126 C126        0.3836  -17.6910  -53.3538 C.3       23 UNK        -0.0205 
    127 H127       -1.5426  -12.0754  -45.4026 H         1 UNK         0.0600 
    128 H128       -1.5664  -10.4768  -44.6562 H         1 UNK         0.0600 
    129 H129       -0.5886  -11.7656  -43.9474 H         1 UNK         0.0600 
    130 H130       -0.2444  -12.1843  -47.2274 H         1 UNK         0.3000 
    131 H131        1.7004  -10.1311  -47.8352 H         1 UNK         0.0600 
    132 H132        0.2871  -10.9634  -49.6187 H         1 UNK         0.0800 
    133 H133        1.9452  -11.2991  -49.9932 H         1 UNK         0.0800 
    134 H134        3.0370  -13.7435  -49.8577 H         1 UNK         0.0800 
    135 H135        2.2568  -13.3812  -51.3804 H         1 UNK         0.0800 
    136 H136        0.8366  -15.1274  -52.5156 H         1 UNK         0.1150 
    137 H137        1.6803  -19.2055  -51.5044 H         1 UNK         0.1150 
    138 H138        3.1482  -16.0329  -49.0205 H         1 UNK         0.1150 
    139 H139        2.9344  -19.7714  -49.5939 H         1 UNK         0.0800 
    140 H140        4.1488  -18.6041  -49.1314 H         1 UNK         0.0800 
    141 H141        0.3523  -18.6014  -48.9126 H         1 UNK         0.0800 
    142 H142        0.0536  -18.0063  -47.3130 H         1 UNK         0.0800 
    143 H143        0.5306  -20.9522  -47.9789 H         1 UNK         0.0600 
    144 H144        0.3922  -19.7138  -45.4426 H         1 UNK         0.3000 
    145 H145       -0.9896  -22.4949  -43.6222 H         1 UNK         0.0600 
    146 H146        1.7685  -21.1645  -43.6216 H         1 UNK         0.0600 
    147 H147        1.0310  -22.0014  -42.2586 H         1 UNK         0.0600 
    148 H148        1.4440  -22.8873  -43.7193 H         1 UNK         0.0600 
    149 H149       -0.2619  -19.8495  -42.8162 H         1 UNK         0.3000 
    150 H150       -3.4855  -18.3679  -43.3978 H         1 UNK         0.0600 
    151 H151       -3.6360  -19.5050  -41.1837 H         1 UNK         0.0600 
    152 H152       -3.2016  -17.8120  -41.0010 H         1 UNK         0.0600 
    153 H153       -1.9720  -19.0616  -40.8255 H         1 UNK         0.0600 
    154 H154       -1.1026  -17.2546  -42.3350 H         1 UNK         0.3000 
    155 H155        0.4444  -16.3720  -45.4486 H         1 UNK         0.0600 
    156 H156        0.4563  -14.1618  -44.2919 H         1 UNK         0.0600 
    157 H157       -1.1317  -14.5299  -44.9507 H         1 UNK         0.0600 
    158 H158       -0.8389  -14.7002  -43.2262 H         1 UNK         0.0600 
    159 H159        1.3427  -15.9712  -42.8015 H         1 UNK         0.3000 
    160 H160        2.9726  -19.1523  -42.3764 H         1 UNK         0.0600 
    161 H161        4.5403  -17.6957  -43.6219 H         1 UNK         0.0600 
    162 H162        4.8365  -17.5821  -41.8943 H         1 UNK         0.0600 
    163 H163        3.9932  -16.2837  -42.7331 H         1 UNK         0.0600 
    164 H164        2.5749  -16.8067  -40.7269 H         1 UNK         0.3000 
    165 H165       -0.3132  -18.0145  -39.0384 H         1 UNK         0.0600 
    166 H166        1.1400  -17.6922  -37.0535 H         1 UNK         0.0600 
    167 H167        1.5747  -19.1771  -37.8846 H         1 UNK         0.0600 
    168 H168        2.5843  -17.7471  -38.0647 H         1 UNK         0.0600 
    169 H169        1.3442  -15.6999  -38.6985 H         1 UNK         0.3000 
    170 H170       -0.2474  -13.6209  -41.1049 H         1 UNK         0.0600 
    171 H171       -1.7848  -13.5334  -39.1381 H         1 UNK         0.0600 
    172 H172       -0.4079  -13.5773  -38.0433 H         1 UNK         0.0600 
    173 H173       -0.6446  -12.1980  -39.1172 H         1 UNK         0.0600 
    174 H174        1.7578  -13.0808  -39.1624 H         1 UNK         0.3000 
    175 H175        3.8702  -12.5041  -40.0800 H         1 UNK         0.0600 
    176 H176        4.5473  -15.5076  -39.8934 H         1 UNK         0.0600 
    177 H177        5.5085  -14.2020  -39.2054 H         1 UNK         0.0600 
    178 H178        3.9043  -14.5314  -38.5765 H         1 UNK         0.0600 
    179 H179        4.3285  -14.0394  -42.4841 H         1 UNK         0.3000 
    180 H180        6.7806  -11.8563  -43.5887 H         1 UNK         0.0600 
    181 H181        7.5755  -14.7359  -42.8979 H         1 UNK         0.0600 
    182 H182        8.4550  -13.2920  -42.4117 H         1 UNK         0.0600 
    183 H183        8.3436  -13.7115  -44.1123 H         1 UNK         0.0600 
    184 H184        5.9948  -14.3183  -44.7429 H         1 UNK         0.3000 
    185 H185        4.6382  -13.7961  -46.8212 H         1 UNK         0.0600 
    186 H186        2.8350  -15.5289  -46.3289 H         1 UNK         0.0600 
    187 H187        4.2319  -15.6682  -45.2800 H         1 UNK         0.0600 
    188 H188        2.7630  -14.9139  -44.6772 H         1 UNK         0.0600 
    189 H189        1.8529  -13.1649  -46.2433 H         1 UNK         0.3000 
    190 H190       -2.1915  -19.1423  -46.4583 H         1 UNK         0.3000 
    191 H191       -4.0170  -19.4040  -48.6027 H         1 UNK         0.0600 
    192 H192       -4.5597  -19.1057  -45.6019 H         1 UNK         0.0600 
    193 H193       -5.7266  -18.8204  -46.8866 H         1 UNK         0.0600 
    194 H194       -4.3105  -17.7889  -46.7455 H         1 UNK         0.0600 
    195 H195       -3.4496  -21.5421  -45.7704 H         1 UNK         0.3000 
    196 H196       -5.4500  -23.4657  -46.3645 H         1 UNK         0.0600 
    197 H197       -2.7956  -23.7977  -44.8695 H         1 UNK         0.0600 
    198 H198       -4.1430  -24.9271  -44.8262 H         1 UNK         0.0600 
    199 H199       -4.3325  -23.3127  -44.1581 H         1 UNK         0.0600 
    200 H200       -1.9831  -23.3137  -47.3316 H         1 UNK         0.3000 
    201 H201       -1.9365  -25.7103  -48.8490 H         1 UNK         0.0600 
    202 H202        0.1144  -24.5536  -48.0854 H         1 UNK         0.0600 
    203 H203       -0.2357  -23.1770  -49.1270 H         1 UNK         0.0600 
    204 H204        0.1411  -24.7436  -49.8323 H         1 UNK         0.0600 
    205 H205       -2.6902  -22.3356  -49.8225 H         1 UNK         0.3000 
    206 H206       -3.1114  -22.8022  -52.5738 H         1 UNK         0.0600 
    207 H207       -2.8870  -20.5376  -51.5304 H         1 UNK         0.0600 
    208 H208       -4.3387  -20.6493  -52.5168 H         1 UNK         0.0600 
    209 H209       -4.4579  -20.7201  -50.7662 H         1 UNK         0.0600 
    210 H210       -5.4696  -22.8475  -49.8512 H         1 UNK         0.3000 
    211 H211       -7.7456  -23.5776  -51.3787 H         1 UNK         0.0600 
    212 H212       -7.1178  -24.0290  -48.4120 H         1 UNK         0.0600 
    213 H213       -8.7144  -24.1486  -49.1439 H         1 UNK         0.0600 
    214 H214       -7.8822  -22.6009  -49.1055 H         1 UNK         0.0600 
    215 H215       -5.2733  -25.5994  -49.7525 H         1 UNK         0.3000 
    216 H216       -6.4923  -28.1224  -50.2775 H         1 UNK         0.0600 
    217 H217       -4.2300  -29.0257  -49.7469 H         1 UNK         0.0600 
    218 H218       -4.7237  -27.8166  -48.5719 H         1 UNK         0.0600 
    219 H219       -3.5492  -27.4060  -49.8202 H         1 UNK         0.0600 
    220 H220       -4.2395  -26.1124  -52.1987 H         1 UNK         0.3000 
    221 H221       -3.8717  -27.9900  -54.3355 H         1 UNK         0.0600 
    222 H222       -3.5412  -24.9427  -54.2927 H         1 UNK         0.0600 
    223 H223       -2.2931  -26.1317  -53.9408 H         1 UNK         0.0600 
    224 H224       -2.9689  -26.0189  -55.5589 H         1 UNK         0.0600 
    225 H225       -5.9796  -25.0880  -54.0215 H         1 UNK         0.3000 
    226 H226       -8.2926  -26.2514  -55.0358 H         1 UNK         0.0600 
    227 H227       -7.4289  -26.3177  -57.3190 H         1 UNK         0.0600 
    228 H228       -8.4952  -24.9342  -57.2482 H         1 UNK         0.0600 
    229 H229       -6.7519  -24.6978  -57.1958 H         1 UNK         0.0600 
    230 H230       -6.5621  -23.1810  -55.4591 H         1 UNK         0.3000 
    231 H231       -7.5300  -21.6446  -53.4289 H         1 UNK         0.0600 
    232 H232       -9.2314  -20.1375  -54.6326 H         1 UNK         0.0600 
    233 H233       -9.8602  -21.7203  -54.2485 H         1 UNK         0.0600 
    234 H234       -9.3483  -21.3552  -55.8964 H         1 UNK         0.0600 
    235 H235       -6.4712  -21.9295  -56.7481 H         1 UNK         0.3000 
    236 H236       -5.8417  -19.3187  -57.3926 H         1 UNK         0.0600 
    237 H237       -4.5211  -20.3808  -59.2333 H         1 UNK         0.0600 
    238 H238       -6.0698  -21.1765  -59.0152 H         1 UNK         0.0600 
    239 H239       -4.5955  -21.9296  -58.4032 H         1 UNK         0.0600 
    240 H240       -4.0274  -21.2813  -55.2178 H         1 UNK         0.3000 
    241 H241       -2.2392  -20.9377  -53.9995 H         1 UNK         0.0600 
    242 H242        1.0282  -21.2290  -55.5991 H         1 UNK         0.3800 
    243 H243        0.3520  -20.4858  -54.1736 H         1 UNK         0.3800 
    244 H244       -1.4908  -18.2413  -55.2069 H         1 UNK         0.0800 
    245 H245       -2.9398  -18.3621  -54.2602 H         1 UNK         0.0800 
    246 H246        0.0546  -16.8365  -53.9473 H         1 UNK         0.0800 
    247 H247        1.0256  -18.2901  -54.0003 H         1 UNK         0.0800 
@<TRIPOS>BOND
     1    1    2 1    
     2    1  127 1    
     3    1  128 1    
     4    1  129 1    
     5    2    3 2    
     6    2    4 am   BACKBONE|DICT|INTERRES
     7    4    5 1    
     8    4  130 1    
     9    5    6 1    
    10    5   65 1    
    11    5  131 1    
    12    6    7 1    
    13    6  132 1    
    14    6  133 1    
    15    7    8 1    
    16    8    9 1    
    17    8  134 1    
    18    8  135 1    
    19    9   10 ar   
    20    9   14 ar   
    21   10   11 ar   
    22   10  136 1    
    23   11   12 ar   
    24   11  126 1    
    25   12   13 ar   
    26   12  137 1    
    27   13   14 ar   
    28   13   15 1    
    29   14  138 1    
    30   15   16 1    
    31   15  139 1    
    32   15  140 1    
    33   16   17 1    
    34   17   18 1    
    35   17  141 1    
    36   17  142 1    
    37   18   19 1    
    38   18   67 1    
    39   18  143 1    
    40   19   20 am   BACKBONE|DICT|INTERRES
    41   19  144 1    
    42   20   21 2    
    43   20   22 1    
    44   22   23 1    
    45   22   24 1    
    46   22  145 1    
    47   23  146 1    
    48   23  147 1    
    49   23  148 1    
    50   24   25 am   BACKBONE|DICT|INTERRES
    51   24  149 1    
    52   25   26 2    
    53   25   27 1    
    54   27   28 1    
    55   27   29 1    
    56   27  150 1    
    57   28  151 1    
    58   28  152 1    
    59   28  153 1    
    60   29   30 am   BACKBONE|DICT|INTERRES
    61   29  154 1    
    62   30   31 2    
    63   30   32 1    
    64   32   33 1    
    65   32   34 1    
    66   32  155 1    
    67   33  156 1    
    68   33  157 1    
    69   33  158 1    
    70   34   35 am   BACKBONE|DICT|INTERRES
    71   34  159 1    
    72   35   36 2    
    73   35   37 1    
    74   37   38 1    
    75   37   39 1    
    76   37  160 1    
    77   38  161 1    
    78   38  162 1    
    79   38  163 1    
    80   39   40 am   BACKBONE|DICT|INTERRES
    81   39  164 1    
    82   40   41 2    
    83   40   42 1    
    84   42   43 1    
    85   42   44 1    
    86   42  165 1    
    87   43  166 1    
    88   43  167 1    
    89   43  168 1    
    90   44   45 am   BACKBONE|DICT|INTERRES
    91   44  169 1    
    92   45   46 2    
    93   45   47 1    
    94   47   48 1    
    95   47   49 1    
    96   47  170 1    
    97   48  171 1    
    98   48  172 1    
    99   48  173 1    
   100   49   50 am   BACKBONE|DICT|INTERRES
   101   49  174 1    
   102   50   51 2    
   103   50   52 1    
   104   52   53 1    
   105   52   54 1    
   106   52  175 1    
   107   53  176 1    
   108   53  177 1    
   109   53  178 1    
   110   54   55 am   BACKBONE|DICT|INTERRES
   111   54  179 1    
   112   55   56 2    
   113   55   57 1    
   114   57   58 1    
   115   57   59 1    
   116   57  180 1    
   117   58  181 1    
   118   58  182 1    
   119   58  183 1    
   120   59   60 am   BACKBONE|DICT|INTERRES
   121   59  184 1    
   122   60   61 2    
   123   60   62 1    
   124   62   63 1    
   125   62   64 1    
   126   62  185 1    
   127   63  186 1    
   128   63  187 1    
   129   63  188 1    
   130   64   65 am   BACKBONE|DICT|INTERRES
   131   64  189 1    
   132   65   66 2    
   133   67   68 2    
   134   67   69 am   BACKBONE|DICT|INTERRES
   135   69   70 1    
   136   69  190 1    
   137   70   71 1    
   138   70   72 1    
   139   70  191 1    
   140   71  192 1    
   141   71  193 1    
   142   71  194 1    
   143   72   73 2    
   144   72   74 am   BACKBONE|DICT|INTERRES
   145   74   75 1    
   146   74  195 1    
   147   75   76 1    
   148   75   77 1    
   149   75  196 1    
   150   76  197 1    
   151   76  198 1    
   152   76  199 1    
   153   77   78 2    
   154   77   79 am   BACKBONE|DICT|INTERRES
   155   79   80 1    
   156   79  200 1    
   157   80   81 1    
   158   80   82 1    
   159   80  201 1    
   160   81  202 1    
   161   81  203 1    
   162   81  204 1    
   163   82   83 2    
   164   82   84 am   BACKBONE|DICT|INTERRES
   165   84   85 1    
   166   84  205 1    
   167   85   86 1    
   168   85   87 1    
   169   85  206 1    
   170   86  207 1    
   171   86  208 1    
   172   86  209 1    
   173   87   88 2    
   174   87   89 am   BACKBONE|DICT|INTERRES
   175   89   90 1    
   176   89  210 1    
   177   90   91 1    
   178   90   92 1    
   179   90  211 1    
   180   91  212 1    
   181   91  213 1    
   182   91  214 1    
   183   92   93 2    
   184   92   94 am   BACKBONE|DICT|INTERRES
   185   94   95 1    
   186   94  215 1    
   187   95   96 1    
   188   95   97 1    
   189   95  216 1    
   190   96  217 1    
   191   96  218 1    
   192   96  219 1    
   193   97   98 2    
   194   97   99 am   BACKBONE|DICT|INTERRES
   195   99  100 1    
   196   99  220 1    
   197  100  101 1    
   198  100  102 1    
   199  100  221 1    
   200  101  222 1    
   201  101  223 1    
   202  101  224 1    
   203  102  103 2    
   204  102  104 am   BACKBONE|DICT|INTERRES
   205  104  105 1    
   206  104  225 1    
   207  105  106 1    
   208  105  107 1    
   209  105  226 1    
   210  106  227 1    
   211  106  228 1    
   212  106  229 1    
   213  107  108 2    
   214  107  109 am   BACKBONE|DICT|INTERRES
   215  109  110 1    
   216  109  230 1    
   217  110  111 1    
   218  110  112 1    
   219  110  231 1    
   220  111  232 1    
   221  111  233 1    
   222  111  234 1    
   223  112  113 2    
   224  112  114 am   BACKBONE|DICT|INTERRES
   225  114  115 1    
   226  114  235 1    
   227  115  116 1    
   228  115  117 1    
   229  115  236 1    
   230  116  237 1    
   231  116  238 1    
   232  116  239 1    
   233  117  118 2    
   234  117  119 am   BACKBONE|DICT|INTERRES
   235  119  120 1    
   236  119  240 1    
   237  120  121 1    
   238  120  124 1    
   239  120  241 1    
   240  121  122 am   BACKBONE|DICT|INTERRES
   241  121  123 2    
   242  122  242 1    
   243  122  243 1    
   244  124  125 1    
   245  124  244 1    
   246  124  245 1    
   247  125  126 1    
   248  126  246 1    
   249  126  247 1    
@<TRIPOS>SUBSTRUCTURE
     1 UNK         1 GROUP             0       ****    0 ROOT    
