@<TRIPOS>MOLECULE
3R540
247   249    1
SMALL
USER_CHARGES


@<TRIPOS>ATOM
      1 CA          1.3938  -10.4304  -47.7930 C.3       0 UNK        -0.1800 
      2 C           2.3757  -11.4138  -47.1722 C.2       0 UNK         0.5000 
      3 O           3.2850  -11.0016  -46.4529 O.2       0 UNK        -0.5000 
      4 N           2.1881  -12.7117  -47.4394 N.am      1 UNK        -0.5000 
      5 CA          3.0218  -13.8139  -46.9393 C.3       1 UNK         0.1400 
      6 C6          3.1846  -14.9242  -48.0058 C.3       23 UNK        -0.0398 
      7 S7          1.6243  -15.7419  -48.4960 S.3       23 UNK        -0.2404 
      8 C8          1.4637  -15.2366  -50.2329 C.3       23 UNK        -0.0205 
      9 C9          0.2705  -15.9195  -50.8817 C.ar      23 UNK        -0.0193 
     10 C10         0.4282  -17.1570  -51.5119 C.ar      23 UNK        -0.1150 
     11 C11        -0.6564  -17.8027  -52.1134 C.ar      23 UNK        -0.0193 
     12 C12        -1.9140  -17.1845  -52.0737 C.ar      23 UNK        -0.1150 
     13 C13        -2.0886  -15.9491  -51.4421 C.ar      23 UNK        -0.0193 
     14 C14        -0.9909  -15.3202  -50.8486 C.ar      23 UNK        -0.1150 
     15 C15        -3.4643  -15.2968  -51.4008 C.3       23 UNK        -0.0205 
     16 S16        -4.7134  -16.3456  -50.5861 S.3       23 UNK        -0.2404 
     17 C17        -4.0755  -16.4446  -48.8772 C.3       23 UNK        -0.0398 
     18 CA         -3.1899  -17.6858  -48.5947 C.3       11 UNK         0.1400 
     19 N          -2.4924  -17.5427  -47.3124 N.am      11 UNK        -0.5000 
     20 C          -1.5742  -18.3925  -46.8331 C.2       10 UNK         0.5000 
     21 O          -1.2018  -19.4078  -47.4173 O.2       10 UNK        -0.5000 
     22 CA         -1.0142  -18.0924  -45.4333 C.3       10 UNK         0.1400 
     23 CB          0.2011  -17.1683  -45.5630 C.3       10 UNK        -0.1800 
     24 N          -1.9772  -17.5249  -44.4798 N.am      10 UNK        -0.5000 
     25 C          -3.1917  -18.0153  -44.1836 C.2       9 UNK         0.5000 
     26 O          -3.6859  -18.9896  -44.7546 O.2       9 UNK        -0.5000 
     27 CA         -3.9709  -17.3122  -43.0533 C.3       9 UNK         0.1400 
     28 CB         -5.1829  -18.1352  -42.5797 C.3       9 UNK        -0.1800 
     29 N          -3.0992  -17.0597  -41.9067 N.am      9 UNK        -0.5000 
     30 C          -2.4724  -15.9070  -41.6395 C.2       8 UNK         0.5000 
     31 O          -2.6044  -14.8854  -42.3114 O.2       8 UNK        -0.5000 
     32 CA         -1.4826  -15.9201  -40.4552 C.3       8 UNK         0.1400 
     33 CB         -2.1861  -15.4981  -39.1574 C.3       8 UNK        -0.1800 
     34 N          -0.8325  -17.2218  -40.2542 N.am      8 UNK        -0.5000 
     35 C          -0.0452  -17.8166  -41.1592 C.2       7 UNK         0.5000 
     36 O           0.2487  -17.2963  -42.2379 O.2       7 UNK        -0.5000 
     37 CA          0.4975  -19.2102  -40.8176 C.3       7 UNK         0.1400 
     38 CB         -0.6485  -20.2074  -40.5530 C.3       7 UNK        -0.1800 
     39 N           1.3059  -19.6817  -41.9394 N.am      7 UNK        -0.5000 
     40 C           2.2383  -20.6372  -41.8775 C.2       6 UNK         0.5000 
     41 O           2.6082  -21.1692  -40.8305 O.2       6 UNK        -0.5000 
     42 CA          2.8395  -21.0885  -43.2135 C.3       6 UNK         0.1400 
     43 CB          1.7749  -21.8047  -44.0710 C.3       6 UNK        -0.1800 
     44 N           3.4393  -19.9708  -43.9465 N.am      6 UNK        -0.5000 
     45 C           4.2917  -20.1306  -44.9686 C.2       5 UNK         0.5000 
     46 O           4.6636  -21.2316  -45.3776 O.2       5 UNK        -0.5000 
     47 CA          4.8264  -18.8683  -45.6673 C.3       5 UNK         0.1400 
     48 CB          3.9843  -18.5354  -46.9063 C.3       5 UNK        -0.1800 
     49 N           4.9189  -17.6910  -44.7991 N.am      5 UNK        -0.5000 
     50 C           5.9365  -17.4871  -43.9489 C.2       4 UNK         0.5000 
     51 O           6.8287  -18.3106  -43.7421 O.2       4 UNK        -0.5000 
     52 CA          5.9738  -16.1419  -43.2101 C.3       4 UNK         0.1400 
     53 CB          6.3611  -15.0001  -44.1652 C.3       4 UNK        -0.1800 
     54 N           4.6802  -15.8530  -42.5959 N.am      4 UNK        -0.5000 
     55 C           4.4347  -15.9058  -41.2793 C.2       3 UNK         0.5000 
     56 O           5.2921  -16.1918  -40.4421 O.2       3 UNK        -0.5000 
     57 CA          2.9926  -15.6338  -40.7998 C.3       3 UNK         0.1400 
     58 CB          2.9394  -14.6739  -39.5938 C.3       3 UNK        -0.1800 
     59 N           2.0673  -15.2123  -41.8564 N.am      3 UNK        -0.5000 
     60 C           2.0536  -14.0623  -42.5397 C.2       2 UNK         0.5000 
     61 O           2.8373  -13.1286  -42.3592 O.2       2 UNK        -0.5000 
     62 CA          0.9861  -13.9631  -43.6430 C.3       2 UNK         0.1400 
     63 CB         -0.0459  -12.8770  -43.3050 C.3       2 UNK        -0.1800 
     64 N           1.5665  -13.6766  -44.9540 N.am      2 UNK        -0.5000 
     65 C           2.5437  -14.3599  -45.5700 C.2       1 UNK         0.5000 
     66 O           3.0602  -15.3813  -45.1044 O.2       1 UNK        -0.5000 
     67 C          -3.9752  -19.0146  -48.7071 C.2       11 UNK         0.5000 
     68 O          -4.0567  -19.5781  -49.7973 O.2       11 UNK        -0.5000 
     69 N          -4.4945  -19.5141  -47.5770 N.am      12 UNK        -0.5000 
     70 CA         -5.0997  -20.8370  -47.4752 C.3       12 UNK         0.1400 
     71 CB         -6.3016  -20.7789  -46.5200 C.3       12 UNK        -0.1800 
     72 C          -4.0705  -21.8700  -46.9918 C.2       12 UNK         0.5000 
     73 O          -3.9626  -22.9380  -47.5921 O.2       12 UNK        -0.5000 
     74 N          -3.3427  -21.5484  -45.9135 N.am      13 UNK        -0.5000 
     75 CA         -2.4737  -22.4781  -45.1898 C.3       13 UNK         0.1400 
     76 CB         -2.0102  -21.8329  -43.8748 C.3       13 UNK        -0.1800 
     77 C          -1.2762  -22.9999  -46.0039 C.2       13 UNK         0.5000 
     78 O          -0.9902  -24.1961  -45.9454 O.2       13 UNK        -0.5000 
     79 N          -0.6128  -22.1191  -46.7661 N.am      14 UNK        -0.5000 
     80 CA          0.5254  -22.4822  -47.6167 C.3       14 UNK         0.1400 
     81 CB          1.3889  -21.2388  -47.8839 C.3       14 UNK        -0.1800 
     82 C           0.0782  -23.1272  -48.9414 C.2       14 UNK         0.5000 
     83 O           0.8492  -23.8740  -49.5444 O.2       14 UNK        -0.5000 
     84 N          -1.1601  -22.8392  -49.3620 N.am      15 UNK        -0.5000 
     85 CA         -1.7829  -23.3726  -50.5727 C.3       15 UNK         0.1400 
     86 CB         -2.8102  -22.3494  -51.0754 C.3       15 UNK        -0.1800 
     87 C          -2.4609  -24.7390  -50.3512 C.2       15 UNK         0.5000 
     88 O          -2.9323  -25.3326  -51.3206 O.2       15 UNK        -0.5000 
     89 N          -2.5401  -25.1951  -49.0906 N.am      16 UNK        -0.5000 
     90 CA         -3.2656  -26.3824  -48.6217 C.3       16 UNK         0.1400 
     91 CB         -2.6087  -27.6752  -49.1484 C.3       16 UNK        -0.1800 
     92 C          -4.7756  -26.2913  -48.9333 C.2       16 UNK         0.5000 
     93 O          -5.3731  -27.2469  -49.4297 O.2       16 UNK        -0.5000 
     94 N          -5.3399  -25.1036  -48.6724 N.am      17 UNK        -0.5000 
     95 CA         -6.7109  -24.6415  -48.9172 C.3       17 UNK         0.1400 
     96 CB         -7.7526  -25.5640  -48.2550 C.3       17 UNK        -0.1800 
     97 C          -7.0488  -24.3689  -50.3974 C.2       17 UNK         0.5000 
     98 O          -8.0553  -23.7105  -50.6641 O.2       17 UNK        -0.5000 
     99 N          -6.2094  -24.8172  -51.3395 N.am      18 UNK        -0.5000 
    100 CA        -6.3723  -24.6240  -52.7808 C.3       18 UNK         0.1400 
    101 CB        -5.7096  -25.8003  -53.5200 C.3       18 UNK        -0.1800 
    102 C         -5.8243  -23.2545  -53.2293 C.2       18 UNK         0.5000 
    103 O         -4.9720  -23.1873  -54.1147 O.2       18 UNK        -0.5000 
    104 N         -6.3278  -22.1764  -52.6119 N.am      19 UNK        -0.5000 
    105 CA        -5.9011  -20.7855  -52.8172 C.3       19 UNK         0.1400 
    106 CB        -6.7019  -19.8784  -51.8712 C.3       19 UNK        -0.1800 
    107 C         -6.0238  -20.2859  -54.2721 C.2       19 UNK         0.5000 
    108 O         -5.2792  -19.3937  -54.6764 O.2       19 UNK        -0.5000 
    109 N         -6.9345  -20.8924  -55.0463 N.am      20 UNK        -0.5000 
    110 CA        -7.1239  -20.6470  -56.4766 C.3       20 UNK         0.1400 
    111 CB        -8.3947  -21.3747  -56.9407 C.3       20 UNK        -0.1800 
    112 C         -5.9185  -21.0631  -57.3457 C.2       20 UNK         0.5000 
    113 O         -5.7382  -20.5018  -58.4274 O.2       20 UNK        -0.5000 
    114 N         -5.1012  -22.0137  -56.8649 N.am      21 UNK        -0.5000 
    115 CA        -3.8925  -22.4870  -57.5466 C.3       21 UNK         0.1400 
    116 CB        -3.4429  -23.8167  -56.9209 C.3       21 UNK        -0.1800 
    117 C         -2.7393  -21.4634  -57.5250 C.2       21 UNK         0.5000 
    118 O         -1.8052  -21.5932  -58.3175 O.2       21 UNK        -0.5000 
    119 N         -2.8215  -20.4681  -56.6330 N.am      22 UNK        -0.5000 
    120 CA        -1.8523  -19.3700  -56.4964 C.3       22 UNK         0.1400 
    121 C         -1.9265  -18.3037  -57.6305 C.2       22 UNK         0.5000 
    122 N         -2.9381  -18.3084  -58.4917 N.am      22 UNK        -0.7600 
    123 O         -1.0424  -17.4581  -57.7355 O.2       22 UNK        -0.5000 
    124 C124       -1.9527  -18.6914  -55.1072 C.3       23 UNK        -0.0398 
    125 S125       -1.8020  -19.8715  -53.7191 S.3       23 UNK        -0.2404 
    126 C126       -0.4099  -19.1644  -52.7707 C.3       23 UNK        -0.0205 
    127 H127        1.9247   -9.7206  -48.4273 H         1 UNK         0.0600 
    128 H128        0.8777   -9.8717  -47.0122 H         1 UNK         0.0600 
    129 H129        0.6439  -10.9355  -48.4024 H         1 UNK         0.0600 
    130 H130        1.4125  -12.9935  -48.0225 H         1 UNK         0.3000 
    131 H131        4.0250  -13.4251  -46.7520 H         1 UNK         0.0600 
    132 H132        3.6638  -14.5038  -48.8908 H         1 UNK         0.0800 
    133 H133        3.8757  -15.6845  -47.6456 H         1 UNK         0.0800 
    134 H134        1.3586  -14.1523  -50.2927 H         1 UNK         0.0800 
    135 H135        2.3765  -15.4915  -50.7736 H         1 UNK         0.0800 
    136 H136        1.4032  -17.6241  -51.5275 H         1 UNK         0.1150 
    137 H137       -2.7776  -17.6624  -52.5119 H         1 UNK         0.1150 
    138 H138       -1.1165  -14.3666  -50.3553 H         1 UNK         0.1150 
    139 H139       -3.4258  -14.3294  -50.8977 H         1 UNK         0.0800 
    140 H140       -3.7874  -15.0978  -52.4233 H         1 UNK         0.0800 
    141 H141       -3.5109  -15.5331  -48.6757 H         1 UNK         0.0800 
    142 H142       -4.9261  -16.4228  -48.1939 H         1 UNK         0.0800 
    143 H143       -2.4068  -17.7280  -49.3525 H         1 UNK         0.0600 
    144 H144       -2.7410  -16.7453  -46.7467 H         1 UNK         0.3000 
    145 H145       -0.6649  -19.0379  -45.0188 H         1 UNK         0.0600 
    146 H146        0.7865  -17.1252  -44.6484 H         1 UNK         0.0600 
    147 H147        0.8726  -17.5316  -46.3388 H         1 UNK         0.0600 
    148 H148       -0.0904  -16.1530  -45.8330 H         1 UNK         0.0600 
    149 H149       -1.6440  -16.7446  -43.9317 H         1 UNK         0.3000 
    150 H150       -4.3447  -16.3699  -43.4585 H         1 UNK         0.0600 
    151 H151       -5.8886  -18.3006  -43.3949 H         1 UNK         0.0600 
    152 H152       -5.7229  -17.6190  -41.7858 H         1 UNK         0.0600 
    153 H153       -4.8828  -19.1130  -42.2007 H         1 UNK         0.0600 
    154 H154       -2.9010  -17.8536  -41.3157 H         1 UNK         0.3000 
    155 H155       -0.7032  -15.1866  -40.6720 H         1 UNK         0.0600 
    156 H156       -1.4777  -15.4201  -38.3324 H         1 UNK         0.0600 
    157 H157       -2.9615  -16.2091  -38.8696 H         1 UNK         0.0600 
    158 H158       -2.6603  -14.5221  -39.2697 H         1 UNK         0.0600 
    159 H159       -1.0242  -17.6909  -39.3805 H         1 UNK         0.3000 
    160 H160        1.1243  -19.1180  -39.9284 H         1 UNK         0.0600 
    161 H161       -1.3252  -20.2747  -41.4056 H         1 UNK         0.0600 
    162 H162       -1.2399  -19.9167  -39.6845 H         1 UNK         0.0600 
    163 H163       -0.2665  -21.2087  -40.3538 H         1 UNK         0.0600 
    164 H164        1.0855  -19.2349  -42.8192 H         1 UNK         0.3000 
    165 H165        3.6274  -21.8071  -42.9766 H         1 UNK         0.0600 
    166 H166        1.0342  -21.1056  -44.4589 H         1 UNK         0.0600 
    167 H167        2.2252  -22.3158  -44.9213 H         1 UNK         0.0600 
    168 H168        1.2440  -22.5612  -43.4918 H         1 UNK         0.0600 
    169 H169        3.2269  -19.0379  -43.6238 H         1 UNK         0.3000 
    170 H170        5.8295  -19.1138  -46.0237 H         1 UNK         0.0600 
    171 H171        3.7900  -19.4253  -47.5061 H         1 UNK         0.0600 
    172 H172        3.0234  -18.1011  -46.6372 H         1 UNK         0.0600 
    173 H173        4.5092  -17.8329  -47.5513 H         1 UNK         0.0600 
    174 H174        4.2255  -16.9606  -44.9313 H         1 UNK         0.3000 
    175 H175        6.7542  -16.2063  -42.4490 H         1 UNK         0.0600 
    176 H176        7.3462  -15.1754  -44.5992 H         1 UNK         0.0600 
    177 H177        5.6569  -14.8942  -44.9898 H         1 UNK         0.0600 
    178 H178        6.4028  -14.0465  -43.6388 H         1 UNK         0.0600 
    179 H179        3.9238  -15.6180  -43.2283 H         1 UNK         0.3000 
    180 H180        2.6207  -16.5989  -40.4548 H         1 UNK         0.0600 
    181 H181        3.3730  -13.7014  -39.8274 H         1 UNK         0.0600 
    182 H182        3.4931  -15.0796  -38.7464 H         1 UNK         0.0600 
    183 H183        1.9133  -14.5149  -39.2619 H         1 UNK         0.0600 
    184 H184        1.3875  -15.9242  -42.1198 H         1 UNK         0.3000 
    185 H185        0.4593  -14.9154  -43.7139 H         1 UNK         0.0600 
    186 H186       -0.8636  -12.8715  -44.0259 H         1 UNK         0.0600 
    187 H187       -0.4843  -13.0471  -42.3209 H         1 UNK         0.0600 
    188 H188        0.4034  -11.8830  -43.2957 H         1 UNK         0.0600 
    189 H189        1.2327  -12.8431  -45.4132 H         1 UNK         0.3000 
    190 H190       -4.3223  -19.0309  -46.7029 H         1 UNK         0.3000 
    191 H191       -5.4682  -21.1626  -48.4506 H         1 UNK         0.0600 
    192 H192       -6.7662  -21.7604  -46.4164 H         1 UNK         0.0600 
    193 H193       -7.0649  -20.0960  -46.8932 H         1 UNK         0.0600 
    194 H194       -6.0137  -20.4438  -45.5226 H         1 UNK         0.0600 
    195 H195       -3.4852  -20.6375  -45.4829 H         1 UNK         0.3000 
    196 H196       -3.0835  -23.3462  -44.9303 H         1 UNK         0.0600 
    197 H197       -1.3928  -22.5211  -43.2961 H         1 UNK         0.0600 
    198 H198       -2.8607  -21.5573  -43.2509 H         1 UNK         0.0600 
    199 H199       -1.4225  -20.9340  -44.0493 H         1 UNK         0.0600 
    200 H200       -0.9292  -21.1539  -46.8269 H         1 UNK         0.3000 
    201 H201        1.1438  -23.2081  -47.0843 H         1 UNK         0.0600 
    202 H202        1.6522  -20.7299  -46.9568 H         1 UNK         0.0600 
    203 H203        0.8801  -20.5211  -48.5280 H         1 UNK         0.0600 
    204 H204        2.3202  -21.5148  -48.3796 H         1 UNK         0.0600 
    205 H205       -1.7292  -22.2275  -48.7941 H         1 UNK         0.3000 
    206 H206       -1.0205  -23.4976  -51.3443 H         1 UNK         0.0600 
    207 H207       -2.3747  -21.3534  -51.1519 H         1 UNK         0.0600 
    208 H208       -3.1691  -22.6201  -52.0680 H         1 UNK         0.0600 
    209 H209       -3.6767  -22.2848  -50.4157 H         1 UNK         0.0600 
    210 H210       -2.1550  -24.6071  -48.3642 H         1 UNK         0.3000 
    211 H211       -3.1769  -26.3862  -47.5344 H         1 UNK         0.0600 
    212 H212       -2.7037  -27.7700  -50.2304 H         1 UNK         0.0600 
    213 H213       -3.0716  -28.5562  -48.7024 H         1 UNK         0.0600 
    214 H214       -1.5477  -27.7061  -48.9010 H         1 UNK         0.0600 
    215 H215       -4.7288  -24.3819  -48.2895 H         1 UNK         0.3000 
    216 H216       -6.7760  -23.6737  -48.4181 H         1 UNK         0.0600 
    217 H217       -7.5242  -25.7259  -47.2015 H         1 UNK         0.0600 
    218 H218       -8.7489  -25.1233  -48.3066 H         1 UNK         0.0600 
    219 H219       -7.8061  -26.5374  -48.7427 H         1 UNK         0.0600 
    220 H220       -5.3781  -25.3148  -51.0489 H         1 UNK         0.3000 
    221 H221       -7.4358  -24.6418  -53.0276 H         1 UNK         0.0600 
    222 H222       -5.8631  -25.7220  -54.5970 H         1 UNK         0.0600 
    223 H223       -4.6340  -25.8332  -53.3444 H         1 UNK         0.0600 
    224 H224       -6.1300  -26.7540  -53.2007 H         1 UNK         0.0600 
    225 H225       -7.0352  -22.3350  -51.9037 H         1 UNK         0.3000 
    226 H226       -4.8467  -20.7202  -52.5410 H         1 UNK         0.0600 
    227 H227       -7.7686  -19.9017  -52.0967 H         1 UNK         0.0600 
    228 H228       -6.5707  -20.1786  -50.8314 H         1 UNK         0.0600 
    229 H229       -6.3684  -18.8427  -51.9508 H         1 UNK         0.0600 
    230 H230       -7.5034  -21.6149  -54.6309 H         1 UNK         0.3000 
    231 H231       -7.2724  -19.5741  -56.6158 H         1 UNK         0.0600 
    232 H232       -8.5858  -21.1912  -57.9989 H         1 UNK         0.0600 
    233 H233       -9.2704  -21.0310  -56.3899 H         1 UNK         0.0600 
    234 H234       -8.3126  -22.4538  -56.8042 H         1 UNK         0.0600 
    235 H235       -5.2730  -22.4013  -55.9421 H         1 UNK         0.3000 
    236 H236       -4.1446  -22.6749  -58.5923 H         1 UNK         0.0600 
    237 H237       -4.2539  -24.5451  -56.9074 H         1 UNK         0.0600 
    238 H238       -2.6208  -24.2548  -57.4881 H         1 UNK         0.0600 
    239 H239       -3.0944  -23.6818  -55.8965 H         1 UNK         0.0600 
    240 H240       -3.6201  -20.4299  -56.0137 H         1 UNK         0.3000 
    241 H241       -0.8556  -19.8096  -56.5681 H         1 UNK         0.0600 
    242 H242       -3.6718  -18.9982  -58.4222 H         1 UNK         0.3800 
    243 H243       -2.9701  -17.6155  -59.2231 H         1 UNK         0.3800 
    244 H244       -2.9071  -18.1725  -55.0072 H         1 UNK         0.0800 
    245 H245       -1.1829  -17.9242  -55.0072 H         1 UNK         0.0800 
    246 H246        0.4572  -19.0959  -53.4293 H         1 UNK         0.0800 
    247 H247       -0.1460  -19.8757  -51.9867 H         1 UNK         0.0800 
@<TRIPOS>BOND
     1    1    2 1    
     2    1  127 1    
     3    1  128 1    
     4    1  129 1    
     5    2    3 2    
     6    2    4 am   BACKBONE|DICT|INTERRES
     7    4    5 1    
     8    4  130 1    
     9    5    6 1    
    10    5   65 1    
    11    5  131 1    
    12    6    7 1    
    13    6  132 1    
    14    6  133 1    
    15    7    8 1    
    16    8    9 1    
    17    8  134 1    
    18    8  135 1    
    19    9   10 ar   
    20    9   14 ar   
    21   10   11 ar   
    22   10  136 1    
    23   11   12 ar   
    24   11  126 1    
    25   12   13 ar   
    26   12  137 1    
    27   13   14 ar   
    28   13   15 1    
    29   14  138 1    
    30   15   16 1    
    31   15  139 1    
    32   15  140 1    
    33   16   17 1    
    34   17   18 1    
    35   17  141 1    
    36   17  142 1    
    37   18   19 1    
    38   18   67 1    
    39   18  143 1    
    40   19   20 am   BACKBONE|DICT|INTERRES
    41   19  144 1    
    42   20   21 2    
    43   20   22 1    
    44   22   23 1    
    45   22   24 1    
    46   22  145 1    
    47   23  146 1    
    48   23  147 1    
    49   23  148 1    
    50   24   25 am   BACKBONE|DICT|INTERRES
    51   24  149 1    
    52   25   26 2    
    53   25   27 1    
    54   27   28 1    
    55   27   29 1    
    56   27  150 1    
    57   28  151 1    
    58   28  152 1    
    59   28  153 1    
    60   29   30 am   BACKBONE|DICT|INTERRES
    61   29  154 1    
    62   30   31 2    
    63   30   32 1    
    64   32   33 1    
    65   32   34 1    
    66   32  155 1    
    67   33  156 1    
    68   33  157 1    
    69   33  158 1    
    70   34   35 am   BACKBONE|DICT|INTERRES
    71   34  159 1    
    72   35   36 2    
    73   35   37 1    
    74   37   38 1    
    75   37   39 1    
    76   37  160 1    
    77   38  161 1    
    78   38  162 1    
    79   38  163 1    
    80   39   40 am   BACKBONE|DICT|INTERRES
    81   39  164 1    
    82   40   41 2    
    83   40   42 1    
    84   42   43 1    
    85   42   44 1    
    86   42  165 1    
    87   43  166 1    
    88   43  167 1    
    89   43  168 1    
    90   44   45 am   BACKBONE|DICT|INTERRES
    91   44  169 1    
    92   45   46 2    
    93   45   47 1    
    94   47   48 1    
    95   47   49 1    
    96   47  170 1    
    97   48  171 1    
    98   48  172 1    
    99   48  173 1    
   100   49   50 am   BACKBONE|DICT|INTERRES
   101   49  174 1    
   102   50   51 2    
   103   50   52 1    
   104   52   53 1    
   105   52   54 1    
   106   52  175 1    
   107   53  176 1    
   108   53  177 1    
   109   53  178 1    
   110   54   55 am   BACKBONE|DICT|INTERRES
   111   54  179 1    
   112   55   56 2    
   113   55   57 1    
   114   57   58 1    
   115   57   59 1    
   116   57  180 1    
   117   58  181 1    
   118   58  182 1    
   119   58  183 1    
   120   59   60 am   BACKBONE|DICT|INTERRES
   121   59  184 1    
   122   60   61 2    
   123   60   62 1    
   124   62   63 1    
   125   62   64 1    
   126   62  185 1    
   127   63  186 1    
   128   63  187 1    
   129   63  188 1    
   130   64   65 am   BACKBONE|DICT|INTERRES
   131   64  189 1    
   132   65   66 2    
   133   67   68 2    
   134   67   69 am   BACKBONE|DICT|INTERRES
   135   69   70 1    
   136   69  190 1    
   137   70   71 1    
   138   70   72 1    
   139   70  191 1    
   140   71  192 1    
   141   71  193 1    
   142   71  194 1    
   143   72   73 2    
   144   72   74 am   BACKBONE|DICT|INTERRES
   145   74   75 1    
   146   74  195 1    
   147   75   76 1    
   148   75   77 1    
   149   75  196 1    
   150   76  197 1    
   151   76  198 1    
   152   76  199 1    
   153   77   78 2    
   154   77   79 am   BACKBONE|DICT|INTERRES
   155   79   80 1    
   156   79  200 1    
   157   80   81 1    
   158   80   82 1    
   159   80  201 1    
   160   81  202 1    
   161   81  203 1    
   162   81  204 1    
   163   82   83 2    
   164   82   84 am   BACKBONE|DICT|INTERRES
   165   84   85 1    
   166   84  205 1    
   167   85   86 1    
   168   85   87 1    
   169   85  206 1    
   170   86  207 1    
   171   86  208 1    
   172   86  209 1    
   173   87   88 2    
   174   87   89 am   BACKBONE|DICT|INTERRES
   175   89   90 1    
   176   89  210 1    
   177   90   91 1    
   178   90   92 1    
   179   90  211 1    
   180   91  212 1    
   181   91  213 1    
   182   91  214 1    
   183   92   93 2    
   184   92   94 am   BACKBONE|DICT|INTERRES
   185   94   95 1    
   186   94  215 1    
   187   95   96 1    
   188   95   97 1    
   189   95  216 1    
   190   96  217 1    
   191   96  218 1    
   192   96  219 1    
   193   97   98 2    
   194   97   99 am   BACKBONE|DICT|INTERRES
   195   99  100 1    
   196   99  220 1    
   197  100  101 1    
   198  100  102 1    
   199  100  221 1    
   200  101  222 1    
   201  101  223 1    
   202  101  224 1    
   203  102  103 2    
   204  102  104 am   BACKBONE|DICT|INTERRES
   205  104  105 1    
   206  104  225 1    
   207  105  106 1    
   208  105  107 1    
   209  105  226 1    
   210  106  227 1    
   211  106  228 1    
   212  106  229 1    
   213  107  108 2    
   214  107  109 am   BACKBONE|DICT|INTERRES
   215  109  110 1    
   216  109  230 1    
   217  110  111 1    
   218  110  112 1    
   219  110  231 1    
   220  111  232 1    
   221  111  233 1    
   222  111  234 1    
   223  112  113 2    
   224  112  114 am   BACKBONE|DICT|INTERRES
   225  114  115 1    
   226  114  235 1    
   227  115  116 1    
   228  115  117 1    
   229  115  236 1    
   230  116  237 1    
   231  116  238 1    
   232  116  239 1    
   233  117  118 2    
   234  117  119 am   BACKBONE|DICT|INTERRES
   235  119  120 1    
   236  119  240 1    
   237  120  121 1    
   238  120  124 1    
   239  120  241 1    
   240  121  122 am   BACKBONE|DICT|INTERRES
   241  121  123 2    
   242  122  242 1    
   243  122  243 1    
   244  124  125 1    
   245  124  244 1    
   246  124  245 1    
   247  125  126 1    
   248  126  246 1    
   249  126  247 1    
@<TRIPOS>SUBSTRUCTURE
     1 UNK         1 GROUP             0       ****    0 ROOT    
