@<TRIPOS>MOLECULE
3R540
247   249    1
SMALL
USER_CHARGES


@<TRIPOS>ATOM
      1 CA          4.4354  -17.5394  -45.6628 C.3       0 UNK        -0.1800 
      2 C           3.8485  -16.2242  -46.1523 C.2       0 UNK         0.5000 
      3 O           3.2023  -15.5154  -45.3832 O.2       0 UNK        -0.5000 
      4 N           4.0976  -15.8750  -47.4212 N.am      1 UNK        -0.5000 
      5 CA          3.5994  -14.6602  -48.0855 C.3       1 UNK         0.1400 
      6 C6          3.9897  -14.6418  -49.5876 C.3       23 UNK        -0.0398 
      7 S7          2.6593  -13.9859  -50.6492 S.3       23 UNK        -0.2404 
      8 C8          2.3602  -15.3828  -51.7802 C.3       23 UNK        -0.0205 
      9 C9          1.5738  -16.5071  -51.1211 C.ar      23 UNK        -0.0193 
     10 C10         0.1776  -16.4391  -51.0662 C.ar      23 UNK        -0.1150 
     11 C11        -0.5632  -17.4837  -50.5064 C.ar      23 UNK        -0.0193 
     12 C12         0.1073  -18.5952  -49.9934 C.ar      23 UNK        -0.1150 
     13 C13         1.5000  -18.6700  -50.0211 C.ar      23 UNK        -0.0193 
     14 C14         2.2312  -17.6253  -50.5939 C.ar      23 UNK        -0.1150 
     15 C15         2.1918  -19.8863  -49.4261 C.3       23 UNK        -0.0205 
     16 S16         2.1854  -19.7996  -47.6093 S.3       23 UNK        -0.2404 
     17 C17         2.5264  -21.5244  -47.1384 C.3       23 UNK        -0.0398 
     18 CA          1.2977  -22.3485  -46.6745 C.3       11 UNK         0.1400 
     19 N           0.6200  -21.8288  -45.4794 N.am      11 UNK        -0.5000 
     20 C          -0.1714  -22.5948  -44.7099 C.2       10 UNK         0.5000 
     21 O          -0.3629  -23.7941  -44.9206 O.2       10 UNK        -0.5000 
     22 CA         -0.9088  -21.9170  -43.5414 C.3       10 UNK         0.1400 
     23 CB          0.0356  -21.6410  -42.3614 C.3       10 UNK        -0.1800 
     24 N          -1.5872  -20.6870  -43.9468 N.am      10 UNK        -0.5000 
     25 C          -2.6514  -20.6486  -44.7618 C.2       9 UNK         0.5000 
     26 O          -3.1754  -21.6510  -45.2456 O.2       9 UNK        -0.5000 
     27 CA         -3.2073  -19.2589  -45.1268 C.3       9 UNK         0.1400 
     28 CB         -4.2273  -18.7899  -44.0796 C.3       9 UNK        -0.1800 
     29 N          -2.1604  -18.2489  -45.2732 N.am      9 UNK        -0.5000 
     30 C          -1.1932  -18.2988  -46.1989 C.2       8 UNK         0.5000 
     31 O          -1.1263  -19.1743  -47.0569 O.2       8 UNK        -0.5000 
     32 CA         -0.0793  -17.2438  -46.0994 C.3       8 UNK         0.1400 
     33 CB         -0.5114  -15.9110  -46.7224 C.3       8 UNK        -0.1800 
     34 N           0.3632  -17.0458  -44.7186 N.am      8 UNK        -0.5000 
     35 C           0.9526  -17.9922  -43.9724 C.2       7 UNK         0.5000 
     36 O           1.2105  -19.1241  -44.3813 O.2       7 UNK        -0.5000 
     37 CA          1.2713  -17.6362  -42.5112 C.3       7 UNK         0.1400 
     38 CB          2.7178  -17.1544  -42.3654 C.3       7 UNK        -0.1800 
     39 N           0.3581  -16.6250  -41.9776 N.am      7 UNK        -0.5000 
     40 C          -0.8760  -16.9136  -41.5463 C.2       6 UNK         0.5000 
     41 O          -1.3547  -18.0489  -41.5577 O.2       6 UNK        -0.5000 
     42 CA         -1.7248  -15.7356  -41.0360 C.3       6 UNK         0.1400 
     43 CB         -1.1330  -15.1503  -39.7435 C.3       6 UNK        -0.1800 
     44 N          -1.9178  -14.6582  -42.0100 N.am      6 UNK        -0.5000 
     45 C          -2.4311  -14.7926  -43.2411 C.2       5 UNK         0.5000 
     46 O          -2.6755  -15.8754  -43.7685 O.2       5 UNK        -0.5000 
     47 CA         -2.7320  -13.5021  -44.0277 C.3       5 UNK         0.1400 
     48 CB         -4.2428  -13.2251  -44.0162 C.3       5 UNK        -0.1800 
     49 N          -2.0386  -12.3239  -43.4986 N.am      5 UNK        -0.5000 
     50 C          -0.7686  -11.9560  -43.7185 C.2       4 UNK         0.5000 
     51 O          -0.3036  -10.9427  -43.1945 O.2       4 UNK        -0.5000 
     52 CA          0.1211  -12.7814  -44.6790 C.3       4 UNK         0.1400 
     53 CB         -0.0197  -12.2636  -46.1197 C.3       4 UNK        -0.1800 
     54 N           1.5274  -12.7098  -44.2979 N.am      4 UNK        -0.5000 
     55 C           2.0503  -13.2361  -43.1830 C.2       3 UNK         0.5000 
     56 O           1.4171  -13.9572  -42.4072 O.2       3 UNK        -0.5000 
     57 CA          3.5245  -12.8851  -42.9156 C.3       3 UNK         0.1400 
     58 CB          4.1962  -13.7504  -41.8340 C.3       3 UNK        -0.1800 
     59 N           4.2896  -12.9700  -44.1586 N.am      3 UNK        -0.5000 
     60 C           5.1060  -12.0204  -44.6335 C.2       2 UNK         0.5000 
     61 O           5.3231  -10.9576  -44.0502 O.2       2 UNK        -0.5000 
     62 CA          5.8075  -12.2859  -45.9826 C.3       2 UNK         0.1400 
     63 CB          7.2989  -12.5831  -45.7609 C.3       2 UNK        -0.1800 
     64 N           5.2242  -13.3852  -46.7534 N.am      2 UNK        -0.5000 
     65 C           4.0416  -13.3522  -47.3847 C.2       1 UNK         0.5000 
     66 O           3.3090  -12.3629  -47.4032 O.2       1 UNK        -0.5000 
     67 C           0.3066  -22.6679  -47.8137 C.2       11 UNK         0.5000 
     68 O           0.5260  -23.6441  -48.5301 O.2       11 UNK        -0.5000 
     69 N          -0.7930  -21.9051  -47.9297 N.am      12 UNK        -0.5000 
     70 CA         -1.8890  -22.1985  -48.8545 C.3       12 UNK         0.1400 
     71 CB         -2.9120  -21.0579  -48.8796 C.3       12 UNK        -0.1800 
     72 C          -2.6059  -23.5160  -48.5249 C.2       12 UNK         0.5000 
     73 O          -2.9139  -24.2724  -49.4436 O.2       12 UNK        -0.5000 
     74 N          -2.8466  -23.7817  -47.2337 N.am      13 UNK        -0.5000 
     75 CA         -3.4314  -25.0328  -46.7501 C.3       13 UNK         0.1400 
     76 CB         -3.7682  -24.9130  -45.2565 C.3       13 UNK        -0.1800 
     77 C          -2.5205  -26.2439  -47.0163 C.2       13 UNK         0.5000 
     78 O          -3.0147  -27.2865  -47.4454 O.2       13 UNK        -0.5000 
     79 N          -1.2068  -26.0688  -46.8108 N.am      14 UNK        -0.5000 
     80 CA         -0.1793  -27.0680  -47.1143 C.3       14 UNK         0.1400 
     81 CB          1.1679  -26.6085  -46.5370 C.3       14 UNK        -0.1800 
     82 C          -0.0578  -27.3647  -48.6229 C.2       14 UNK         0.5000 
     83 O           0.1028  -28.5246  -49.0038 O.2       14 UNK        -0.5000 
     84 N          -0.1647  -26.3178  -49.4524 N.am      15 UNK        -0.5000 
     85 CA         -0.1503  -26.3962  -50.9155 C.3       15 UNK         0.1400 
     86 CB          0.1808  -25.0038  -51.4773 C.3       15 UNK        -0.1800 
     87 C          -1.4705  -26.9102  -51.5269 C.2       15 UNK         0.5000 
     88 O          -1.4914  -27.2281  -52.7166 O.2       15 UNK        -0.5000 
     89 N          -2.5432  -26.9517  -50.7222 N.am      16 UNK        -0.5000 
     90 CA         -3.9332  -27.2416  -51.0936 C.3       16 UNK         0.1400 
     91 CB         -4.0876  -28.6852  -51.6156 C.3       16 UNK        -0.1800 
     92 C          -4.5296  -26.1782  -52.0441 C.2       16 UNK         0.5000 
     93 O          -5.3583  -26.4978  -52.8979 O.2       16 UNK        -0.5000 
     94 N          -4.1009  -24.9224  -51.8617 N.am      17 UNK        -0.5000 
     95 CA         -4.5559  -23.7450  -52.6009 C.3       17 UNK         0.1400 
     96 CB         -3.3927  -22.7429  -52.6939 C.3       17 UNK        -0.1800 
     97 C          -5.7854  -23.0778  -51.9554 C.2       17 UNK         0.5000 
     98 O          -6.3837  -22.1948  -52.5745 O.2       17 UNK        -0.5000 
     99 N          -6.1169  -23.4755  -50.7151 N.am      18 UNK        -0.5000 
    100 CA        -7.2926  -23.0791  -49.9217 C.3       18 UNK         0.1400 
    101 CB        -8.5743  -23.6392  -50.5722 C.3       18 UNK        -0.1800 
    102 C         -7.4048  -21.5630  -49.6401 C.2       18 UNK         0.5000 
    103 O         -8.4935  -21.0752  -49.3343 O.2       18 UNK        -0.5000 
    104 N         -6.2786  -20.8484  -49.7786 N.am      19 UNK        -0.5000 
    105 CA        -6.1237  -19.3889  -49.7503 C.3       19 UNK         0.1400 
    106 CB        -6.4527  -18.8225  -48.3537 C.3       19 UNK        -0.1800 
    107 C         -6.8790  -18.6690  -50.8924 C.2       19 UNK         0.5000 
    108 O         -7.1490  -17.4719  -50.7827 O.2       19 UNK        -0.5000 
    109 N         -7.2032  -19.4055  -51.9649 N.am      20 UNK        -0.5000 
    110 CA        -7.9828  -18.9370  -53.1090 C.3       20 UNK         0.1400 
    111 CB        -9.2667  -19.7762  -53.2107 C.3       20 UNK        -0.1800 
    112 C         -7.1787  -19.0297  -54.4141 C.2       20 UNK         0.5000 
    113 O         -7.2678  -18.1222  -55.2413 O.2       20 UNK        -0.5000 
    114 N         -6.3993  -20.1082  -54.5781 N.am      21 UNK        -0.5000 
    115 CA        -5.5991  -20.3803  -55.7772 C.3       21 UNK         0.1400 
    116 CB        -5.5201  -21.9012  -55.9865 C.3       21 UNK        -0.1800 
    117 C         -4.1921  -19.7456  -55.7373 C.2       21 UNK         0.5000 
    118 O         -3.3947  -20.0009  -56.6411 O.2       21 UNK        -0.5000 
    119 N         -3.9028  -18.9517  -54.6976 N.am      22 UNK        -0.5000 
    120 CA        -2.6567  -18.1926  -54.5025 C.3       22 UNK         0.1400 
    121 C         -2.3267  -17.2342  -55.6832 C.2       22 UNK         0.5000 
    122 N         -1.0669  -17.1479  -56.0884 N.am      22 UNK        -0.7600 
    123 O         -3.1943  -16.5339  -56.2008 O.2       22 UNK        -0.5000 
    124 C124       -2.6943  -17.3868  -53.1804 C.3       23 UNK        -0.0398 
    125 S125       -2.8828  -18.4417  -51.7048 S.3       23 UNK        -0.2404 
    126 C126       -2.0818  -17.4125  -50.4312 C.3       23 UNK        -0.0205 
    127 H127        5.0805  -17.3649  -44.8019 H         1 UNK         0.0600 
    128 H128        5.0223  -18.0349  -46.4363 H         1 UNK         0.0600 
    129 H129        3.6377  -18.2161  -45.3600 H         1 UNK         0.0600 
    130 H130        4.6442  -16.4985  -47.9973 H         1 UNK         0.3000 
    131 H131        2.5112  -14.7098  -48.0036 H         1 UNK         0.0600 
    132 H132        4.8985  -14.0638  -49.7674 H         1 UNK         0.0800 
    133 H133        4.2330  -15.6470  -49.9292 H         1 UNK         0.0800 
    134 H134        1.8052  -15.0156  -52.6448 H         1 UNK         0.0800 
    135 H135        3.3090  -15.7533  -52.1716 H         1 UNK         0.0800 
    136 H136       -0.3306  -15.5725  -51.4651 H         1 UNK         0.1150 
    137 H137       -0.4500  -19.4064  -49.5532 H         1 UNK         0.1150 
    138 H138        3.3090  -17.6875  -50.6331 H         1 UNK         0.1150 
    139 H139        1.6754  -20.7883  -49.7576 H         1 UNK         0.0800 
    140 H140        3.2196  -19.9644  -49.7830 H         1 UNK         0.0800 
    141 H141        3.2558  -21.4950  -46.3280 H         1 UNK         0.0800 
    142 H142        3.0323  -22.0309  -47.9622 H         1 UNK         0.0800 
    143 H143        1.7127  -23.3160  -46.3831 H         1 UNK         0.0600 
    144 H144        0.7500  -20.8448  -45.2580 H         1 UNK         0.3000 
    145 H145       -1.6749  -22.6121  -43.1907 H         1 UNK         0.0600 
    146 H146       -0.4916  -21.1606  -41.5369 H         1 UNK         0.0600 
    147 H147        0.4573  -22.5717  -41.9802 H         1 UNK         0.0600 
    148 H148        0.8702  -21.0010  -42.6434 H         1 UNK         0.0600 
    149 H149       -1.2023  -19.8160  -43.6098 H         1 UNK         0.3000 
    150 H150       -3.7213  -19.3478  -46.0857 H         1 UNK         0.0600 
    151 H151       -5.0252  -19.5228  -43.9540 H         1 UNK         0.0600 
    152 H152       -4.6923  -17.8499  -44.3774 H         1 UNK         0.0600 
    153 H153       -3.7607  -18.6375  -43.1054 H         1 UNK         0.0600 
    154 H154       -2.1840  -17.4709  -44.6182 H         1 UNK         0.3000 
    155 H155        0.7768  -17.5997  -46.6705 H         1 UNK         0.0600 
    156 H156       -0.7988  -16.0479  -47.7656 H         1 UNK         0.0600 
    157 H157        0.3089  -15.1946  -46.7068 H         1 UNK         0.0600 
    158 H158       -1.3631  -15.4753  -46.2024 H         1 UNK         0.0600 
    159 H159        0.1875  -16.1481  -44.2964 H         1 UNK         0.3000 
    160 H160        1.1703  -18.5492  -41.9203 H         1 UNK         0.0600 
    161 H161        2.8913  -16.2612  -42.9605 H         1 UNK         0.0600 
    162 H162        3.4207  -17.9168  -42.7028 H         1 UNK         0.0600 
    163 H163        2.9574  -16.9214  -41.3279 H         1 UNK         0.0600 
    164 H164        0.6839  -15.6606  -41.9749 H         1 UNK         0.3000 
    165 H165       -2.7141  -16.1329  -40.7996 H         1 UNK         0.0600 
    166 H166       -1.8053  -14.4156  -39.3000 H         1 UNK         0.0600 
    167 H167       -0.9698  -15.9303  -38.9987 H         1 UNK         0.0600 
    168 H168       -0.1747  -14.6610  -39.9233 H         1 UNK         0.0600 
    169 H169       -1.7172  -13.7244  -41.6832 H         1 UNK         0.3000 
    170 H170       -2.4432  -13.6647  -45.0662 H         1 UNK         0.0600 
    171 H171       -4.7987  -14.0677  -44.4303 H         1 UNK         0.0600 
    172 H172       -4.6145  -13.0525  -43.0053 H         1 UNK         0.0600 
    173 H173       -4.4882  -12.3500  -44.6184 H         1 UNK         0.0600 
    174 H174       -2.5939  -11.7407  -42.8898 H         1 UNK         0.3000 
    175 H175       -0.1583  -13.8332  -44.6475 H         1 UNK         0.0600 
    176 H176        0.2712  -11.2152  -46.1983 H         1 UNK         0.0600 
    177 H177        0.6051  -12.8311  -46.8092 H         1 UNK         0.0600 
    178 H178       -1.0476  -12.3441  -46.4735 H         1 UNK         0.0600 
    179 H179        2.1216  -12.1378  -44.8806 H         1 UNK         0.3000 
    180 H180        3.5083  -11.8568  -42.5492 H         1 UNK         0.0600 
    181 H181        4.3715  -14.7676  -42.1795 H         1 UNK         0.0600 
    182 H182        3.5920  -13.8016  -40.9274 H         1 UNK         0.0600 
    183 H183        5.1626  -13.3322  -41.5528 H         1 UNK         0.0600 
    184 H184        4.1136  -13.8001  -44.7170 H         1 UNK         0.3000 
    185 H185        5.7256  -11.3728  -46.5760 H         1 UNK         0.0600 
    186 H186        7.7852  -11.7688  -45.2220 H         1 UNK         0.0600 
    187 H187        7.4449  -13.4943  -45.1794 H         1 UNK         0.0600 
    188 H188        7.8238  -12.7007  -46.7091 H         1 UNK         0.0600 
    189 H189        5.7494  -14.2472  -46.7746 H         1 UNK         0.3000 
    190 H190       -0.8839  -21.0662  -47.3621 H         1 UNK         0.3000 
    191 H191       -1.4577  -22.2886  -49.8533 H         1 UNK         0.0600 
    192 H192       -2.4542  -20.1039  -49.1210 H         1 UNK         0.0600 
    193 H193       -3.6588  -21.2477  -49.6468 H         1 UNK         0.0600 
    194 H194       -3.4296  -20.9488  -47.9267 H         1 UNK         0.0600 
    195 H195       -2.6326  -23.0782  -46.5336 H         1 UNK         0.3000 
    196 H196       -4.3649  -25.1959  -47.2928 H         1 UNK         0.0600 
    197 H197       -4.2099  -25.8364  -44.8801 H         1 UNK         0.0600 
    198 H198       -4.4876  -24.1135  -45.0793 H         1 UNK         0.0600 
    199 H199       -2.8825  -24.7036  -44.6567 H         1 UNK         0.0600 
    200 H200       -0.8913  -25.1895  -46.4154 H         1 UNK         0.3000 
    201 H201       -0.4618  -27.9971  -46.6150 H         1 UNK         0.0600 
    202 H202        1.0973  -26.4274  -45.4642 H         1 UNK         0.0600 
    203 H203        1.5172  -25.6905  -47.0092 H         1 UNK         0.0600 
    204 H204        1.9360  -27.3676  -46.6902 H         1 UNK         0.0600 
    205 H205       -0.2153  -25.3846  -49.0541 H         1 UNK         0.3000 
    206 H206        0.6413  -27.0844  -51.2188 H         1 UNK         0.0600 
    207 H207        1.1416  -24.6465  -51.1062 H         1 UNK         0.0600 
    208 H208        0.2406  -25.0218  -52.5661 H         1 UNK         0.0600 
    209 H209       -0.5782  -24.2705  -51.2026 H         1 UNK         0.0600 
    210 H210       -2.4104  -26.6399  -49.7691 H         1 UNK         0.3000 
    211 H211       -4.5065  -27.1686  -50.1684 H         1 UNK         0.0600 
    212 H212       -3.6096  -28.8219  -52.5858 H         1 UNK         0.0600 
    213 H213       -5.1399  -28.9465  -51.7326 H         1 UNK         0.0600 
    214 H214       -3.6513  -29.4034  -50.9214 H         1 UNK         0.0600 
    215 H215       -3.4605  -24.7480  -51.0888 H         1 UNK         0.3000 
    216 H216       -4.8389  -24.0446  -53.6112 H         1 UNK         0.0600 
    217 H217       -3.6863  -21.8349  -53.2220 H         1 UNK         0.0600 
    218 H218       -2.5481  -23.1725  -53.2327 H         1 UNK         0.0600 
    219 H219       -3.0394  -22.4429  -51.7085 H         1 UNK         0.0600 
    220 H220       -5.5238  -24.1741  -50.2897 H         1 UNK         0.3000 
    221 H221       -7.1783  -23.5570  -48.9477 H         1 UNK         0.0600 
    222 H222       -8.7872  -23.1539  -51.5254 H         1 UNK         0.0600 
    223 H223       -8.4886  -24.7107  -50.7535 H         1 UNK         0.0600 
    224 H224       -9.4418  -23.4904  -49.9282 H         1 UNK         0.0600 
    225 H225       -5.4544  -21.3645  -50.0456 H         1 UNK         0.3000 
    226 H226       -5.0668  -19.1962  -49.9291 H         1 UNK         0.0600 
    227 H227       -5.9040  -19.3521  -47.5748 H         1 UNK         0.0600 
    228 H228       -6.1761  -17.7699  -48.2838 H         1 UNK         0.0600 
    229 H229       -7.5161  -18.8959  -48.1257 H         1 UNK         0.0600 
    230 H230       -6.9331  -20.3834  -51.9793 H         1 UNK         0.3000 
    231 H231       -8.2713  -17.8922  -52.9774 H         1 UNK         0.0600 
    232 H232       -9.0463  -20.8368  -53.3404 H         1 UNK         0.0600 
    233 H233       -9.8768  -19.4590  -54.0573 H         1 UNK         0.0600 
    234 H234       -9.8753  -19.6708  -52.3123 H         1 UNK         0.0600 
    235 H235       -6.3889  -20.8283  -53.8608 H         1 UNK         0.3000 
    236 H236       -6.1095  -19.9591  -56.6459 H         1 UNK         0.0600 
    237 H237       -6.5107  -22.3563  -55.9773 H         1 UNK         0.0600 
    238 H238       -5.0627  -22.1408  -56.9471 H         1 UNK         0.0600 
    239 H239       -4.9218  -22.3801  -55.2146 H         1 UNK         0.0600 
    240 H240       -4.6201  -18.8066  -54.0043 H         1 UNK         0.3000 
    241 H241       -1.8517  -18.9265  -54.4304 H         1 UNK         0.0600 
    242 H242       -0.8377  -16.5187  -56.8423 H         1 UNK         0.3800 
    243 H243       -0.3372  -17.7073  -55.6743 H         1 UNK         0.3800 
    244 H244       -1.7765  -16.8071  -53.0762 H         1 UNK         0.0800 
    245 H245       -3.5115  -16.6633  -53.1931 H         1 UNK         0.0800 
    246 H246       -2.4062  -17.7501  -49.4459 H         1 UNK         0.0800 
    247 H247       -2.4266  -16.3814  -50.5227 H         1 UNK         0.0800 
@<TRIPOS>BOND
     1    1    2 1    
     2    1  127 1    
     3    1  128 1    
     4    1  129 1    
     5    2    3 2    
     6    2    4 am   BACKBONE|DICT|INTERRES
     7    4    5 1    
     8    4  130 1    
     9    5    6 1    
    10    5   65 1    
    11    5  131 1    
    12    6    7 1    
    13    6  132 1    
    14    6  133 1    
    15    7    8 1    
    16    8    9 1    
    17    8  134 1    
    18    8  135 1    
    19    9   10 ar   
    20    9   14 ar   
    21   10   11 ar   
    22   10  136 1    
    23   11   12 ar   
    24   11  126 1    
    25   12   13 ar   
    26   12  137 1    
    27   13   14 ar   
    28   13   15 1    
    29   14  138 1    
    30   15   16 1    
    31   15  139 1    
    32   15  140 1    
    33   16   17 1    
    34   17   18 1    
    35   17  141 1    
    36   17  142 1    
    37   18   19 1    
    38   18   67 1    
    39   18  143 1    
    40   19   20 am   BACKBONE|DICT|INTERRES
    41   19  144 1    
    42   20   21 2    
    43   20   22 1    
    44   22   23 1    
    45   22   24 1    
    46   22  145 1    
    47   23  146 1    
    48   23  147 1    
    49   23  148 1    
    50   24   25 am   BACKBONE|DICT|INTERRES
    51   24  149 1    
    52   25   26 2    
    53   25   27 1    
    54   27   28 1    
    55   27   29 1    
    56   27  150 1    
    57   28  151 1    
    58   28  152 1    
    59   28  153 1    
    60   29   30 am   BACKBONE|DICT|INTERRES
    61   29  154 1    
    62   30   31 2    
    63   30   32 1    
    64   32   33 1    
    65   32   34 1    
    66   32  155 1    
    67   33  156 1    
    68   33  157 1    
    69   33  158 1    
    70   34   35 am   BACKBONE|DICT|INTERRES
    71   34  159 1    
    72   35   36 2    
    73   35   37 1    
    74   37   38 1    
    75   37   39 1    
    76   37  160 1    
    77   38  161 1    
    78   38  162 1    
    79   38  163 1    
    80   39   40 am   BACKBONE|DICT|INTERRES
    81   39  164 1    
    82   40   41 2    
    83   40   42 1    
    84   42   43 1    
    85   42   44 1    
    86   42  165 1    
    87   43  166 1    
    88   43  167 1    
    89   43  168 1    
    90   44   45 am   BACKBONE|DICT|INTERRES
    91   44  169 1    
    92   45   46 2    
    93   45   47 1    
    94   47   48 1    
    95   47   49 1    
    96   47  170 1    
    97   48  171 1    
    98   48  172 1    
    99   48  173 1    
   100   49   50 am   BACKBONE|DICT|INTERRES
   101   49  174 1    
   102   50   51 2    
   103   50   52 1    
   104   52   53 1    
   105   52   54 1    
   106   52  175 1    
   107   53  176 1    
   108   53  177 1    
   109   53  178 1    
   110   54   55 am   BACKBONE|DICT|INTERRES
   111   54  179 1    
   112   55   56 2    
   113   55   57 1    
   114   57   58 1    
   115   57   59 1    
   116   57  180 1    
   117   58  181 1    
   118   58  182 1    
   119   58  183 1    
   120   59   60 am   BACKBONE|DICT|INTERRES
   121   59  184 1    
   122   60   61 2    
   123   60   62 1    
   124   62   63 1    
   125   62   64 1    
   126   62  185 1    
   127   63  186 1    
   128   63  187 1    
   129   63  188 1    
   130   64   65 am   BACKBONE|DICT|INTERRES
   131   64  189 1    
   132   65   66 2    
   133   67   68 2    
   134   67   69 am   BACKBONE|DICT|INTERRES
   135   69   70 1    
   136   69  190 1    
   137   70   71 1    
   138   70   72 1    
   139   70  191 1    
   140   71  192 1    
   141   71  193 1    
   142   71  194 1    
   143   72   73 2    
   144   72   74 am   BACKBONE|DICT|INTERRES
   145   74   75 1    
   146   74  195 1    
   147   75   76 1    
   148   75   77 1    
   149   75  196 1    
   150   76  197 1    
   151   76  198 1    
   152   76  199 1    
   153   77   78 2    
   154   77   79 am   BACKBONE|DICT|INTERRES
   155   79   80 1    
   156   79  200 1    
   157   80   81 1    
   158   80   82 1    
   159   80  201 1    
   160   81  202 1    
   161   81  203 1    
   162   81  204 1    
   163   82   83 2    
   164   82   84 am   BACKBONE|DICT|INTERRES
   165   84   85 1    
   166   84  205 1    
   167   85   86 1    
   168   85   87 1    
   169   85  206 1    
   170   86  207 1    
   171   86  208 1    
   172   86  209 1    
   173   87   88 2    
   174   87   89 am   BACKBONE|DICT|INTERRES
   175   89   90 1    
   176   89  210 1    
   177   90   91 1    
   178   90   92 1    
   179   90  211 1    
   180   91  212 1    
   181   91  213 1    
   182   91  214 1    
   183   92   93 2    
   184   92   94 am   BACKBONE|DICT|INTERRES
   185   94   95 1    
   186   94  215 1    
   187   95   96 1    
   188   95   97 1    
   189   95  216 1    
   190   96  217 1    
   191   96  218 1    
   192   96  219 1    
   193   97   98 2    
   194   97   99 am   BACKBONE|DICT|INTERRES
   195   99  100 1    
   196   99  220 1    
   197  100  101 1    
   198  100  102 1    
   199  100  221 1    
   200  101  222 1    
   201  101  223 1    
   202  101  224 1    
   203  102  103 2    
   204  102  104 am   BACKBONE|DICT|INTERRES
   205  104  105 1    
   206  104  225 1    
   207  105  106 1    
   208  105  107 1    
   209  105  226 1    
   210  106  227 1    
   211  106  228 1    
   212  106  229 1    
   213  107  108 2    
   214  107  109 am   BACKBONE|DICT|INTERRES
   215  109  110 1    
   216  109  230 1    
   217  110  111 1    
   218  110  112 1    
   219  110  231 1    
   220  111  232 1    
   221  111  233 1    
   222  111  234 1    
   223  112  113 2    
   224  112  114 am   BACKBONE|DICT|INTERRES
   225  114  115 1    
   226  114  235 1    
   227  115  116 1    
   228  115  117 1    
   229  115  236 1    
   230  116  237 1    
   231  116  238 1    
   232  116  239 1    
   233  117  118 2    
   234  117  119 am   BACKBONE|DICT|INTERRES
   235  119  120 1    
   236  119  240 1    
   237  120  121 1    
   238  120  124 1    
   239  120  241 1    
   240  121  122 am   BACKBONE|DICT|INTERRES
   241  121  123 2    
   242  122  242 1    
   243  122  243 1    
   244  124  125 1    
   245  124  244 1    
   246  124  245 1    
   247  125  126 1    
   248  126  246 1    
   249  126  247 1    
@<TRIPOS>SUBSTRUCTURE
     1 UNK         1 GROUP             0       ****    0 ROOT    
