@<TRIPOS>MOLECULE
3R540
247   249    1
SMALL
USER_CHARGES


@<TRIPOS>ATOM
      1 CA         -0.3586  -14.8238  -41.7743 C.3       0 UNK        -0.1800 
      2 C          -0.6291  -14.2451  -43.1526 C.2       0 UNK         0.5000 
      3 O          -1.3770  -13.2749  -43.2746 O.2       0 UNK        -0.5000 
      4 N          -0.0215  -14.8298  -44.1892 N.am      1 UNK        -0.5000 
      5 CA         -0.1150  -14.3728  -45.5728 C.3       1 UNK         0.1400 
      6 C6         -1.4471  -14.7940  -46.2524 C.3       23 UNK        -0.0398 
      7 S7         -1.8915  -13.6788  -47.6290 S.3       23 UNK        -0.2404 
      8 C8         -3.6709  -14.0056  -47.8164 C.3       23 UNK        -0.0205 
      9 C9         -3.9345  -15.1936  -48.7286 C.ar      23 UNK        -0.0193 
     10 C10        -4.1968  -14.9920  -50.0866 C.ar      23 UNK        -0.1150 
     11 C11        -4.4725  -16.0745  -50.9275 C.ar      23 UNK        -0.0193 
     12 C12        -4.4838  -17.3692  -50.4012 C.ar      23 UNK        -0.1150 
     13 C13        -4.2175  -17.5833  -49.0454 C.ar      23 UNK        -0.0193 
     14 C14        -3.9410  -16.4923  -48.2154 C.ar      23 UNK        -0.1150 
     15 C15        -4.2007  -18.9903  -48.4737 C.3       23 UNK        -0.0205 
     16 S16        -5.5330  -19.2408  -47.2577 S.3       23 UNK        -0.2404 
     17 C17        -5.2365  -20.9527  -46.6886 C.3       23 UNK        -0.0398 
     18 CA         -3.7752  -21.2624  -46.2771 C.3       11 UNK         0.1400 
     19 N          -3.2299  -20.2768  -45.3401 N.am      11 UNK        -0.5000 
     20 C          -1.9573  -20.2141  -44.9281 C.2       10 UNK         0.5000 
     21 O          -1.0966  -21.0278  -45.2630 O.2       10 UNK        -0.5000 
     22 CA         -1.5887  -19.0842  -43.9454 C.3       10 UNK         0.1400 
     23 CB         -2.6092  -17.9261  -43.9160 C.3       10 UNK        -0.1800 
     24 N          -1.3515  -19.5730  -42.5835 N.am      10 UNK        -0.5000 
     25 C          -2.1231  -20.3983  -41.8544 C.2       9 UNK         0.5000 
     26 O          -3.1551  -20.9260  -42.2725 O.2       9 UNK        -0.5000 
     27 CA         -1.6769  -20.6919  -40.4063 C.3       9 UNK         0.1400 
     28 CB         -0.9660  -22.0497  -40.3164 C.3       9 UNK        -0.1800 
     29 N          -0.7887  -19.6744  -39.8473 N.am      9 UNK        -0.5000 
     30 C          -1.1457  -18.4243  -39.5275 C.2       8 UNK         0.5000 
     31 O          -2.3009  -18.0031  -39.5897 O.2       8 UNK        -0.5000 
     32 CA         -0.0136  -17.4802  -39.0769 C.3       8 UNK         0.1400 
     33 CB          0.0412  -17.4075  -37.5433 C.3       8 UNK        -0.1800 
     34 N           1.3200  -17.8315  -39.5825 N.am      8 UNK        -0.5000 
     35 C           1.6772  -17.9164  -40.8717 C.2       7 UNK         0.5000 
     36 O           0.8923  -17.8160  -41.8174 O.2       7 UNK        -0.5000 
     37 CA          3.1640  -18.1903  -41.1515 C.3       7 UNK         0.1400 
     38 CB          3.3594  -19.6340  -41.6379 C.3       7 UNK        -0.1800 
     39 N           3.7021  -17.2595  -42.1454 N.am      7 UNK        -0.5000 
     40 C           3.8591  -15.9417  -41.9307 C.2       6 UNK         0.5000 
     41 O           3.5614  -15.3992  -40.8651 O.2       6 UNK        -0.5000 
     42 CA          4.4630  -15.0751  -43.0544 C.3       6 UNK         0.1400 
     43 CB          5.6135  -14.1917  -42.5290 C.3       6 UNK        -0.1800 
     44 N           4.9283  -15.8756  -44.1834 N.am      6 UNK        -0.5000 
     45 C           5.1262  -15.4366  -45.4284 C.2       5 UNK         0.5000 
     46 O           4.9645  -14.2674  -45.7790 O.2       5 UNK        -0.5000 
     47 CA          5.5819  -16.4848  -46.4612 C.3       5 UNK         0.1400 
     48 CB          6.9637  -17.0716  -46.1109 C.3       5 UNK        -0.1800 
     49 N           4.5947  -17.5430  -46.7043 N.am      5 UNK        -0.5000 
     50 C           4.1194  -18.4718  -45.8591 C.2       4 UNK         0.5000 
     51 O           4.4786  -18.5844  -44.6844 O.2       4 UNK        -0.5000 
     52 CA          3.0446  -19.4117  -46.4330 C.3       4 UNK         0.1400 
     53 CB          2.2444  -20.1579  -45.3547 C.3       4 UNK        -0.1800 
     54 N           2.1275  -18.6501  -47.2752 N.am      4 UNK        -0.5000 
     55 C           1.7410  -19.0013  -48.5080 C.2       3 UNK         0.5000 
     56 O           2.0602  -20.0561  -49.0560 O.2       3 UNK        -0.5000 
     57 CA          0.8729  -17.9835  -49.2757 C.3       3 UNK         0.1400 
     58 CB         -0.6102  -18.2234  -48.9544 C.3       3 UNK        -0.1800 
     59 N           1.1827  -16.5835  -48.9767 N.am      3 UNK        -0.5000 
     60 C           2.3889  -15.9967  -49.0014 C.2       2 UNK         0.5000 
     61 O           3.4194  -16.5510  -49.3849 O.2       2 UNK        -0.5000 
     62 CA          2.4701  -14.5680  -48.4293 C.3       2 UNK         0.1400 
     63 CB          2.4608  -13.5354  -49.5662 C.3       2 UNK        -0.1800 
     64 N           1.4021  -14.2380  -47.4786 N.am      2 UNK        -0.5000 
     65 C           1.1094  -14.8910  -46.3443 C.2       1 UNK         0.5000 
     66 O           1.7179  -15.8864  -45.9381 O.2       1 UNK        -0.5000 
     67 C          -3.6486  -22.7182  -45.7879 C.2       11 UNK         0.5000 
     68 O          -3.5068  -23.6092  -46.6249 O.2       11 UNK        -0.5000 
     69 N          -3.6629  -22.9430  -44.4657 N.am      12 UNK        -0.5000 
     70 CA         -3.4747  -24.2693  -43.8752 C.3       12 UNK         0.1400 
     71 CB         -3.9839  -24.2740  -42.4267 C.3       12 UNK        -0.1800 
     72 C          -2.0127  -24.7480  -43.9589 C.2       12 UNK         0.5000 
     73 O          -1.7823  -25.9415  -44.1528 O.2       12 UNK        -0.5000 
     74 N          -1.0544  -23.8142  -43.8618 N.am      13 UNK        -0.5000 
     75 CA          0.3725  -24.0804  -44.0677 C.3       13 UNK         0.1400 
     76 CB          1.2150  -22.9855  -43.3959 C.3       13 UNK        -0.1800 
     77 C           0.7224  -24.2178  -45.5604 C.2       13 UNK         0.5000 
     78 O           1.5692  -25.0384  -45.9142 O.2       13 UNK        -0.5000 
     79 N           0.0323  -23.4456  -46.4107 N.am      14 UNK        -0.5000 
     80 CA          0.1258  -23.5073  -47.8714 C.3       14 UNK         0.1400 
     81 CB         -0.4937  -22.2291  -48.4583 C.3       14 UNK        -0.1800 
     82 C          -0.5605  -24.7472  -48.4835 C.2       14 UNK         0.5000 
     83 O          -0.4271  -24.9672  -49.6868 O.2       14 UNK        -0.5000 
     84 N          -1.3231  -25.4989  -47.6730 N.am      15 UNK        -0.5000 
     85 CA         -2.1466  -26.6581  -48.0419 C.3       15 UNK         0.1400 
     86 CB         -1.2548  -27.8506  -48.4450 C.3       15 UNK        -0.1800 
     87 C          -3.2139  -26.3145  -49.1051 C.2       15 UNK         0.5000 
     88 O          -3.5002  -27.1257  -49.9870 O.2       15 UNK        -0.5000 
     89 N          -3.7525  -25.0898  -49.0080 N.am      16 UNK        -0.5000 
     90 CA         -4.7204  -24.4409  -49.8971 C.3       16 UNK         0.1400 
     91 CB         -6.0744  -25.1778  -49.8600 C.3       16 UNK        -0.1800 
     92 C          -4.2258  -24.2039  -51.3420 C.2       16 UNK         0.5000 
     93 O          -5.0310  -23.8198  -52.1897 O.2       16 UNK        -0.5000 
     94 N          -2.9241  -24.3885  -51.6144 N.am      17 UNK        -0.5000 
     95 CA         -2.3347  -24.2703  -52.9541 C.3       17 UNK         0.1400 
     96 CB         -0.9006  -24.8188  -52.9265 C.3       17 UNK        -0.1800 
     97 C          -2.3493  -22.8372  -53.5219 C.2       17 UNK         0.5000 
     98 O          -2.3215  -22.6670  -54.7410 O.2       17 UNK        -0.5000 
     99 N          -2.3973  -21.8376  -52.6318 N.am      18 UNK        -0.5000 
    100 CA        -2.4661  -20.4186  -52.9770 C.3       18 UNK         0.1400 
    101 CB        -1.9499  -19.5975  -51.7883 C.3       18 UNK        -0.1800 
    102 C         -3.8759  -19.9498  -53.3904 C.2       18 UNK         0.5000 
    103 O         -3.9957  -18.8620  -53.9541 O.2       18 UNK        -0.5000 
    104 N         -4.9198  -20.7475  -53.1089 N.am      19 UNK        -0.5000 
    105 CA        -6.3074  -20.4446  -53.4713 C.3       19 UNK         0.1400 
    106 CB        -7.2464  -21.5014  -52.8710 C.3       19 UNK        -0.1800 
    107 C         -6.4740  -20.3619  -55.0004 C.2       19 UNK         0.5000 
    108 O         -6.0068  -21.2542  -55.7120 O.2       19 UNK        -0.5000 
    109 N         -7.0740  -19.2606  -55.4725 N.am      20 UNK        -0.5000 
    110 CA        -7.2323  -18.8278  -56.8713 C.3       20 UNK         0.1400 
    111 CB        -8.0124  -19.8624  -57.7068 C.3       20 UNK        -0.1800 
    112 C         -5.9163  -18.4189  -57.5728 C.2       20 UNK         0.5000 
    113 O         -5.9432  -17.5229  -58.4181 O.2       20 UNK        -0.5000 
    114 N         -4.7857  -19.0303  -57.1918 N.am      21 UNK        -0.5000 
    115 CA        -3.4366  -18.7591  -57.7001 C.3       21 UNK         0.1400 
    116 CB        -2.4617  -19.7968  -57.1250 C.3       21 UNK        -0.1800 
    117 C         -2.9343  -17.3257  -57.4270 C.2       21 UNK         0.5000 
    118 O         -2.0586  -16.8502  -58.1522 O.2       21 UNK        -0.5000 
    119 N         -3.5183  -16.6491  -56.4269 N.am      22 UNK        -0.5000 
    120 CA        -3.3674  -15.2021  -56.1923 C.3       22 UNK         0.1400 
    121 C         -3.9074  -14.2977  -57.3446 C.2       22 UNK         0.5000 
    122 N         -4.7539  -14.7848  -58.2472 N.am      22 UNK        -0.7600 
    123 O         -3.5483  -13.1249  -57.4196 O.2       22 UNK        -0.5000 
    124 C124       -4.0051  -14.7563  -54.8508 C.3       23 UNK        -0.0398 
    125 S125       -3.2818  -15.5513  -53.3763 S.3       23 UNK        -0.2404 
    126 C126       -4.7890  -15.8318  -52.3945 C.3       23 UNK        -0.0205 
    127 H127       -0.5855  -14.0944  -40.9967 H         1 UNK         0.0600 
    128 H128        0.6882  -15.1086  -41.6714 H         1 UNK         0.0600 
    129 H129       -0.9801  -15.7041  -41.6115 H         1 UNK         0.0600 
    130 H130        0.6081  -15.6119  -44.0529 H         1 UNK         0.3000 
    131 H131       -0.0447  -13.2825  -45.5563 H         1 UNK         0.0600 
    132 H132       -2.2605  -14.7561  -45.5269 H         1 UNK         0.0800 
    133 H133       -1.4125  -15.8258  -46.6060 H         1 UNK         0.0800 
    134 H134       -4.1437  -13.1132  -48.2296 H         1 UNK         0.0800 
    135 H135       -4.1350  -14.1640  -46.8419 H         1 UNK         0.0800 
    136 H136       -4.1928  -13.9895  -50.4913 H         1 UNK         0.1150 
    137 H137       -4.6999  -18.2072  -51.0481 H         1 UNK         0.1150 
    138 H138       -3.7410  -16.6564  -47.1663 H         1 UNK         0.1150 
    139 H139       -4.2954  -19.7365  -49.2636 H         1 UNK         0.0800 
    140 H140       -3.2299  -19.1415  -48.0039 H         1 UNK         0.0800 
    141 H141       -5.5553  -21.6278  -47.4852 H         1 UNK         0.0800 
    142 H142       -5.9112  -21.1362  -45.8503 H         1 UNK         0.0800 
    143 H143       -3.1605  -21.2091  -47.1741 H         1 UNK         0.0600 
    144 H144       -3.8838  -19.5928  -44.9879 H         1 UNK         0.3000 
    145 H145       -0.6402  -18.6757  -44.2970 H         1 UNK         0.0600 
    146 H146       -2.2348  -17.0992  -43.3128 H         1 UNK         0.0600 
    147 H147       -2.7930  -17.5329  -44.9168 H         1 UNK         0.0600 
    148 H148       -3.5663  -18.2316  -43.4916 H         1 UNK         0.0600 
    149 H149       -0.5278  -19.1784  -42.1405 H         1 UNK         0.3000 
    150 H150       -2.5800  -20.7362  -39.7941 H         1 UNK         0.0600 
    151 H151       -1.5352  -22.8392  -40.8055 H         1 UNK         0.0600 
    152 H152       -0.8251  -22.3492  -39.2777 H         1 UNK         0.0600 
    153 H153        0.0155  -22.0113  -40.7855 H         1 UNK         0.0600 
    154 H154        0.1836  -19.9257  -39.7503 H         1 UNK         0.3000 
    155 H155       -0.2541  -16.4844  -39.4509 H         1 UNK         0.0600 
    156 H156        0.3135  -18.3683  -37.1046 H         1 UNK         0.0600 
    157 H157       -0.9268  -17.1204  -37.1298 H         1 UNK         0.0600 
    158 H158        0.7670  -16.6662  -37.2083 H         1 UNK         0.0600 
    159 H159        2.0373  -17.9400  -38.8799 H         1 UNK         0.3000 
    160 H160        3.7338  -18.0621  -40.2286 H         1 UNK         0.0600 
    161 H161        2.7760  -19.8360  -42.5353 H         1 UNK         0.0600 
    162 H162        3.0448  -20.3493  -40.8771 H         1 UNK         0.0600 
    163 H163        4.4058  -19.8383  -41.8657 H         1 UNK         0.0600 
    164 H164        3.9016  -17.6593  -43.0553 H         1 UNK         0.3000 
    165 H165        3.6565  -14.4272  -43.4043 H         1 UNK         0.0600 
    166 H166        5.9894  -13.5214  -43.3019 H         1 UNK         0.0600 
    167 H167        5.2856  -13.5650  -41.6989 H         1 UNK         0.0600 
    168 H168        6.4491  -14.7965  -42.1754 H         1 UNK         0.0600 
    169 H169        5.0493  -16.8702  -44.0247 H         1 UNK         0.3000 
    170 H170        5.6875  -15.9592  -47.4118 H         1 UNK         0.0600 
    171 H171        7.7029  -16.2784  -45.9918 H         1 UNK         0.0600 
    172 H172        6.9488  -17.6435  -45.1828 H         1 UNK         0.0600 
    173 H173        7.3204  -17.7310  -46.9020 H         1 UNK         0.0600 
    174 H174        4.1928  -17.5249  -47.6350 H         1 UNK         0.3000 
    175 H175        3.5813  -20.1524  -47.0290 H         1 UNK         0.0600 
    176 H176        1.7042  -19.4691  -44.7044 H         1 UNK         0.0600 
    177 H177        1.5187  -20.8324  -45.8083 H         1 UNK         0.0600 
    178 H178        2.9019  -20.7647  -44.7321 H         1 UNK         0.0600 
    179 H179        1.8522  -17.7434  -46.9104 H         1 UNK         0.3000 
    180 H180        1.0345  -18.1424  -50.3436 H         1 UNK         0.0600 
    181 H181       -1.2548  -17.6020  -49.5768 H         1 UNK         0.0600 
    182 H182       -0.8373  -18.0029  -47.9106 H         1 UNK         0.0600 
    183 H183       -0.8868  -19.2625  -49.1310 H         1 UNK         0.0600 
    184 H184        0.4074  -16.0209  -48.6605 H         1 UNK         0.3000 
    185 H185        3.4201  -14.4847  -47.9011 H         1 UNK         0.0600 
    186 H186        2.6154  -12.5261  -49.1841 H         1 UNK         0.0600 
    187 H187        3.2588  -13.7348  -50.2829 H         1 UNK         0.0600 
    188 H188        1.5170  -13.5480  -50.1130 H         1 UNK         0.0600 
    189 H189        0.8198  -13.4530  -47.7357 H         1 UNK         0.3000 
    190 H190       -3.7288  -22.1583  -43.8241 H         1 UNK         0.3000 
    191 H191       -4.0816  -24.9830  -44.4373 H         1 UNK         0.0600 
    192 H192       -3.8541  -25.2558  -41.9696 H         1 UNK         0.0600 
    193 H193       -5.0465  -24.0339  -42.3844 H         1 UNK         0.0600 
    194 H194       -3.4561  -23.5511  -41.8074 H         1 UNK         0.0600 
    195 H195       -1.3273  -22.8453  -43.7729 H         1 UNK         0.3000 
    196 H196        0.6266  -25.0298  -43.5912 H         1 UNK         0.0600 
    197 H197        0.8415  -21.9860  -43.6179 H         1 UNK         0.0600 
    198 H198        1.2187  -23.1133  -42.3152 H         1 UNK         0.0600 
    199 H199        2.2557  -23.0305  -43.7201 H         1 UNK         0.0600 
    200 H200       -0.5770  -22.7305  -46.0242 H         1 UNK         0.3000 
    201 H201        1.1822  -23.5361  -48.1460 H         1 UNK         0.0600 
    202 H202       -0.1380  -21.3399  -47.9386 H         1 UNK         0.0600 
    203 H203       -1.5805  -22.2449  -48.3948 H         1 UNK         0.0600 
    204 H204       -0.2315  -22.1187  -49.5113 H         1 UNK         0.0600 
    205 H205       -1.4029  -25.2003  -46.7114 H         1 UNK         0.3000 
    206 H206       -2.6941  -26.9420  -47.1419 H         1 UNK         0.0600 
    207 H207       -0.5184  -28.0699  -47.6717 H         1 UNK         0.0600 
    208 H208       -1.8501  -28.7528  -48.5905 H         1 UNK         0.0600 
    209 H209       -0.7181  -27.6592  -49.3747 H         1 UNK         0.0600 
    210 H210       -3.4778  -24.5321  -48.2008 H         1 UNK         0.3000 
    211 H211       -4.8808  -23.4471  -49.4767 H         1 UNK         0.0600 
    212 H212       -6.8426  -24.6163  -50.3933 H         1 UNK         0.0600 
    213 H213       -6.4238  -25.3081  -48.8357 H         1 UNK         0.0600 
    214 H214       -6.0120  -26.1634  -50.3220 H         1 UNK         0.0600 
    215 H215       -2.3045  -24.6985  -50.8752 H         1 UNK         0.3000 
    216 H216       -2.9225  -24.8942  -53.6307 H         1 UNK         0.0600 
    217 H217       -0.2524  -24.2147  -52.2906 H         1 UNK         0.0600 
    218 H218       -0.4650  -24.8240  -53.9265 H         1 UNK         0.0600 
    219 H219       -0.8753  -25.8434  -52.5548 H         1 UNK         0.0600 
    220 H220       -2.4074  -22.0737  -51.6512 H         1 UNK         0.3000 
    221 H221       -1.8002  -20.2321  -53.8215 H         1 UNK         0.0600 
    222 H222       -0.9123  -19.8453  -51.5633 H         1 UNK         0.0600 
    223 H223       -2.5417  -19.7765  -50.8917 H         1 UNK         0.0600 
    224 H224       -1.9889  -18.5278  -52.0009 H         1 UNK         0.0600 
    225 H225       -4.7476  -21.6658  -52.7201 H         1 UNK         0.3000 
    226 H226       -6.5580  -19.4774  -53.0296 H         1 UNK         0.0600 
    227 H227       -7.0730  -22.4863  -53.3069 H         1 UNK         0.0600 
    228 H228       -7.1144  -21.5830  -51.7914 H         1 UNK         0.0600 
    229 H229       -8.2906  -21.2432  -53.0542 H         1 UNK         0.0600 
    230 H230       -7.3950  -18.5836  -54.7933 H         1 UNK         0.3000 
    231 H231       -7.8440  -17.9249  -56.8251 H         1 UNK         0.0600 
    232 H232       -7.4457  -20.7823  -57.8553 H         1 UNK         0.0600 
    233 H233       -8.2442  -19.4650  -58.6960 H         1 UNK         0.0600 
    234 H234       -8.9589  -20.1219  -57.2313 H         1 UNK         0.0600 
    235 H235       -4.8707  -19.7734  -56.5075 H         1 UNK         0.3000 
    236 H236       -3.4676  -18.8885  -58.7843 H         1 UNK         0.0600 
    237 H237       -2.3683  -19.6996  -56.0442 H         1 UNK         0.0600 
    238 H238       -2.7878  -20.8144  -57.3438 H         1 UNK         0.0600 
    239 H239       -1.4644  -19.6752  -57.5513 H         1 UNK         0.0600 
    240 H240       -4.1675  -17.1411  -55.8283 H         1 UNK         0.3000 
    241 H241       -2.2958  -15.0021  -56.1305 H         1 UNK         0.0600 
    242 H242       -5.0860  -14.1816  -58.9830 H         1 UNK         0.3800 
    243 H243       -5.0692  -15.7497  -58.2168 H         1 UNK         0.3800 
    244 H244       -5.0801  -14.9456  -54.8775 H         1 UNK         0.0800 
    245 H245       -3.8927  -13.6787  -54.7126 H         1 UNK         0.0800 
    246 H246       -5.4459  -14.9640  -52.4732 H         1 UNK         0.0800 
    247 H247       -5.3387  -16.6752  -52.8152 H         1 UNK         0.0800 
@<TRIPOS>BOND
     1    1    2 1    
     2    1  127 1    
     3    1  128 1    
     4    1  129 1    
     5    2    3 2    
     6    2    4 am   BACKBONE|DICT|INTERRES
     7    4    5 1    
     8    4  130 1    
     9    5    6 1    
    10    5   65 1    
    11    5  131 1    
    12    6    7 1    
    13    6  132 1    
    14    6  133 1    
    15    7    8 1    
    16    8    9 1    
    17    8  134 1    
    18    8  135 1    
    19    9   10 ar   
    20    9   14 ar   
    21   10   11 ar   
    22   10  136 1    
    23   11   12 ar   
    24   11  126 1    
    25   12   13 ar   
    26   12  137 1    
    27   13   14 ar   
    28   13   15 1    
    29   14  138 1    
    30   15   16 1    
    31   15  139 1    
    32   15  140 1    
    33   16   17 1    
    34   17   18 1    
    35   17  141 1    
    36   17  142 1    
    37   18   19 1    
    38   18   67 1    
    39   18  143 1    
    40   19   20 am   BACKBONE|DICT|INTERRES
    41   19  144 1    
    42   20   21 2    
    43   20   22 1    
    44   22   23 1    
    45   22   24 1    
    46   22  145 1    
    47   23  146 1    
    48   23  147 1    
    49   23  148 1    
    50   24   25 am   BACKBONE|DICT|INTERRES
    51   24  149 1    
    52   25   26 2    
    53   25   27 1    
    54   27   28 1    
    55   27   29 1    
    56   27  150 1    
    57   28  151 1    
    58   28  152 1    
    59   28  153 1    
    60   29   30 am   BACKBONE|DICT|INTERRES
    61   29  154 1    
    62   30   31 2    
    63   30   32 1    
    64   32   33 1    
    65   32   34 1    
    66   32  155 1    
    67   33  156 1    
    68   33  157 1    
    69   33  158 1    
    70   34   35 am   BACKBONE|DICT|INTERRES
    71   34  159 1    
    72   35   36 2    
    73   35   37 1    
    74   37   38 1    
    75   37   39 1    
    76   37  160 1    
    77   38  161 1    
    78   38  162 1    
    79   38  163 1    
    80   39   40 am   BACKBONE|DICT|INTERRES
    81   39  164 1    
    82   40   41 2    
    83   40   42 1    
    84   42   43 1    
    85   42   44 1    
    86   42  165 1    
    87   43  166 1    
    88   43  167 1    
    89   43  168 1    
    90   44   45 am   BACKBONE|DICT|INTERRES
    91   44  169 1    
    92   45   46 2    
    93   45   47 1    
    94   47   48 1    
    95   47   49 1    
    96   47  170 1    
    97   48  171 1    
    98   48  172 1    
    99   48  173 1    
   100   49   50 am   BACKBONE|DICT|INTERRES
   101   49  174 1    
   102   50   51 2    
   103   50   52 1    
   104   52   53 1    
   105   52   54 1    
   106   52  175 1    
   107   53  176 1    
   108   53  177 1    
   109   53  178 1    
   110   54   55 am   BACKBONE|DICT|INTERRES
   111   54  179 1    
   112   55   56 2    
   113   55   57 1    
   114   57   58 1    
   115   57   59 1    
   116   57  180 1    
   117   58  181 1    
   118   58  182 1    
   119   58  183 1    
   120   59   60 am   BACKBONE|DICT|INTERRES
   121   59  184 1    
   122   60   61 2    
   123   60   62 1    
   124   62   63 1    
   125   62   64 1    
   126   62  185 1    
   127   63  186 1    
   128   63  187 1    
   129   63  188 1    
   130   64   65 am   BACKBONE|DICT|INTERRES
   131   64  189 1    
   132   65   66 2    
   133   67   68 2    
   134   67   69 am   BACKBONE|DICT|INTERRES
   135   69   70 1    
   136   69  190 1    
   137   70   71 1    
   138   70   72 1    
   139   70  191 1    
   140   71  192 1    
   141   71  193 1    
   142   71  194 1    
   143   72   73 2    
   144   72   74 am   BACKBONE|DICT|INTERRES
   145   74   75 1    
   146   74  195 1    
   147   75   76 1    
   148   75   77 1    
   149   75  196 1    
   150   76  197 1    
   151   76  198 1    
   152   76  199 1    
   153   77   78 2    
   154   77   79 am   BACKBONE|DICT|INTERRES
   155   79   80 1    
   156   79  200 1    
   157   80   81 1    
   158   80   82 1    
   159   80  201 1    
   160   81  202 1    
   161   81  203 1    
   162   81  204 1    
   163   82   83 2    
   164   82   84 am   BACKBONE|DICT|INTERRES
   165   84   85 1    
   166   84  205 1    
   167   85   86 1    
   168   85   87 1    
   169   85  206 1    
   170   86  207 1    
   171   86  208 1    
   172   86  209 1    
   173   87   88 2    
   174   87   89 am   BACKBONE|DICT|INTERRES
   175   89   90 1    
   176   89  210 1    
   177   90   91 1    
   178   90   92 1    
   179   90  211 1    
   180   91  212 1    
   181   91  213 1    
   182   91  214 1    
   183   92   93 2    
   184   92   94 am   BACKBONE|DICT|INTERRES
   185   94   95 1    
   186   94  215 1    
   187   95   96 1    
   188   95   97 1    
   189   95  216 1    
   190   96  217 1    
   191   96  218 1    
   192   96  219 1    
   193   97   98 2    
   194   97   99 am   BACKBONE|DICT|INTERRES
   195   99  100 1    
   196   99  220 1    
   197  100  101 1    
   198  100  102 1    
   199  100  221 1    
   200  101  222 1    
   201  101  223 1    
   202  101  224 1    
   203  102  103 2    
   204  102  104 am   BACKBONE|DICT|INTERRES
   205  104  105 1    
   206  104  225 1    
   207  105  106 1    
   208  105  107 1    
   209  105  226 1    
   210  106  227 1    
   211  106  228 1    
   212  106  229 1    
   213  107  108 2    
   214  107  109 am   BACKBONE|DICT|INTERRES
   215  109  110 1    
   216  109  230 1    
   217  110  111 1    
   218  110  112 1    
   219  110  231 1    
   220  111  232 1    
   221  111  233 1    
   222  111  234 1    
   223  112  113 2    
   224  112  114 am   BACKBONE|DICT|INTERRES
   225  114  115 1    
   226  114  235 1    
   227  115  116 1    
   228  115  117 1    
   229  115  236 1    
   230  116  237 1    
   231  116  238 1    
   232  116  239 1    
   233  117  118 2    
   234  117  119 am   BACKBONE|DICT|INTERRES
   235  119  120 1    
   236  119  240 1    
   237  120  121 1    
   238  120  124 1    
   239  120  241 1    
   240  121  122 am   BACKBONE|DICT|INTERRES
   241  121  123 2    
   242  122  242 1    
   243  122  243 1    
   244  124  125 1    
   245  124  244 1    
   246  124  245 1    
   247  125  126 1    
   248  126  246 1    
   249  126  247 1    
@<TRIPOS>SUBSTRUCTURE
     1 UNK         1 GROUP             0       ****    0 ROOT    
