@<TRIPOS>MOLECULE
3R540
247   249    1
SMALL
USER_CHARGES


@<TRIPOS>ATOM
      1 CA          1.2125  -12.8528  -47.8649 C.3       0 UNK        -0.1800 
      2 C           0.7958  -11.5255  -48.4955 C.2       0 UNK         0.5000 
      3 O           1.5829  -10.9319  -49.2299 O.2       0 UNK        -0.5000 
      4 N          -0.4236  -11.0283  -48.2550 N.am      1 UNK        -0.5000 
      5 CA         -1.4290  -11.5773  -47.3388 C.3       1 UNK         0.1400 
      6 C6         -2.8717  -11.2029  -47.7585 C.3       23 UNK        -0.0398 
      7 S7         -3.2815  -11.6958  -49.4681 S.3       23 UNK        -0.2404 
      8 C8         -4.0739  -13.3162  -49.2232 C.3       23 UNK        -0.0205 
      9 C9         -3.0544  -14.4225  -48.9956 C.ar      23 UNK        -0.0193 
     10 C10        -2.3082  -14.9142  -50.0713 C.ar      23 UNK        -0.1150 
     11 C11        -1.3931  -15.9539  -49.8856 C.ar      23 UNK        -0.0193 
     12 C12        -1.2296  -16.5041  -48.6135 C.ar      23 UNK        -0.1150 
     13 C13        -1.9743  -16.0280  -47.5314 C.ar      23 UNK        -0.0193 
     14 C14        -2.8789  -14.9793  -47.7248 C.ar      23 UNK        -0.1150 
     15 C15        -1.8260  -16.6853  -46.1680 C.3       23 UNK        -0.0205 
     16 S16        -3.3478  -17.5208  -45.6029 S.3       23 UNK        -0.2404 
     17 C17        -3.8453  -18.5295  -47.0511 C.3       23 UNK        -0.0398 
     18 CA         -3.4665  -20.0263  -46.9699 C.3       11 UNK         0.1400 
     19 N          -2.0373  -20.2256  -46.7056 N.am      11 UNK        -0.5000 
     20 C          -1.3319  -21.2760  -47.1393 C.2       10 UNK         0.5000 
     21 O          -1.8124  -22.1877  -47.8073 O.2       10 UNK        -0.5000 
     22 CA          0.1457  -21.3324  -46.7243 C.3       10 UNK         0.1400 
     23 CB          0.9744  -20.3299  -47.5416 C.3       10 UNK        -0.1800 
     24 N           0.3326  -21.0874  -45.2947 N.am      10 UNK        -0.5000 
     25 C          -0.1127  -21.8904  -44.3170 C.2       9 UNK         0.5000 
     26 O          -0.7868  -22.9021  -44.5245 O.2       9 UNK        -0.5000 
     27 CA          0.2324  -21.4769  -42.8706 C.3       9 UNK         0.1400 
     28 CB          0.0783  -22.6314  -41.8573 C.3       9 UNK        -0.1800 
     29 N           1.5509  -20.8480  -42.7496 N.am      9 UNK        -0.5000 
     30 C           2.7498  -21.4012  -42.9911 C.2       8 UNK         0.5000 
     31 O           2.9057  -22.5702  -43.3458 O.2       8 UNK        -0.5000 
     32 CA          3.9941  -20.5021  -42.8246 C.3       8 UNK         0.1400 
     33 CB          4.6577  -20.2578  -44.1895 C.3       8 UNK        -0.1800 
     34 N           3.7091  -19.2064  -42.2032 N.am      8 UNK        -0.5000 
     35 C           3.4581  -19.0052  -40.9022 C.2       7 UNK         0.5000 
     36 O           3.5124  -19.8917  -40.0497 O.2       7 UNK        -0.5000 
     37 CA          3.0207  -17.5819  -40.4981 C.3       7 UNK         0.1400 
     38 CB          4.2394  -16.6837  -40.2389 C.3       7 UNK        -0.1800 
     39 N           2.1527  -16.9522  -41.4978 N.am      7 UNK        -0.5000 
     40 C           0.9327  -17.3969  -41.8352 C.2       6 UNK         0.5000 
     41 O           0.3807  -18.3577  -41.3006 O.2       6 UNK        -0.5000 
     42 CA          0.2441  -16.6961  -43.0165 C.3       6 UNK         0.1400 
     43 CB         -0.4803  -15.4205  -42.5599 C.3       6 UNK        -0.1800 
     44 N           1.2046  -16.3827  -44.0756 N.am      6 UNK        -0.5000 
     45 C           1.7114  -17.2983  -44.9144 C.2       5 UNK         0.5000 
     46 O           1.3651  -18.4788  -44.9139 O.2       5 UNK        -0.5000 
     47 CA          2.7941  -16.8287  -45.9051 C.3       5 UNK         0.1400 
     48 CB          2.1501  -16.3565  -47.2153 C.3       5 UNK        -0.1800 
     49 N           3.6348  -15.7585  -45.3666 N.am      5 UNK        -0.5000 
     50 C           4.5002  -15.9189  -44.3559 C.2       4 UNK         0.5000 
     51 O           4.6956  -16.9949  -43.7941 O.2       4 UNK        -0.5000 
     52 CA          5.2256  -14.6579  -43.8486 C.3       4 UNK         0.1400 
     53 CB          6.5371  -14.4477  -44.6191 C.3       4 UNK        -0.1800 
     54 N           4.4221  -13.4321  -43.9177 N.am      4 UNK        -0.5000 
     55 C           3.2252  -13.2530  -43.3414 C.2       3 UNK         0.5000 
     56 O           2.6365  -14.1427  -42.7226 O.2       3 UNK        -0.5000 
     57 CA          2.5625  -11.8722  -43.4942 C.3       3 UNK         0.1400 
     58 CB          3.1159  -11.0340  -44.6656 C.3       3 UNK        -0.1800 
     59 N           1.1233  -12.0474  -43.6720 N.am      3 UNK        -0.5000 
     60 C           0.1707  -11.3327  -43.0627 C.2       2 UNK         0.5000 
     61 O           0.4005  -10.4433  -42.2407 O.2       2 UNK        -0.5000 
     62 CA         -1.2832  -11.6689  -43.4672 C.3       2 UNK         0.1400 
     63 CB         -2.3020  -10.6107  -42.9935 C.3       2 UNK        -0.1800 
     64 N          -1.4386  -11.9276  -44.9083 N.am      2 UNK        -0.5000 
     65 C          -1.1504  -11.0777  -45.9072 C.2       1 UNK         0.5000 
     66 O          -0.7044   -9.9401  -45.7396 O.2       1 UNK        -0.5000 
     67 C          -4.3698  -20.8009  -45.9877 C.2       11 UNK         0.5000 
     68 O          -5.5524  -20.9827  -46.2772 O.2       11 UNK        -0.5000 
     69 N          -3.8039  -21.2383  -44.8562 N.am      12 UNK        -0.5000 
     70 CA         -4.4904  -21.9800  -43.8062 C.3       12 UNK         0.1400 
     71 CB         -3.9182  -21.5560  -42.4398 C.3       12 UNK        -0.1800 
     72 C          -4.3848  -23.4908  -44.0756 C.2       12 UNK         0.5000 
     73 O          -5.2294  -24.0400  -44.7826 O.2       12 UNK        -0.5000 
     74 N          -3.3535  -24.1341  -43.5133 N.am      13 UNK        -0.5000 
     75 CA         -3.1241  -25.5792  -43.5427 C.3       13 UNK         0.1400 
     76 CB         -1.9149  -25.9131  -42.6553 C.3       13 UNK        -0.1800 
     77 C          -2.9313  -26.1567  -44.9556 C.2       13 UNK         0.5000 
     78 O          -3.4534  -27.2354  -45.2401 O.2       13 UNK        -0.5000 
     79 N          -2.2066  -25.4289  -45.8163 N.am      14 UNK        -0.5000 
     80 CA         -1.9736  -25.8180  -47.2114 C.3       14 UNK         0.1400 
     81 CB         -0.5664  -25.3736  -47.6382 C.3       14 UNK        -0.1800 
     82 C          -3.0623  -25.3034  -48.1774 C.2       14 UNK         0.5000 
     83 O          -3.0029  -25.6195  -49.3670 O.2       14 UNK        -0.5000 
     84 N          -4.0357  -24.5330  -47.6636 N.am      15 UNK        -0.5000 
     85 CA         -5.2367  -24.0290  -48.3439 C.3       15 UNK         0.1400 
     86 CB         -6.2293  -25.1885  -48.5667 C.3       15 UNK        -0.1800 
     87 C          -4.9581  -23.2386  -49.6428 C.2       15 UNK         0.5000 
     88 O          -5.7442  -23.3161  -50.5884 O.2       15 UNK        -0.5000 
     89 N          -3.8165  -22.5350  -49.6883 N.am      16 UNK        -0.5000 
     90 CA         -3.2605  -21.7897  -50.8255 C.3       16 UNK         0.1400 
     91 CB         -4.1536  -20.5811  -51.1758 C.3       16 UNK        -0.1800 
     92 C          -2.9642  -22.6768  -52.0543 C.2       16 UNK         0.5000 
     93 O          -2.9008  -22.1656  -53.1730 O.2       16 UNK        -0.5000 
     94 N          -2.8173  -23.9933  -51.8330 N.am      17 UNK        -0.5000 
     95 CA         -2.7512  -25.0501  -52.8456 C.3       17 UNK         0.1400 
     96 CB         -1.4206  -24.9858  -53.6237 C.3       17 UNK        -0.1800 
     97 C          -4.0131  -25.1008  -53.7401 C.2       17 UNK         0.5000 
     98 O          -3.9281  -25.4522  -54.9186 O.2       17 UNK        -0.5000 
     99 N          -5.1671  -24.7507  -53.1484 N.am      18 UNK        -0.5000 
    100 CA        -6.4999  -24.6945  -53.7470 C.3       18 UNK         0.1400 
    101 CB        -7.0181  -26.1214  -54.0382 C.3       18 UNK        -0.1800 
    102 C         -6.5422  -23.7366  -54.9556 C.2       18 UNK         0.5000 
    103 O         -6.2501  -22.5494  -54.7970 O.2       18 UNK        -0.5000 
    104 N         -6.8891  -24.2626  -56.1380 N.am      19 UNK        -0.5000 
    105 CA        -7.0352  -23.5313  -57.3992 C.3       19 UNK         0.1400 
    106 CB        -7.6105  -24.4870  -58.4563 C.3       19 UNK        -0.1800 
    107 C         -5.7439  -22.8665  -57.9189 C.2       19 UNK         0.5000 
    108 O         -5.8308  -21.9816  -58.7714 O.2       19 UNK        -0.5000 
    109 N         -4.5776  -23.2832  -57.4042 N.am      20 UNK        -0.5000 
    110 CA        -3.2803  -22.6799  -57.7103 C.3       20 UNK         0.1400 
    111 CB        -2.1626  -23.6030  -57.2097 C.3       20 UNK        -0.1800 
    112 C         -3.1090  -21.2618  -57.1288 C.2       20 UNK         0.5000 
    113 O         -2.2952  -20.5050  -57.6593 O.2       20 UNK        -0.5000 
    114 N         -3.8633  -20.9280  -56.0671 N.am      21 UNK        -0.5000 
    115 CA        -3.9421  -19.6179  -55.4061 C.3       21 UNK         0.1400 
    116 CB        -4.7726  -18.6496  -56.2721 C.3       21 UNK        -0.1800 
    117 C         -2.5601  -19.0445  -55.0209 C.2       21 UNK         0.5000 
    118 O         -2.2067  -17.9354  -55.4259 O.2       21 UNK        -0.5000 
    119 N         -1.7935  -19.8538  -54.2827 N.am      22 UNK        -0.5000 
    120 CA        -0.3932  -19.6416  -53.8754 C.3       22 UNK         0.1400 
    121 C          0.6558  -19.8330  -55.0138 C.2       22 UNK         0.5000 
    122 N          0.2788  -20.1558  -56.2452 N.am      22 UNK        -0.7600 
    123 O          1.8535  -19.7188  -54.7675 O.2       22 UNK        -0.5000 
    124 C124       -0.1423  -18.3184  -53.0951 C.3       23 UNK        -0.0398 
    125 S125       -1.2204  -18.0868  -51.6425 S.3       23 UNK        -0.2404 
    126 C126       -0.5808  -16.4877  -51.0538 C.3       23 UNK        -0.0205 
    127 H127        0.6030  -13.6653  -48.2615 H         1 UNK         0.0600 
    128 H128        2.2548  -13.0757  -48.0937 H         1 UNK         0.0600 
    129 H129        1.1089  -12.8284  -46.7810 H         1 UNK         0.0600 
    130 H130       -0.6712  -10.1421  -48.6702 H         1 UNK         0.3000 
    131 H131       -1.3577  -12.6649  -47.3428 H         1 UNK         0.0600 
    132 H132       -3.0190  -10.1234  -47.6884 H         1 UNK         0.0800 
    133 H133       -3.5984  -11.6477  -47.0765 H         1 UNK         0.0800 
    134 H134       -4.6589  -13.5540  -50.1128 H         1 UNK         0.0800 
    135 H135       -4.7882  -13.2637  -48.4003 H         1 UNK         0.0800 
    136 H136       -2.4461  -14.4880  -51.0552 H         1 UNK         0.1150 
    137 H137       -0.5407  -17.3249  -48.4779 H         1 UNK         0.1150 
    138 H138       -3.4661  -14.6198  -46.8915 H         1 UNK         0.1150 
    139 H139       -1.5491  -15.9243  -45.4398 H         1 UNK         0.0800 
    140 H140       -1.0115  -17.4096  -46.1776 H         1 UNK         0.0800 
    141 H141       -4.9235  -18.4176  -47.1792 H         1 UNK         0.0800 
    142 H142       -3.4227  -18.1171  -47.9653 H         1 UNK         0.0800 
    143 H143       -3.6871  -20.4416  -47.9537 H         1 UNK         0.0600 
    144 H144       -1.5801  -19.5234  -46.1434 H         1 UNK         0.3000 
    145 H145        0.5246  -22.3323  -46.9388 H         1 UNK         0.0600 
    146 H146        2.0280  -20.3686  -47.2645 H         1 UNK         0.0600 
    147 H147        0.9083  -20.5475  -48.6084 H         1 UNK         0.0600 
    148 H148        0.6271  -19.3077  -47.3953 H         1 UNK         0.0600 
    149 H149        0.8404  -20.2409  -45.0448 H         1 UNK         0.3000 
    150 H150       -0.4904  -20.7063  -42.6006 H         1 UNK         0.0600 
    151 H151       -0.9463  -22.9998  -41.8265 H         1 UNK         0.0600 
    152 H152        0.3325  -22.3051  -40.8489 H         1 UNK         0.0600 
    153 H153        0.7175  -23.4788  -42.1064 H         1 UNK         0.0600 
    154 H154        1.5354  -19.8788  -42.4602 H         1 UNK         0.3000 
    155 H155        4.7028  -21.0398  -42.1915 H         1 UNK         0.0600 
    156 H156        4.9386  -21.1984  -44.6647 H         1 UNK         0.0600 
    157 H157        5.5657  -19.6634  -44.0870 H         1 UNK         0.0600 
    158 H158        3.9876  -19.7336  -44.8713 H         1 UNK         0.0600 
    159 H159        3.7379  -18.3992  -42.8187 H         1 UNK         0.3000 
    160 H160        2.4535  -17.6606  -39.5683 H         1 UNK         0.0600 
    161 H161        4.8629  -16.5818  -41.1268 H         1 UNK         0.0600 
    162 H162        3.9350  -15.6846  -39.9264 H         1 UNK         0.0600 
    163 H163        4.8648  -17.0969  -39.4467 H         1 UNK         0.0600 
    164 H164        2.5153  -16.1338  -41.9732 H         1 UNK         0.3000 
    165 H165       -0.5071  -17.3793  -43.4193 H         1 UNK         0.0600 
    166 H166       -0.9562  -14.9146  -43.3983 H         1 UNK         0.0600 
    167 H167       -1.2635  -15.6598  -41.8397 H         1 UNK         0.0600 
    168 H168        0.1949  -14.7131  -42.0792 H         1 UNK         0.0600 
    169 H169        1.6126  -15.4579  -44.0555 H         1 UNK         0.3000 
    170 H170        3.4369  -17.6820  -46.1302 H         1 UNK         0.0600 
    171 H171        1.6690  -17.1877  -47.7290 H         1 UNK         0.0600 
    172 H172        1.3907  -15.5952  -47.0384 H         1 UNK         0.0600 
    173 H173        2.8912  -15.9442  -47.9002 H         1 UNK         0.0600 
    174 H174        3.5382  -14.8427  -45.7787 H         1 UNK         0.3000 
    175 H175        5.4717  -14.8261  -42.7984 H         1 UNK         0.0600 
    176 H176        6.3554  -14.2336  -45.6731 H         1 UNK         0.0600 
    177 H177        7.1122  -13.6208  -44.2020 H         1 UNK         0.0600 
    178 H178        7.1671  -15.3370  -44.5684 H         1 UNK         0.0600 
    179 H179        4.8347  -12.6562  -44.4150 H         1 UNK         0.3000 
    180 H180        2.7618  -11.3382  -42.5631 H         1 UNK         0.0600 
    181 H181        4.1650  -10.7779  -44.5146 H         1 UNK         0.0600 
    182 H182        3.0294  -11.5587  -45.6178 H         1 UNK         0.0600 
    183 H183        2.5727  -10.0932  -44.7604 H         1 UNK         0.0600 
    184 H184        0.8421  -12.7917  -44.2909 H         1 UNK         0.3000 
    185 H185       -1.5290  -12.6003  -42.9564 H         1 UNK         0.0600 
    186 H186       -2.2846  -10.5094  -41.9077 H         1 UNK         0.0600 
    187 H187       -2.0934   -9.6275  -43.4163 H         1 UNK         0.0600 
    188 H188       -3.3178  -10.8879  -43.2751 H         1 UNK         0.0600 
    189 H189       -1.8144  -12.8357  -45.1416 H         1 UNK         0.3000 
    190 H190       -2.8137  -21.0925  -44.7363 H         1 UNK         0.3000 
    191 H191       -5.5528  -21.7267  -43.8066 H         1 UNK         0.0600 
    192 H192       -4.3498  -22.1474  -41.6311 H         1 UNK         0.0600 
    193 H193       -4.1507  -20.5113  -42.2323 H         1 UNK         0.0600 
    194 H194       -2.8358  -21.6630  -42.3918 H         1 UNK         0.0600 
    195 H195       -2.6649  -23.5902  -43.0162 H         1 UNK         0.3000 
    196 H196       -4.0050  -26.0583  -43.1105 H         1 UNK         0.0600 
    197 H197       -1.7330  -26.9883  -42.6307 H         1 UNK         0.0600 
    198 H198       -2.0765  -25.5883  -41.6274 H         1 UNK         0.0600 
    199 H199       -1.0048  -25.4346  -43.0200 H         1 UNK         0.0600 
    200 H200       -1.7982  -24.5550  -45.4998 H         1 UNK         0.3000 
    201 H201       -1.9933  -26.9070  -47.2889 H         1 UNK         0.0600 
    202 H202       -0.4402  -24.2980  -47.5595 H         1 UNK         0.0600 
    203 H203       -0.3597  -25.6536  -48.6718 H         1 UNK         0.0600 
    204 H204        0.1967  -25.8426  -47.0170 H         1 UNK         0.0600 
    205 H205       -3.9976  -24.3410  -46.6711 H         1 UNK         0.3000 
    206 H206       -5.7042  -23.3246  -47.6556 H         1 UNK         0.0600 
    207 H207       -5.8455  -25.9148  -49.2841 H         1 UNK         0.0600 
    208 H208       -6.4344  -25.7141  -47.6339 H         1 UNK         0.0600 
    209 H209       -7.1841  -24.8233  -48.9467 H         1 UNK         0.0600 
    210 H210       -3.1983  -22.5755  -48.8787 H         1 UNK         0.3000 
    211 H211       -2.2963  -21.4018  -50.4944 H         1 UNK         0.0600 
    212 H212       -5.1133  -20.8927  -51.5891 H         1 UNK         0.0600 
    213 H213       -3.6745  -19.9415  -51.9171 H         1 UNK         0.0600 
    214 H214       -4.3481  -19.9637  -50.2993 H         1 UNK         0.0600 
    215 H215       -2.8868  -24.3294  -50.8765 H         1 UNK         0.3000 
    216 H216       -2.7547  -25.9922  -52.2958 H         1 UNK         0.0600 
    217 H217       -1.2759  -24.0241  -54.1130 H         1 UNK         0.0600 
    218 H218       -1.3675  -25.7603  -54.3896 H         1 UNK         0.0600 
    219 H219       -0.5751  -25.1397  -52.9534 H         1 UNK         0.0600 
    220 H220       -5.1242  -24.3960  -52.1985 H         1 UNK         0.3000 
    221 H221       -7.1539  -24.2549  -52.9926 H         1 UNK         0.0600 
    222 H222       -6.4063  -26.6427  -54.7753 H         1 UNK         0.0600 
    223 H223       -7.0189  -26.7241  -53.1298 H         1 UNK         0.0600 
    224 H224       -8.0448  -26.1019  -54.4060 H         1 UNK         0.0600 
    225 H225       -7.0798  -25.2534  -56.1750 H         1 UNK         0.3000 
    226 H226       -7.7593  -22.7315  -57.2319 H         1 UNK         0.0600 
    227 H227       -8.5730  -24.8913  -58.1423 H         1 UNK         0.0600 
    228 H228       -7.7713  -23.9725  -59.4048 H         1 UNK         0.0600 
    229 H229       -6.9389  -25.3249  -58.6474 H         1 UNK         0.0600 
    230 H230       -4.5865  -24.0148  -56.7046 H         1 UNK         0.3000 
    231 H231       -3.1913  -22.6009  -58.7959 H         1 UNK         0.0600 
    232 H232       -2.2050  -23.7135  -56.1284 H         1 UNK         0.0600 
    233 H233       -2.2374  -24.5960  -57.6530 H         1 UNK         0.0600 
    234 H234       -1.1793  -23.2039  -57.4617 H         1 UNK         0.0600 
    235 H235       -4.4807  -21.6354  -55.6839 H         1 UNK         0.3000 
    236 H236       -4.4834  -19.7760  -54.4720 H         1 UNK         0.0600 
    237 H237       -5.7615  -19.0586  -56.4798 H         1 UNK         0.0600 
    238 H238       -4.9157  -17.6949  -55.7647 H         1 UNK         0.0600 
    239 H239       -4.2877  -18.4459  -57.2275 H         1 UNK         0.0600 
    240 H240       -2.1901  -20.7498  -54.0011 H         1 UNK         0.3000 
    241 H241       -0.1898  -20.4583  -53.1820 H         1 UNK         0.0600 
    242 H242        0.9839  -20.2834  -56.9533 H         1 UNK         0.3800 
    243 H243       -0.6997  -20.2187  -56.5041 H         1 UNK         0.3800 
    244 H244       -0.2575  -17.4582  -53.7557 H         1 UNK         0.0800 
    245 H245        0.8888  -18.2853  -52.7389 H         1 UNK         0.0800 
    246 H246        0.4611  -16.6024  -50.7506 H         1 UNK         0.0800 
    247 H247       -0.5869  -15.7703  -51.8760 H         1 UNK         0.0800 
@<TRIPOS>BOND
     1    1    2 1    
     2    1  127 1    
     3    1  128 1    
     4    1  129 1    
     5    2    3 2    
     6    2    4 am   BACKBONE|DICT|INTERRES
     7    4    5 1    
     8    4  130 1    
     9    5    6 1    
    10    5   65 1    
    11    5  131 1    
    12    6    7 1    
    13    6  132 1    
    14    6  133 1    
    15    7    8 1    
    16    8    9 1    
    17    8  134 1    
    18    8  135 1    
    19    9   10 ar   
    20    9   14 ar   
    21   10   11 ar   
    22   10  136 1    
    23   11   12 ar   
    24   11  126 1    
    25   12   13 ar   
    26   12  137 1    
    27   13   14 ar   
    28   13   15 1    
    29   14  138 1    
    30   15   16 1    
    31   15  139 1    
    32   15  140 1    
    33   16   17 1    
    34   17   18 1    
    35   17  141 1    
    36   17  142 1    
    37   18   19 1    
    38   18   67 1    
    39   18  143 1    
    40   19   20 am   BACKBONE|DICT|INTERRES
    41   19  144 1    
    42   20   21 2    
    43   20   22 1    
    44   22   23 1    
    45   22   24 1    
    46   22  145 1    
    47   23  146 1    
    48   23  147 1    
    49   23  148 1    
    50   24   25 am   BACKBONE|DICT|INTERRES
    51   24  149 1    
    52   25   26 2    
    53   25   27 1    
    54   27   28 1    
    55   27   29 1    
    56   27  150 1    
    57   28  151 1    
    58   28  152 1    
    59   28  153 1    
    60   29   30 am   BACKBONE|DICT|INTERRES
    61   29  154 1    
    62   30   31 2    
    63   30   32 1    
    64   32   33 1    
    65   32   34 1    
    66   32  155 1    
    67   33  156 1    
    68   33  157 1    
    69   33  158 1    
    70   34   35 am   BACKBONE|DICT|INTERRES
    71   34  159 1    
    72   35   36 2    
    73   35   37 1    
    74   37   38 1    
    75   37   39 1    
    76   37  160 1    
    77   38  161 1    
    78   38  162 1    
    79   38  163 1    
    80   39   40 am   BACKBONE|DICT|INTERRES
    81   39  164 1    
    82   40   41 2    
    83   40   42 1    
    84   42   43 1    
    85   42   44 1    
    86   42  165 1    
    87   43  166 1    
    88   43  167 1    
    89   43  168 1    
    90   44   45 am   BACKBONE|DICT|INTERRES
    91   44  169 1    
    92   45   46 2    
    93   45   47 1    
    94   47   48 1    
    95   47   49 1    
    96   47  170 1    
    97   48  171 1    
    98   48  172 1    
    99   48  173 1    
   100   49   50 am   BACKBONE|DICT|INTERRES
   101   49  174 1    
   102   50   51 2    
   103   50   52 1    
   104   52   53 1    
   105   52   54 1    
   106   52  175 1    
   107   53  176 1    
   108   53  177 1    
   109   53  178 1    
   110   54   55 am   BACKBONE|DICT|INTERRES
   111   54  179 1    
   112   55   56 2    
   113   55   57 1    
   114   57   58 1    
   115   57   59 1    
   116   57  180 1    
   117   58  181 1    
   118   58  182 1    
   119   58  183 1    
   120   59   60 am   BACKBONE|DICT|INTERRES
   121   59  184 1    
   122   60   61 2    
   123   60   62 1    
   124   62   63 1    
   125   62   64 1    
   126   62  185 1    
   127   63  186 1    
   128   63  187 1    
   129   63  188 1    
   130   64   65 am   BACKBONE|DICT|INTERRES
   131   64  189 1    
   132   65   66 2    
   133   67   68 2    
   134   67   69 am   BACKBONE|DICT|INTERRES
   135   69   70 1    
   136   69  190 1    
   137   70   71 1    
   138   70   72 1    
   139   70  191 1    
   140   71  192 1    
   141   71  193 1    
   142   71  194 1    
   143   72   73 2    
   144   72   74 am   BACKBONE|DICT|INTERRES
   145   74   75 1    
   146   74  195 1    
   147   75   76 1    
   148   75   77 1    
   149   75  196 1    
   150   76  197 1    
   151   76  198 1    
   152   76  199 1    
   153   77   78 2    
   154   77   79 am   BACKBONE|DICT|INTERRES
   155   79   80 1    
   156   79  200 1    
   157   80   81 1    
   158   80   82 1    
   159   80  201 1    
   160   81  202 1    
   161   81  203 1    
   162   81  204 1    
   163   82   83 2    
   164   82   84 am   BACKBONE|DICT|INTERRES
   165   84   85 1    
   166   84  205 1    
   167   85   86 1    
   168   85   87 1    
   169   85  206 1    
   170   86  207 1    
   171   86  208 1    
   172   86  209 1    
   173   87   88 2    
   174   87   89 am   BACKBONE|DICT|INTERRES
   175   89   90 1    
   176   89  210 1    
   177   90   91 1    
   178   90   92 1    
   179   90  211 1    
   180   91  212 1    
   181   91  213 1    
   182   91  214 1    
   183   92   93 2    
   184   92   94 am   BACKBONE|DICT|INTERRES
   185   94   95 1    
   186   94  215 1    
   187   95   96 1    
   188   95   97 1    
   189   95  216 1    
   190   96  217 1    
   191   96  218 1    
   192   96  219 1    
   193   97   98 2    
   194   97   99 am   BACKBONE|DICT|INTERRES
   195   99  100 1    
   196   99  220 1    
   197  100  101 1    
   198  100  102 1    
   199  100  221 1    
   200  101  222 1    
   201  101  223 1    
   202  101  224 1    
   203  102  103 2    
   204  102  104 am   BACKBONE|DICT|INTERRES
   205  104  105 1    
   206  104  225 1    
   207  105  106 1    
   208  105  107 1    
   209  105  226 1    
   210  106  227 1    
   211  106  228 1    
   212  106  229 1    
   213  107  108 2    
   214  107  109 am   BACKBONE|DICT|INTERRES
   215  109  110 1    
   216  109  230 1    
   217  110  111 1    
   218  110  112 1    
   219  110  231 1    
   220  111  232 1    
   221  111  233 1    
   222  111  234 1    
   223  112  113 2    
   224  112  114 am   BACKBONE|DICT|INTERRES
   225  114  115 1    
   226  114  235 1    
   227  115  116 1    
   228  115  117 1    
   229  115  236 1    
   230  116  237 1    
   231  116  238 1    
   232  116  239 1    
   233  117  118 2    
   234  117  119 am   BACKBONE|DICT|INTERRES
   235  119  120 1    
   236  119  240 1    
   237  120  121 1    
   238  120  124 1    
   239  120  241 1    
   240  121  122 am   BACKBONE|DICT|INTERRES
   241  121  123 2    
   242  122  242 1    
   243  122  243 1    
   244  124  125 1    
   245  124  244 1    
   246  124  245 1    
   247  125  126 1    
   248  126  246 1    
   249  126  247 1    
@<TRIPOS>SUBSTRUCTURE
     1 UNK         1 GROUP             0       ****    0 ROOT    
