@<TRIPOS>MOLECULE
3R540
247   249    1
SMALL
USER_CHARGES


@<TRIPOS>ATOM
      1 CA         -1.5462  -12.5817  -43.0934 C.3       0 UNK        -0.1800 
      2 C          -1.7396  -12.8620  -44.5771 C.2       0 UNK         0.5000 
      3 O          -0.9504  -13.5914  -45.1778 O.2       0 UNK        -0.5000 
      4 N          -2.7887  -12.2851  -45.1749 N.am      1 UNK        -0.5000 
      5 CA         -3.1284  -12.3907  -46.5981 C.3       1 UNK         0.1400 
      6 C6         -3.4581  -13.8409  -47.0590 C.3       23 UNK        -0.0398 
      7 S7         -4.7259  -14.6765  -46.0424 S.3       23 UNK        -0.2404 
      8 C8         -3.9255  -16.2859  -45.7197 C.3       23 UNK        -0.0205 
      9 C9         -3.7118  -17.0665  -47.0094 C.ar      23 UNK        -0.0193 
     10 C10        -4.7944  -17.6839  -47.6413 C.ar      23 UNK        -0.1150 
     11 C11        -4.6320  -18.3243  -48.8734 C.ar      23 UNK        -0.0193 
     12 C12        -3.3653  -18.3443  -49.4680 C.ar      23 UNK        -0.1150 
     13 C13        -2.2689  -17.7475  -48.8385 C.ar      23 UNK        -0.0193 
     14 C14        -2.4463  -17.1242  -47.6003 C.ar      23 UNK        -0.1150 
     15 C15        -0.9102  -17.7118  -49.5264 C.3       23 UNK        -0.0205 
     16 S16        -0.0840  -19.3328  -49.5654 S.3       23 UNK        -0.2404 
     17 C17         0.2536  -19.6234  -47.7950 C.3       23 UNK        -0.0398 
     18 CA         -0.1733  -21.0316  -47.3185 C.3       11 UNK         0.1400 
     19 N           0.4252  -21.3593  -46.0215 N.am      11 UNK        -0.5000 
     20 C           0.4236  -22.5805  -45.4694 C.2       10 UNK         0.5000 
     21 O          -0.0732  -23.5721  -45.9990 O.2       10 UNK        -0.5000 
     22 CA          1.0460  -22.7162  -44.0705 C.3       10 UNK         0.1400 
     23 CB          2.5789  -22.7509  -44.1587 C.3       10 UNK        -0.1800 
     24 N           0.6215  -21.6536  -43.1604 N.am      10 UNK        -0.5000 
     25 C          -0.6443  -21.4502  -42.7676 C.2       9 UNK         0.5000 
     26 O          -1.5890  -22.1627  -43.1063 O.2       9 UNK        -0.5000 
     27 CA         -0.9083  -20.2133  -41.8903 C.3       9 UNK         0.1400 
     28 CB         -0.4872  -20.4687  -40.4357 C.3       9 UNK        -0.1800 
     29 N          -0.2384  -19.0141  -42.3931 N.am      9 UNK        -0.5000 
     30 C          -0.4731  -18.4599  -43.5915 C.2       8 UNK         0.5000 
     31 O          -1.2979  -18.8834  -44.3998 O.2       8 UNK        -0.5000 
     32 CA          0.3982  -17.2535  -43.9675 C.3       8 UNK         0.1400 
     33 CB         -0.0961  -15.9938  -43.2483 C.3       8 UNK        -0.1800 
     34 N           1.8116  -17.4817  -43.6659 N.am      8 UNK        -0.5000 
     35 C           2.5668  -18.4130  -44.2658 C.2       7 UNK         0.5000 
     36 O           2.1695  -19.1323  -45.1821 O.2       7 UNK        -0.5000 
     37 CA          3.9842  -18.6156  -43.7059 C.3       7 UNK         0.1400 
     38 CB          4.9668  -17.5961  -44.3010 C.3       7 UNK        -0.1800 
     39 N           4.0087  -18.5452  -42.2437 N.am      7 UNK        -0.5000 
     40 C           3.4641  -19.4764  -41.4464 C.2       6 UNK         0.5000 
     41 O           2.9140  -20.4929  -41.8664 O.2       6 UNK        -0.5000 
     42 CA          3.5075  -19.2276  -39.9288 C.3       6 UNK         0.1400 
     43 CB          4.7827  -19.8312  -39.3221 C.3       6 UNK        -0.1800 
     44 N           3.4222  -17.8151  -39.5619 N.am      6 UNK        -0.5000 
     45 C           2.3760  -17.0132  -39.8016 C.2       5 UNK         0.5000 
     46 O           1.3555  -17.3850  -40.3851 O.2       5 UNK        -0.5000 
     47 CA          2.4863  -15.5512  -39.3089 C.3       5 UNK         0.1400 
     48 CB          3.8267  -15.2247  -38.6116 C.3       5 UNK        -0.1800 
     49 N           2.2340  -14.5483  -40.3500 N.am      5 UNK        -0.5000 
     50 C           2.7752  -14.4890  -41.5743 C.2       4 UNK         0.5000 
     51 O           3.4727  -15.3755  -42.0757 O.2       4 UNK        -0.5000 
     52 CA          2.5119  -13.1980  -42.3613 C.3       4 UNK         0.1400 
     53 CB          3.4728  -12.0818  -41.9114 C.3       4 UNK        -0.1800 
     54 N           2.6841  -13.4691  -43.7836 N.am      4 UNK        -0.5000 
     55 C           2.1951  -12.7296  -44.7847 C.2       3 UNK         0.5000 
     56 O           1.6109  -11.6572  -44.6112 O.2       3 UNK        -0.5000 
     57 CA          2.3939  -13.2632  -46.2170 C.3       3 UNK         0.1400 
     58 CB          2.6059  -14.7901  -46.2904 C.3       3 UNK        -0.1800 
     59 N           1.2304  -12.9122  -47.0293 N.am      3 UNK        -0.5000 
     60 C           1.2671  -12.3067  -48.2238 C.2       2 UNK         0.5000 
     61 O           2.3140  -11.9604  -48.7738 O.2       2 UNK        -0.5000 
     62 CA         -0.0718  -12.0600  -48.9534 C.3       2 UNK         0.1400 
     63 CB         -0.0954  -12.8031  -50.3004 C.3       2 UNK        -0.1800 
     64 N          -1.2292  -12.4995  -48.1738 N.am      2 UNK        -0.5000 
     65 C          -2.0228  -11.7077  -47.4402 C.2       1 UNK         0.5000 
     66 O          -1.8989  -10.4827  -47.3830 O.2       1 UNK        -0.5000 
     67 C          -1.7066  -21.2210  -47.3225 C.2       11 UNK         0.5000 
     68 O          -2.2461  -21.7286  -48.3030 O.2       11 UNK        -0.5000 
     69 N          -2.3771  -20.8586  -46.2198 N.am      12 UNK        -0.5000 
     70 CA         -3.8105  -21.0773  -46.0325 C.3       12 UNK         0.1400 
     71 CB         -4.2909  -20.2958  -44.8008 C.3       12 UNK        -0.1800 
     72 C          -4.1723  -22.5698  -45.9056 C.2       12 UNK         0.5000 
     73 O          -5.1797  -22.9975  -46.4702 O.2       12 UNK        -0.5000 
     74 N          -3.3535  -23.3313  -45.1648 N.am      13 UNK        -0.5000 
     75 CA         -3.5197  -24.7689  -44.9525 C.3       13 UNK         0.1400 
     76 CB         -2.6185  -25.2283  -43.7951 C.3       13 UNK        -0.1800 
     77 C          -3.2433  -25.5841  -46.2276 C.2       13 UNK         0.5000 
     78 O          -4.1047  -26.3489  -46.6644 O.2       13 UNK        -0.5000 
     79 N          -2.0571  -25.3916  -46.8149 N.am      14 UNK        -0.5000 
     80 CA         -1.6313  -26.0000  -48.0705 C.3       14 UNK         0.1400 
     81 CB         -0.1324  -26.3409  -47.9838 C.3       14 UNK        -0.1800 
     82 C          -1.9546  -25.0300  -49.2165 C.2       14 UNK         0.5000 
     83 O          -1.0480  -24.4248  -49.7888 O.2       14 UNK        -0.5000 
     84 N          -3.2560  -24.8943  -49.5096 N.am      15 UNK        -0.5000 
     85 CA         -3.8561  -23.9281  -50.4383 C.3       15 UNK         0.1400 
     86 CB         -5.3533  -24.2421  -50.5657 C.3       15 UNK        -0.1800 
     87 C          -3.2050  -23.8558  -51.8329 C.2       15 UNK         0.5000 
     88 O          -3.1189  -22.7735  -52.4114 O.2       15 UNK        -0.5000 
     89 N          -2.7136  -25.0024  -52.3232 N.am      16 UNK        -0.5000 
     90 CA         -1.9822  -25.1598  -53.5825 C.3       16 UNK         0.1400 
     91 CB         -1.7603  -26.6599  -53.8318 C.3       16 UNK        -0.1800 
     92 C          -0.6435  -24.3911  -53.6614 C.2       16 UNK         0.5000 
     93 O          -0.0866  -24.2810  -54.7545 O.2       16 UNK        -0.5000 
     94 N          -0.1455  -23.8687  -52.5295 N.am      17 UNK        -0.5000 
     95 CA          1.0010  -22.9600  -52.4665 C.3       17 UNK         0.1400 
     96 CB          1.4021  -22.7459  -50.9991 C.3       17 UNK        -0.1800 
     97 C           0.7354  -21.6043  -53.1526 C.2       17 UNK         0.5000 
     98 O           1.6783  -20.9944  -53.6598 O.2       17 UNK        -0.5000 
     99 N          -0.5309  -21.1659  -53.1787 N.am      18 UNK        -0.5000 
    100 CA        -0.9789  -20.0033  -53.9379 C.3       18 UNK         0.1400 
    101 CB        -2.2110  -19.3984  -53.2503 C.3       18 UNK        -0.1800 
    102 C         -1.3196  -20.4230  -55.3755 C.2       18 UNK         0.5000 
    103 O         -1.9130  -21.4845  -55.5765 O.2       18 UNK        -0.5000 
    104 N         -0.9962  -19.5619  -56.3495 N.am      19 UNK        -0.5000 
    105 CA        -1.2500  -19.7864  -57.7789 C.3       19 UNK         0.1400 
    106 CB        -0.5718  -18.6725  -58.5910 C.3       19 UNK        -0.1800 
    107 C         -2.7473  -19.8814  -58.1379 C.2       19 UNK         0.5000 
    108 O         -3.1041  -20.5741  -59.0912 O.2       19 UNK        -0.5000 
    109 N         -3.5931  -19.2063  -57.3486 N.am      20 UNK        -0.5000 
    110 CA        -5.0531  -19.2561  -57.4390 C.3       20 UNK         0.1400 
    111 CB        -5.6167  -17.9413  -56.8744 C.3       20 UNK        -0.1800 
    112 C         -5.6671  -20.4634  -56.6986 C.2       20 UNK         0.5000 
    113 O         -6.8859  -20.6361  -56.7512 O.2       20 UNK        -0.5000 
    114 N         -4.8418  -21.2423  -55.9784 N.am      21 UNK        -0.5000 
    115 CA        -5.2039  -22.3948  -55.1416 C.3       21 UNK         0.1400 
    116 CB        -5.6576  -23.5775  -56.0211 C.3       21 UNK        -0.1800 
    117 C         -6.2187  -22.0558  -54.0243 C.2       21 UNK         0.5000 
    118 O         -7.0076  -22.9153  -53.6284 O.2       21 UNK        -0.5000 
    119 N         -6.2048  -20.7925  -53.5741 N.am      22 UNK        -0.5000 
    120 CA        -7.1916  -20.1673  -52.6751 C.3       22 UNK         0.1400 
    121 C         -8.6360  -20.0701  -53.2637 C.2       22 UNK         0.5000 
    122 N         -8.8394  -20.2094  -54.5694 N.am      22 UNK        -0.7600 
    123 O         -9.5928  -19.8264  -52.5333 O.2       22 UNK        -0.5000 
    124 C124       -7.1659  -20.7406  -51.2286 C.3       23 UNK        -0.0398 
    125 S125       -5.5536  -20.5031  -50.4042 S.3       23 UNK        -0.2404 
    126 C126       -5.8521  -18.9021  -49.5840 C.3       23 UNK        -0.0205 
    127 H127       -2.3885  -12.0315  -42.6736 H         1 UNK         0.0600 
    128 H128       -0.6448  -11.9891  -42.9419 H         1 UNK         0.0600 
    129 H129       -1.4427  -13.5137  -42.5394 H         1 UNK         0.0600 
    130 H130       -3.3913  -11.6808  -44.6346 H         1 UNK         0.3000 
    131 H131       -4.0304  -11.7933  -46.7391 H         1 UNK         0.0600 
    132 H132       -3.8108  -13.8389  -48.0917 H         1 UNK         0.0800 
    133 H133       -2.5582  -14.4525  -47.0454 H         1 UNK         0.0800 
    134 H134       -2.9789  -16.1270  -45.2005 H         1 UNK         0.0800 
    135 H135       -4.5544  -16.8638  -45.0418 H         1 UNK         0.0800 
    136 H136       -5.7741  -17.6272  -47.1881 H         1 UNK         0.1150 
    137 H137       -3.2360  -18.8146  -50.4305 H         1 UNK         0.1150 
    138 H138       -1.6068  -16.6477  -47.1141 H         1 UNK         0.1150 
    139 H139       -1.0423  -17.3637  -50.5516 H         1 UNK         0.0800 
    140 H140       -0.2504  -16.9876  -49.0458 H         1 UNK         0.0800 
    141 H141       -0.2075  -18.8529  -47.1761 H         1 UNK         0.0800 
    142 H142        1.3296  -19.5037  -47.6651 H         1 UNK         0.0800 
    143 H143        0.2324  -21.7546  -48.0298 H         1 UNK         0.0600 
    144 H144        0.8828  -20.5969  -45.5308 H         1 UNK         0.3000 
    145 H145        0.7106  -23.6662  -43.6495 H         1 UNK         0.0600 
    146 H146        2.9831  -21.8063  -44.5238 H         1 UNK         0.0600 
    147 H147        2.9142  -23.5370  -44.8364 H         1 UNK         0.0600 
    148 H148        3.0244  -22.9509  -43.1842 H         1 UNK         0.0600 
    149 H149        1.3551  -21.0506  -42.7975 H         1 UNK         0.3000 
    150 H150       -1.9829  -20.0200  -41.9040 H         1 UNK         0.0600 
    151 H151       -1.0221  -21.3238  -40.0206 H         1 UNK         0.0600 
    152 H152       -0.7069  -19.6079  -39.8038 H         1 UNK         0.0600 
    153 H153        0.5789  -20.6793  -40.3555 H         1 UNK         0.0600 
    154 H154        0.4387  -18.5731  -41.7790 H         1 UNK         0.3000 
    155 H155        0.2995  -17.0940  -45.0432 H         1 UNK         0.0600 
    156 H156       -1.1453  -15.8071  -43.4783 H         1 UNK         0.0600 
    157 H157        0.4661  -15.1184  -43.5648 H         1 UNK         0.0600 
    158 H158       -0.0104  -16.0741  -42.1655 H         1 UNK         0.0600 
    159 H159        2.2160  -16.9518  -42.9032 H         1 UNK         0.3000 
    160 H160        4.3173  -19.6123  -44.0031 H         1 UNK         0.0600 
    161 H161        4.7048  -16.5725  -44.0359 H         1 UNK         0.0600 
    162 H162        4.9785  -17.6581  -45.3900 H         1 UNK         0.0600 
    163 H163        5.9835  -17.7813  -43.9544 H         1 UNK         0.0600 
    164 H164        4.3870  -17.7037  -41.8305 H         1 UNK         0.3000 
    165 H165        2.6484  -19.7361  -39.4873 H         1 UNK         0.0600 
    166 H166        4.7842  -19.7412  -38.2357 H         1 UNK         0.0600 
    167 H167        4.8625  -20.8932  -39.5587 H         1 UNK         0.0600 
    168 H168        5.6804  -19.3418  -39.7020 H         1 UNK         0.0600 
    169 H169        4.2232  -17.4251  -39.0871 H         1 UNK         0.3000 
    170 H170        1.6937  -15.4301  -38.5693 H         1 UNK         0.0600 
    171 H171        4.6741  -15.3200  -39.2921 H         1 UNK         0.0600 
    172 H172        3.8271  -14.2027  -38.2323 H         1 UNK         0.0600 
    173 H173        4.0030  -15.8768  -37.7551 H         1 UNK         0.0600 
    174 H174        1.6384  -13.7850  -40.0620 H         1 UNK         0.3000 
    175 H175        1.4804  -12.8906  -42.1803 H         1 UNK         0.0600 
    176 H176        4.5128  -12.3497  -42.1018 H         1 UNK         0.0600 
    177 H177        3.2685  -11.1456  -42.4308 H         1 UNK         0.0600 
    178 H178        3.3747  -11.8842  -40.8433 H         1 UNK         0.0600 
    179 H179        3.1497  -14.3461  -43.9789 H         1 UNK         0.3000 
    180 H180        3.2901  -12.7734  -46.6019 H         1 UNK         0.0600 
    181 H181        2.6959  -15.1221  -47.3249 H         1 UNK         0.0600 
    182 H182        1.7720  -15.3308  -45.8433 H         1 UNK         0.0600 
    183 H183        3.5198  -15.0958  -45.7808 H         1 UNK         0.0600 
    184 H184        0.3344  -13.0896  -46.5834 H         1 UNK         0.3000 
    185 H185       -0.1380  -10.9890  -49.1553 H         1 UNK         0.0600 
    186 H186       -1.0234  -12.6114  -50.8396 H         1 UNK         0.0600 
    187 H187        0.7234  -12.4786  -50.9438 H         1 UNK         0.0600 
    188 H188       -0.0011  -13.8816  -50.1674 H         1 UNK         0.0600 
    189 H189       -1.3758  -13.4971  -48.1380 H         1 UNK         0.3000 
    190 H190       -1.8841  -20.3827  -45.4696 H         1 UNK         0.3000 
    191 H191       -4.3278  -20.6806  -46.9090 H         1 UNK         0.0600 
    192 H192       -4.0829  -19.2321  -44.9064 H         1 UNK         0.0600 
    193 H193       -3.8025  -20.6402  -43.8887 H         1 UNK         0.0600 
    194 H194       -5.3669  -20.4066  -44.6627 H         1 UNK         0.0600 
    195 H195       -2.5742  -22.8888  -44.6873 H         1 UNK         0.3000 
    196 H196       -4.5562  -24.9499  -44.6604 H         1 UNK         0.0600 
    197 H197       -2.8845  -24.7227  -42.8667 H         1 UNK         0.0600 
    198 H198       -1.5661  -25.0234  -43.9947 H         1 UNK         0.0600 
    199 H199       -2.7189  -26.3004  -43.6223 H         1 UNK         0.0600 
    200 H200       -1.4170  -24.6989  -46.4280 H         1 UNK         0.3000 
    201 H201       -2.1736  -26.9310  -48.2480 H         1 UNK         0.0600 
    202 H202        0.0671  -27.0308  -47.1638 H         1 UNK         0.0600 
    203 H203        0.4797  -25.4519  -47.8282 H         1 UNK         0.0600 
    204 H204        0.2110  -26.8174  -48.9026 H         1 UNK         0.0600 
    205 H205       -3.9102  -25.4253  -48.9508 H         1 UNK         0.3000 
    206 H206       -3.7557  -22.9402  -49.9890 H         1 UNK         0.0600 
    207 H207       -5.5243  -25.2576  -50.9245 H         1 UNK         0.0600 
    208 H208       -5.8621  -24.1294  -49.6079 H         1 UNK         0.0600 
    209 H209       -5.8341  -23.5630  -51.2683 H         1 UNK         0.0600 
    210 H210       -2.8105  -25.8321  -51.7570 H         1 UNK         0.3000 
    211 H211       -2.6171  -24.7699  -54.3807 H         1 UNK         0.0600 
    212 H212       -1.1470  -27.1094  -53.0498 H         1 UNK         0.0600 
    213 H213       -1.2549  -26.8295  -54.7835 H         1 UNK         0.0600 
    214 H214       -2.7072  -27.1989  -53.8698 H         1 UNK         0.0600 
    215 H215       -0.6316  -24.0352  -51.6520 H         1 UNK         0.3000 
    216 H216        1.8368  -23.4357  -52.9835 H         1 UNK         0.0600 
    217 H217        2.2708  -22.0912  -50.9202 H         1 UNK         0.0600 
    218 H218        1.6580  -23.6893  -50.5165 H         1 UNK         0.0600 
    219 H219        0.5929  -22.2876  -50.4294 H         1 UNK         0.0600 
    220 H220       -1.2629  -21.7591  -52.8030 H         1 UNK         0.3000 
    221 H221       -0.1907  -19.2476  -53.9581 H         1 UNK         0.0600 
    222 H222       -3.0259  -20.1188  -53.1656 H         1 UNK         0.0600 
    223 H223       -1.9568  -19.0601  -52.2475 H         1 UNK         0.0600 
    224 H224       -2.5870  -18.5344  -53.7993 H         1 UNK         0.0600 
    225 H225       -0.5201  -18.7041  -56.1090 H         1 UNK         0.3000 
    226 H226       -0.7890  -20.7378  -58.0530 H         1 UNK         0.0600 
    227 H227        0.5036  -18.6528  -58.4132 H         1 UNK         0.0600 
    228 H228       -0.7195  -18.8238  -59.6612 H         1 UNK         0.0600 
    229 H229       -0.9730  -17.6898  -58.3401 H         1 UNK         0.0600 
    230 H230       -3.2048  -18.6530  -56.5992 H         1 UNK         0.3000 
    231 H231       -5.3472  -19.3317  -58.4879 H         1 UNK         0.0600 
    232 H232       -6.7036  -17.9090  -56.9621 H         1 UNK         0.0600 
    233 H233       -5.2251  -17.0800  -57.4159 H         1 UNK         0.0600 
    234 H234       -5.3692  -17.8161  -55.8195 H         1 UNK         0.0600 
    235 H235       -3.8471  -21.0454  -56.0051 H         1 UNK         0.3000 
    236 H236       -4.2855  -22.7000  -54.6440 H         1 UNK         0.0600 
    237 H237       -6.6071  -23.3722  -56.5161 H         1 UNK         0.0600 
    238 H238       -4.9185  -23.8012  -56.7904 H         1 UNK         0.0600 
    239 H239       -5.7864  -24.4818  -55.4252 H         1 UNK         0.0600 
    240 H240       -5.5125  -20.1688  -53.9590 H         1 UNK         0.3000 
    241 H241       -6.8790  -19.1253  -52.6031 H         1 UNK         0.0600 
    242 H242       -9.7772  -20.1308  -54.9291 H         1 UNK         0.3800 
    243 H243       -8.0771  -20.4036  -55.2113 H         1 UNK         0.3800 
    244 H244       -7.4069  -21.8033  -51.2336 H         1 UNK         0.0800 
    245 H245       -7.9319  -20.2719  -50.6091 H         1 UNK         0.0800 
    246 H246       -6.1869  -18.1770  -50.3265 H         1 UNK         0.0800 
    247 H247       -6.6736  -19.0278  -48.8769 H         1 UNK         0.0800 
@<TRIPOS>BOND
     1    1    2 1    
     2    1  127 1    
     3    1  128 1    
     4    1  129 1    
     5    2    3 2    
     6    2    4 am   BACKBONE|DICT|INTERRES
     7    4    5 1    
     8    4  130 1    
     9    5    6 1    
    10    5   65 1    
    11    5  131 1    
    12    6    7 1    
    13    6  132 1    
    14    6  133 1    
    15    7    8 1    
    16    8    9 1    
    17    8  134 1    
    18    8  135 1    
    19    9   10 ar   
    20    9   14 ar   
    21   10   11 ar   
    22   10  136 1    
    23   11   12 ar   
    24   11  126 1    
    25   12   13 ar   
    26   12  137 1    
    27   13   14 ar   
    28   13   15 1    
    29   14  138 1    
    30   15   16 1    
    31   15  139 1    
    32   15  140 1    
    33   16   17 1    
    34   17   18 1    
    35   17  141 1    
    36   17  142 1    
    37   18   19 1    
    38   18   67 1    
    39   18  143 1    
    40   19   20 am   BACKBONE|DICT|INTERRES
    41   19  144 1    
    42   20   21 2    
    43   20   22 1    
    44   22   23 1    
    45   22   24 1    
    46   22  145 1    
    47   23  146 1    
    48   23  147 1    
    49   23  148 1    
    50   24   25 am   BACKBONE|DICT|INTERRES
    51   24  149 1    
    52   25   26 2    
    53   25   27 1    
    54   27   28 1    
    55   27   29 1    
    56   27  150 1    
    57   28  151 1    
    58   28  152 1    
    59   28  153 1    
    60   29   30 am   BACKBONE|DICT|INTERRES
    61   29  154 1    
    62   30   31 2    
    63   30   32 1    
    64   32   33 1    
    65   32   34 1    
    66   32  155 1    
    67   33  156 1    
    68   33  157 1    
    69   33  158 1    
    70   34   35 am   BACKBONE|DICT|INTERRES
    71   34  159 1    
    72   35   36 2    
    73   35   37 1    
    74   37   38 1    
    75   37   39 1    
    76   37  160 1    
    77   38  161 1    
    78   38  162 1    
    79   38  163 1    
    80   39   40 am   BACKBONE|DICT|INTERRES
    81   39  164 1    
    82   40   41 2    
    83   40   42 1    
    84   42   43 1    
    85   42   44 1    
    86   42  165 1    
    87   43  166 1    
    88   43  167 1    
    89   43  168 1    
    90   44   45 am   BACKBONE|DICT|INTERRES
    91   44  169 1    
    92   45   46 2    
    93   45   47 1    
    94   47   48 1    
    95   47   49 1    
    96   47  170 1    
    97   48  171 1    
    98   48  172 1    
    99   48  173 1    
   100   49   50 am   BACKBONE|DICT|INTERRES
   101   49  174 1    
   102   50   51 2    
   103   50   52 1    
   104   52   53 1    
   105   52   54 1    
   106   52  175 1    
   107   53  176 1    
   108   53  177 1    
   109   53  178 1    
   110   54   55 am   BACKBONE|DICT|INTERRES
   111   54  179 1    
   112   55   56 2    
   113   55   57 1    
   114   57   58 1    
   115   57   59 1    
   116   57  180 1    
   117   58  181 1    
   118   58  182 1    
   119   58  183 1    
   120   59   60 am   BACKBONE|DICT|INTERRES
   121   59  184 1    
   122   60   61 2    
   123   60   62 1    
   124   62   63 1    
   125   62   64 1    
   126   62  185 1    
   127   63  186 1    
   128   63  187 1    
   129   63  188 1    
   130   64   65 am   BACKBONE|DICT|INTERRES
   131   64  189 1    
   132   65   66 2    
   133   67   68 2    
   134   67   69 am   BACKBONE|DICT|INTERRES
   135   69   70 1    
   136   69  190 1    
   137   70   71 1    
   138   70   72 1    
   139   70  191 1    
   140   71  192 1    
   141   71  193 1    
   142   71  194 1    
   143   72   73 2    
   144   72   74 am   BACKBONE|DICT|INTERRES
   145   74   75 1    
   146   74  195 1    
   147   75   76 1    
   148   75   77 1    
   149   75  196 1    
   150   76  197 1    
   151   76  198 1    
   152   76  199 1    
   153   77   78 2    
   154   77   79 am   BACKBONE|DICT|INTERRES
   155   79   80 1    
   156   79  200 1    
   157   80   81 1    
   158   80   82 1    
   159   80  201 1    
   160   81  202 1    
   161   81  203 1    
   162   81  204 1    
   163   82   83 2    
   164   82   84 am   BACKBONE|DICT|INTERRES
   165   84   85 1    
   166   84  205 1    
   167   85   86 1    
   168   85   87 1    
   169   85  206 1    
   170   86  207 1    
   171   86  208 1    
   172   86  209 1    
   173   87   88 2    
   174   87   89 am   BACKBONE|DICT|INTERRES
   175   89   90 1    
   176   89  210 1    
   177   90   91 1    
   178   90   92 1    
   179   90  211 1    
   180   91  212 1    
   181   91  213 1    
   182   91  214 1    
   183   92   93 2    
   184   92   94 am   BACKBONE|DICT|INTERRES
   185   94   95 1    
   186   94  215 1    
   187   95   96 1    
   188   95   97 1    
   189   95  216 1    
   190   96  217 1    
   191   96  218 1    
   192   96  219 1    
   193   97   98 2    
   194   97   99 am   BACKBONE|DICT|INTERRES
   195   99  100 1    
   196   99  220 1    
   197  100  101 1    
   198  100  102 1    
   199  100  221 1    
   200  101  222 1    
   201  101  223 1    
   202  101  224 1    
   203  102  103 2    
   204  102  104 am   BACKBONE|DICT|INTERRES
   205  104  105 1    
   206  104  225 1    
   207  105  106 1    
   208  105  107 1    
   209  105  226 1    
   210  106  227 1    
   211  106  228 1    
   212  106  229 1    
   213  107  108 2    
   214  107  109 am   BACKBONE|DICT|INTERRES
   215  109  110 1    
   216  109  230 1    
   217  110  111 1    
   218  110  112 1    
   219  110  231 1    
   220  111  232 1    
   221  111  233 1    
   222  111  234 1    
   223  112  113 2    
   224  112  114 am   BACKBONE|DICT|INTERRES
   225  114  115 1    
   226  114  235 1    
   227  115  116 1    
   228  115  117 1    
   229  115  236 1    
   230  116  237 1    
   231  116  238 1    
   232  116  239 1    
   233  117  118 2    
   234  117  119 am   BACKBONE|DICT|INTERRES
   235  119  120 1    
   236  119  240 1    
   237  120  121 1    
   238  120  124 1    
   239  120  241 1    
   240  121  122 am   BACKBONE|DICT|INTERRES
   241  121  123 2    
   242  122  242 1    
   243  122  243 1    
   244  124  125 1    
   245  124  244 1    
   246  124  245 1    
   247  125  126 1    
   248  126  246 1    
   249  126  247 1    
@<TRIPOS>SUBSTRUCTURE
     1 UNK         1 GROUP             0       ****    0 ROOT    
