@<TRIPOS>MOLECULE
3R540
247   249    1
SMALL
USER_CHARGES


@<TRIPOS>ATOM
      1 CA          1.0436   -9.4287  -50.7737 C.3       0 UNK        -0.1800 
      2 C           0.6139  -10.8358  -50.3838 C.2       0 UNK         0.5000 
      3 O           1.4408  -11.7470  -50.3717 O.2       0 UNK        -0.5000 
      4 N          -0.6724  -11.0137  -50.0636 N.am      1 UNK        -0.5000 
      5 CA         -1.2696  -12.2911  -49.6625 C.3       1 UNK         0.1400 
      6 C6         -1.7307  -13.1336  -50.8841 C.3       23 UNK        -0.0398 
      7 S7         -1.5792  -14.9262  -50.5883 S.3       23 UNK        -0.2404 
      8 C8          0.1103  -15.2176  -51.1898 C.3       23 UNK        -0.0205 
      9 C9          0.5887  -16.6177  -50.8434 C.ar      23 UNK        -0.0193 
     10 C10         0.3798  -17.6762  -51.7317 C.ar      23 UNK        -0.1150 
     11 C11         0.8479  -18.9574  -51.4265 C.ar      23 UNK        -0.0193 
     12 C12         1.5296  -19.1734  -50.2269 C.ar      23 UNK        -0.1150 
     13 C13         1.7316  -18.1269  -49.3192 C.ar      23 UNK        -0.0193 
     14 C14         1.2579  -16.8509  -49.6384 C.ar      23 UNK        -0.1150 
     15 C15         2.4953  -18.3270  -48.0127 C.3       23 UNK        -0.0205 
     16 S16         2.3779  -19.9984  -47.2947 S.3       23 UNK        -0.2404 
     17 C17         0.6616  -20.0384  -46.6663 C.3       23 UNK        -0.0398 
     18 CA         -0.0964  -21.3239  -47.0832 C.3       11 UNK         0.1400 
     19 N           0.6693  -22.5261  -46.7744 N.am      11 UNK        -0.5000 
     20 C           0.4228  -23.7505  -47.2460 C.2       10 UNK         0.5000 
     21 O          -0.5535  -24.0423  -47.9366 O.2       10 UNK        -0.5000 
     22 CA          1.4528  -24.8240  -46.8492 C.3       10 UNK         0.1400 
     23 CB          2.7103  -24.7161  -47.7251 C.3       10 UNK        -0.1800 
     24 N           1.8298  -24.7258  -45.4370 N.am      10 UNK        -0.5000 
     25 C           0.9759  -24.9576  -44.4321 C.2       9 UNK         0.5000 
     26 O          -0.1907  -25.3075  -44.6016 O.2       9 UNK        -0.5000 
     27 CA          1.4913  -24.7263  -43.0023 C.3       9 UNK         0.1400 
     28 CB          2.2800  -25.9475  -42.5077 C.3       9 UNK        -0.1800 
     29 N           2.3054  -23.5184  -42.8420 N.am      9 UNK        -0.5000 
     30 C           1.8770  -22.2686  -43.0650 C.2       8 UNK         0.5000 
     31 O           0.7912  -21.9938  -43.5798 O.2       8 UNK        -0.5000 
     32 CA          2.8176  -21.1316  -42.6280 C.3       8 UNK         0.1400 
     33 CB          3.4630  -20.4416  -43.8362 C.3       8 UNK        -0.1800 
     34 N           2.1077  -20.1328  -41.8306 N.am      8 UNK        -0.5000 
     35 C           1.6134  -20.3403  -40.6057 C.2       7 UNK         0.5000 
     36 O           1.7415  -21.4022  -39.9944 O.2       7 UNK        -0.5000 
     37 CA          0.8606  -19.1781  -39.9296 C.3       7 UNK         0.1400 
     38 CB          1.8440  -18.2116  -39.2419 C.3       7 UNK        -0.1800 
     39 N          -0.0962  -18.4490  -40.7753 N.am      7 UNK        -0.5000 
     40 C           0.1312  -17.6484  -41.8263 C.2       6 UNK         0.5000 
     41 O           1.2378  -17.4806  -42.3446 O.2       6 UNK        -0.5000 
     42 CA         -1.1006  -16.8749  -42.3344 C.3       6 UNK         0.1400 
     43 CB         -1.4992  -15.7779  -41.3324 C.3       6 UNK        -0.1800 
     44 N          -0.8761  -16.2509  -43.6365 N.am      6 UNK        -0.5000 
     45 C          -0.9995  -16.8820  -44.8116 C.2       5 UNK         0.5000 
     46 O          -1.2826  -18.0749  -44.9139 O.2       5 UNK        -0.5000 
     47 CA         -0.8330  -16.0447  -46.0950 C.3       5 UNK         0.1400 
     48 CB         -2.2075  -15.8002  -46.7356 C.3       5 UNK        -0.1800 
     49 N          -0.1875  -14.7513  -45.8664 N.am      5 UNK        -0.5000 
     50 C           1.1358  -14.5798  -45.7313 C.2       4 UNK         0.5000 
     51 O           1.9520  -15.4948  -45.8263 O.2       4 UNK        -0.5000 
     52 CA          1.6470  -13.1530  -45.4419 C.3       4 UNK         0.1400 
     53 CB          2.1591  -12.5012  -46.7362 C.3       4 UNK        -0.1800 
     54 N           0.6499  -12.2689  -44.8363 N.am      4 UNK        -0.5000 
     55 C           0.0664  -12.4476  -43.6425 C.2       3 UNK         0.5000 
     56 O           0.3448  -13.3720  -42.8803 O.2       3 UNK        -0.5000 
     57 CA         -1.0543  -11.4567  -43.2633 C.3       3 UNK         0.1400 
     58 CB         -0.5055  -10.3442  -42.3579 C.3       3 UNK        -0.1800 
     59 N          -1.7200  -10.8488  -44.4228 N.am      3 UNK        -0.5000 
     60 C          -2.3977  -11.5269  -45.3606 C.2       2 UNK         0.5000 
     61 O          -2.5431  -12.7488  -45.3291 O.2       2 UNK        -0.5000 
     62 CA         -2.9421  -10.7333  -46.5633 C.3       2 UNK         0.1400 
     63 CB         -2.9448   -9.2049  -46.3583 C.3       2 UNK        -0.1800 
     64 N          -2.1257  -11.0511  -47.7332 N.am      2 UNK        -0.5000 
     65 C          -2.3578  -12.0540  -48.5929 C.2       1 UNK         0.5000 
     66 O          -3.3722  -12.7513  -48.5669 O.2       1 UNK        -0.5000 
     67 C          -1.4966  -21.3780  -46.4443 C.2       11 UNK         0.5000 
     68 O          -2.4899  -21.2091  -47.1537 O.2       11 UNK        -0.5000 
     69 N          -1.5365  -21.6223  -45.1271 N.am      12 UNK        -0.5000 
     70 CA         -2.7309  -21.5078  -44.2975 C.3       12 UNK         0.1400 
     71 CB         -2.3420  -20.9043  -42.9363 C.3       12 UNK        -0.1800 
     72 C          -3.4488  -22.8510  -44.1033 C.2       12 UNK         0.5000 
     73 O          -4.6368  -22.9442  -44.4101 O.2       12 UNK        -0.5000 
     74 N          -2.7402  -23.8571  -43.5689 N.am      13 UNK        -0.5000 
     75 CA         -3.3350  -25.1258  -43.1307 C.3       13 UNK         0.1400 
     76 CB         -2.4122  -25.8314  -42.1236 C.3       13 UNK        -0.1800 
     77 C          -3.7017  -26.0473  -44.3057 C.2       13 UNK         0.5000 
     78 O          -4.8130  -26.5772  -44.3375 O.2       13 UNK        -0.5000 
     79 N          -2.7848  -26.1817  -45.2734 N.am      14 UNK        -0.5000 
     80 CA         -3.0318  -26.8506  -46.5559 C.3       14 UNK         0.1400 
     81 CB         -1.7033  -27.3415  -47.1466 C.3       14 UNK        -0.1800 
     82 C          -3.7887  -25.9462  -47.5525 C.2       14 UNK         0.5000 
     83 O          -4.2578  -26.4392  -48.5787 O.2       14 UNK        -0.5000 
     84 N          -3.9203  -24.6562  -47.2093 N.am      15 UNK        -0.5000 
     85 CA         -4.7561  -23.6343  -47.8408 C.3       15 UNK         0.1400 
     86 CB         -6.2454  -24.0322  -47.7577 C.3       15 UNK        -0.1800 
     87 C          -4.3221  -23.2405  -49.2657 C.2       15 UNK         0.5000 
     88 O          -5.1576  -22.7679  -50.0381 O.2       15 UNK        -0.5000 
     89 N          -3.0296  -23.3904  -49.5957 N.am      16 UNK        -0.5000 
     90 CA         -2.4795  -23.0477  -50.9117 C.3       16 UNK         0.1400 
     91 CB         -1.0204  -23.5160  -51.0064 C.3       16 UNK        -0.1800 
     92 C          -2.5793  -21.5482  -51.2477 C.2       16 UNK         0.5000 
     93 O          -2.7157  -21.2022  -52.4225 O.2       16 UNK        -0.5000 
     94 N          -2.5285  -20.6885  -50.2199 N.am      17 UNK        -0.5000 
     95 CA         -2.6851  -19.2420  -50.3612 C.3       17 UNK         0.1400 
     96 CB         -2.1261  -18.5423  -49.1178 C.3       17 UNK        -0.1800 
     97 C          -4.1486  -18.8406  -50.5996 C.2       17 UNK         0.5000 
     98 O          -4.4097  -17.9649  -51.4231 O.2       17 UNK        -0.5000 
     99 N          -5.0782  -19.5149  -49.9076 N.am      18 UNK        -0.5000 
    100 CA        -6.5223  -19.3220  -50.0566 C.3       18 UNK         0.1400 
    101 CB        -7.2518  -19.9954  -48.8857 C.3       18 UNK        -0.1800 
    102 C         -7.0417  -19.8498  -51.4063 C.2       18 UNK         0.5000 
    103 O         -7.9000  -19.2155  -52.0205 O.2       18 UNK        -0.5000 
    104 N         -6.4797  -20.9786  -51.8604 N.am      19 UNK        -0.5000 
    105 CA        -6.7129  -21.5607  -53.1830 C.3       19 UNK         0.1400 
    106 CB        -6.1818  -23.0028  -53.1864 C.3       19 UNK        -0.1800 
    107 C         -6.0622  -20.7557  -54.3266 C.2       19 UNK         0.5000 
    108 O         -6.4559  -20.9322  -55.4801 O.2       19 UNK        -0.5000 
    109 N         -5.0767  -19.9094  -53.9873 N.am      20 UNK        -0.5000 
    110 CA        -4.2335  -19.1066  -54.8778 C.3       20 UNK         0.1400 
    111 CB        -5.0610  -18.0113  -55.5811 C.3       20 UNK        -0.1800 
    112 C         -3.4260  -19.9888  -55.8518 C.2       20 UNK         0.5000 
    113 O         -3.3783  -19.7179  -57.0530 O.2       20 UNK        -0.5000 
    114 N         -2.8271  -21.0556  -55.3055 N.am      21 UNK        -0.5000 
    115 CA        -2.0683  -22.0599  -56.0525 C.3       21 UNK         0.1400 
    116 CB        -1.9183  -23.3122  -55.1754 C.3       21 UNK        -0.1800 
    117 C         -0.6876  -21.5574  -56.5165 C.2       21 UNK         0.5000 
    118 O         -0.1566  -22.0653  -57.5051 O.2       21 UNK        -0.5000 
    119 N         -0.1304  -20.5843  -55.7882 N.am      22 UNK        -0.5000 
    120 CA         1.1606  -19.9448  -56.0717 C.3       22 UNK         0.1400 
    121 C          1.0536  -18.9395  -57.2493 C.2       22 UNK         0.5000 
    122 N          1.9982  -18.9565  -58.1798 N.am      22 UNK        -0.7600 
    123 O          0.1448  -18.1140  -57.3021 O.2       22 UNK        -0.5000 
    124 C124        1.7357  -19.2502  -54.8121 C.3       23 UNK        -0.0398 
    125 S125        2.0352  -20.4315  -53.4526 S.3       23 UNK        -0.2404 
    126 C126        0.6055  -20.1221  -52.3717 C.3       23 UNK        -0.0205 
    127 H127        0.2116   -8.7251  -50.7380 H         1 UNK         0.0600 
    128 H128        1.4470   -9.4273  -51.7863 H         1 UNK         0.0600 
    129 H129        1.8196   -9.0726  -50.0960 H         1 UNK         0.0600 
    130 H130       -1.3116  -10.2308  -50.1043 H         1 UNK         0.3000 
    131 H131       -0.4983  -12.8564  -49.1345 H         1 UNK         0.0600 
    132 H132       -2.7590  -12.9005  -51.1652 H         1 UNK         0.0800 
    133 H133       -1.1319  -12.8915  -51.7633 H         1 UNK         0.0800 
    134 H134        0.7855  -14.4795  -50.7535 H         1 UNK         0.0800 
    135 H135        0.1432  -15.0647  -52.2696 H         1 UNK         0.0800 
    136 H136       -0.1506  -17.5002  -52.6565 H         1 UNK         0.1150 
    137 H137        1.9024  -20.1635  -50.0081 H         1 UNK         0.1150 
    138 H138        1.4194  -16.0315  -48.9513 H         1 UNK         0.1150 
    139 H139        2.1562  -17.6118  -47.2642 H         1 UNK         0.0800 
    140 H140        3.5469  -18.1049  -48.1969 H         1 UNK         0.0800 
    141 H141        0.1265  -19.1563  -47.0173 H         1 UNK         0.0800 
    142 H142        0.7031  -19.9484  -45.5796 H         1 UNK         0.0800 
    143 H143       -0.2301  -21.2916  -48.1669 H         1 UNK         0.0600 
    144 H144        1.4744  -22.3937  -46.1815 H         1 UNK         0.3000 
    145 H145        1.0100  -25.8062  -47.0167 H         1 UNK         0.0600 
    146 H146        2.4556  -24.7983  -48.7827 H         1 UNK         0.0600 
    147 H147        3.4176  -25.5142  -47.4990 H         1 UNK         0.0600 
    148 H148        3.2226  -23.7633  -47.5844 H         1 UNK         0.0600 
    149 H149        2.7733  -24.4381  -45.2232 H         1 UNK         0.3000 
    150 H150        0.6159  -24.6112  -42.3598 H         1 UNK         0.0600 
    151 H151        3.1978  -26.0940  -43.0785 H         1 UNK         0.0600 
    152 H152        1.6869  -26.8587  -42.5994 H         1 UNK         0.0600 
    153 H153        2.5505  -25.8433  -41.4568 H         1 UNK         0.0600 
    154 H154        3.2152  -23.6504  -42.4243 H         1 UNK         0.3000 
    155 H155        3.6151  -21.5535  -42.0129 H         1 UNK         0.0600 
    156 H156        4.2610  -19.7691  -43.5214 H         1 UNK         0.0600 
    157 H157        2.7358  -19.8493  -44.3895 H         1 UNK         0.0600 
    158 H158        3.8994  -21.1662  -44.5248 H         1 UNK         0.0600 
    159 H159        1.9359  -19.2266  -42.2578 H         1 UNK         0.3000 
    160 H160        0.2552  -19.6291  -39.1416 H         1 UNK         0.0600 
    161 H161        2.4986  -17.7162  -39.9594 H         1 UNK         0.0600 
    162 H162        2.4816  -18.7435  -38.5346 H         1 UNK         0.0600 
    163 H163        1.3133  -17.4401  -38.6838 H         1 UNK         0.0600 
    164 H164       -1.0540  -18.5302  -40.4639 H         1 UNK         0.3000 
    165 H165       -1.9347  -17.5742  -42.4213 H         1 UNK         0.0600 
    166 H166       -2.3371  -15.1870  -41.7032 H         1 UNK         0.0600 
    167 H167       -1.8055  -16.2068  -40.3777 H         1 UNK         0.0600 
    168 H168       -0.6717  -15.0969  -41.1310 H         1 UNK         0.0600 
    169 H169       -0.5657  -15.2880  -43.6256 H         1 UNK         0.3000 
    170 H170       -0.2303  -16.6257  -46.7962 H         1 UNK         0.0600 
    171 H171       -2.1171  -15.2550  -47.6741 H         1 UNK         0.0600 
    172 H172       -2.8629  -15.2291  -46.0783 H         1 UNK         0.0600 
    173 H173       -2.7150  -16.7403  -46.9490 H         1 UNK         0.0600 
    174 H174       -0.8072  -13.9585  -45.7452 H         1 UNK         0.3000 
    175 H175        2.4827  -13.2409  -44.7447 H         1 UNK         0.0600 
    176 H176        2.9246  -13.1177  -47.2094 H         1 UNK         0.0600 
    177 H177        1.3571  -12.3631  -47.4621 H         1 UNK         0.0600 
    178 H178        2.6060  -11.5266  -46.5393 H         1 UNK         0.0600 
    179 H179        0.3602  -11.4747  -45.3860 H         1 UNK         0.3000 
    180 H180       -1.8060  -12.0162  -42.7025 H         1 UNK         0.0600 
    181 H181        0.2357   -9.7333  -42.8747 H         1 UNK         0.0600 
    182 H182       -0.0260  -10.7627  -41.4718 H         1 UNK         0.0600 
    183 H183       -1.3033   -9.6861  -42.0130 H         1 UNK         0.0600 
    184 H184       -1.6378   -9.8466  -44.5157 H         1 UNK         0.3000 
    185 H185       -3.9739  -11.0529  -46.7241 H         1 UNK         0.0600 
    186 H186       -3.5211   -8.9264  -45.4749 H         1 UNK         0.0600 
    187 H187       -1.9386   -8.7989  -46.2475 H         1 UNK         0.0600 
    188 H188       -3.4063   -8.7035  -47.2094 H         1 UNK         0.0600 
    189 H189       -1.2621  -10.5368  -47.8283 H         1 UNK         0.3000 
    190 H190       -0.6609  -21.7805  -44.6303 H         1 UNK         0.3000 
    191 H191       -3.4329  -20.8179  -44.7718 H         1 UNK         0.0600 
    192 H192       -1.8690  -19.9317  -43.0619 H         1 UNK         0.0600 
    193 H193       -3.2206  -20.7609  -42.3062 H         1 UNK         0.0600 
    194 H194       -1.6440  -21.5387  -42.3890 H         1 UNK         0.0600 
    195 H195       -1.7515  -23.7335  -43.4056 H         1 UNK         0.3000 
    196 H196       -4.2620  -24.8908  -42.6027 H         1 UNK         0.0600 
    197 H197       -2.9000  -26.7148  -41.7100 H         1 UNK         0.0600 
    198 H198       -2.1654  -25.1769  -41.2876 H         1 UNK         0.0600 
    199 H199       -1.4798  -26.1638  -42.5768 H         1 UNK         0.0600 
    200 H200       -1.8668  -25.7601  -45.1377 H         1 UNK         0.3000 
    201 H201       -3.6560  -27.7283  -46.3754 H         1 UNK         0.0600 
    202 H202       -1.8770  -27.9740  -48.0178 H         1 UNK         0.0600 
    203 H203       -1.1364  -27.9278  -46.4233 H         1 UNK         0.0600 
    204 H204       -1.0822  -26.5112  -47.4710 H         1 UNK         0.0600 
    205 H205       -3.4709  -24.3710  -46.3516 H         1 UNK         0.3000 
    206 H206       -4.6349  -22.7353  -47.2367 H         1 UNK         0.0600 
    207 H207       -6.5245  -24.2953  -46.7372 H         1 UNK         0.0600 
    208 H208       -6.8938  -23.2128  -48.0648 H         1 UNK         0.0600 
    209 H209       -6.4742  -24.8834  -48.3995 H         1 UNK         0.0600 
    210 H210       -2.3766  -23.7504  -48.9067 H         1 UNK         0.3000 
    211 H211       -3.0574  -23.5915  -51.6614 H         1 UNK         0.0600 
    212 H212       -0.3749  -22.9607  -50.3255 H         1 UNK         0.0600 
    213 H213       -0.6273  -23.3728  -52.0129 H         1 UNK         0.0600 
    214 H214       -0.9279  -24.5761  -50.7695 H         1 UNK         0.0600 
    215 H215       -2.4530  -21.0519  -49.2767 H         1 UNK         0.3000 
    216 H216       -2.1075  -18.9115  -51.2258 H         1 UNK         0.0600 
    217 H217       -2.1741  -17.4603  -49.2311 H         1 UNK         0.0600 
    218 H218       -1.0820  -18.8033  -48.9606 H         1 UNK         0.0600 
    219 H219       -2.6816  -18.8041  -48.2176 H         1 UNK         0.0600 
    220 H220       -4.7786  -20.2446  -49.2781 H         1 UNK         0.3000 
    221 H221       -6.7292  -18.2505  -50.0143 H         1 UNK         0.0600 
    222 H222       -7.0887  -21.0721  -48.8800 H         1 UNK         0.0600 
    223 H223       -6.9153  -19.5982  -47.9279 H         1 UNK         0.0600 
    224 H224       -8.3276  -19.8273  -48.9487 H         1 UNK         0.0600 
    225 H225       -5.8455  -21.4878  -51.2493 H         1 UNK         0.3000 
    226 H226       -7.7893  -21.5877  -53.3642 H         1 UNK         0.0600 
    227 H227       -6.3770  -23.4909  -54.1420 H         1 UNK         0.0600 
    228 H228       -5.1049  -23.0326  -53.0164 H         1 UNK         0.0600 
    229 H229       -6.6597  -23.6020  -52.4110 H         1 UNK         0.0600 
    230 H230       -4.8301  -19.8624  -53.0087 H         1 UNK         0.3000 
    231 H231       -3.5032  -18.6079  -54.2387 H         1 UNK         0.0600 
    232 H232       -5.7886  -18.4324  -56.2753 H         1 UNK         0.0600 
    233 H233       -4.4157  -17.3414  -56.1505 H         1 UNK         0.0600 
    234 H234       -5.6017  -17.4026  -54.8563 H         1 UNK         0.0600 
    235 H235       -2.8993  -21.1907  -54.2994 H         1 UNK         0.3000 
    236 H236       -2.6396  -22.3319  -56.9426 H         1 UNK         0.0600 
    237 H237       -1.3490  -23.0987  -54.2707 H         1 UNK         0.0600 
    238 H238       -2.8905  -23.7041  -54.8754 H         1 UNK         0.0600 
    239 H239       -1.3977  -24.1062  -55.7122 H         1 UNK         0.0600 
    240 H240       -0.6602  -20.2076  -55.0188 H         1 UNK         0.3000 
    241 H241        1.8607  -20.7312  -56.3622 H         1 UNK         0.0600 
    242 H242        1.9473  -18.2972  -58.9413 H         1 UNK         0.3800 
    243 H243        2.7564  -19.6213  -58.1532 H         1 UNK         0.3800 
    244 H244        1.0785  -18.4474  -54.4764 H         1 UNK         0.0800 
    245 H245        2.6912  -18.7775  -55.0462 H         1 UNK         0.0800 
    246 H246       -0.2934  -19.9555  -52.9654 H         1 UNK         0.0800 
    247 H247        0.4166  -21.0227  -51.7875 H         1 UNK         0.0800 
@<TRIPOS>BOND
     1    1    2 1    
     2    1  127 1    
     3    1  128 1    
     4    1  129 1    
     5    2    3 2    
     6    2    4 am   BACKBONE|DICT|INTERRES
     7    4    5 1    
     8    4  130 1    
     9    5    6 1    
    10    5   65 1    
    11    5  131 1    
    12    6    7 1    
    13    6  132 1    
    14    6  133 1    
    15    7    8 1    
    16    8    9 1    
    17    8  134 1    
    18    8  135 1    
    19    9   10 ar   
    20    9   14 ar   
    21   10   11 ar   
    22   10  136 1    
    23   11   12 ar   
    24   11  126 1    
    25   12   13 ar   
    26   12  137 1    
    27   13   14 ar   
    28   13   15 1    
    29   14  138 1    
    30   15   16 1    
    31   15  139 1    
    32   15  140 1    
    33   16   17 1    
    34   17   18 1    
    35   17  141 1    
    36   17  142 1    
    37   18   19 1    
    38   18   67 1    
    39   18  143 1    
    40   19   20 am   BACKBONE|DICT|INTERRES
    41   19  144 1    
    42   20   21 2    
    43   20   22 1    
    44   22   23 1    
    45   22   24 1    
    46   22  145 1    
    47   23  146 1    
    48   23  147 1    
    49   23  148 1    
    50   24   25 am   BACKBONE|DICT|INTERRES
    51   24  149 1    
    52   25   26 2    
    53   25   27 1    
    54   27   28 1    
    55   27   29 1    
    56   27  150 1    
    57   28  151 1    
    58   28  152 1    
    59   28  153 1    
    60   29   30 am   BACKBONE|DICT|INTERRES
    61   29  154 1    
    62   30   31 2    
    63   30   32 1    
    64   32   33 1    
    65   32   34 1    
    66   32  155 1    
    67   33  156 1    
    68   33  157 1    
    69   33  158 1    
    70   34   35 am   BACKBONE|DICT|INTERRES
    71   34  159 1    
    72   35   36 2    
    73   35   37 1    
    74   37   38 1    
    75   37   39 1    
    76   37  160 1    
    77   38  161 1    
    78   38  162 1    
    79   38  163 1    
    80   39   40 am   BACKBONE|DICT|INTERRES
    81   39  164 1    
    82   40   41 2    
    83   40   42 1    
    84   42   43 1    
    85   42   44 1    
    86   42  165 1    
    87   43  166 1    
    88   43  167 1    
    89   43  168 1    
    90   44   45 am   BACKBONE|DICT|INTERRES
    91   44  169 1    
    92   45   46 2    
    93   45   47 1    
    94   47   48 1    
    95   47   49 1    
    96   47  170 1    
    97   48  171 1    
    98   48  172 1    
    99   48  173 1    
   100   49   50 am   BACKBONE|DICT|INTERRES
   101   49  174 1    
   102   50   51 2    
   103   50   52 1    
   104   52   53 1    
   105   52   54 1    
   106   52  175 1    
   107   53  176 1    
   108   53  177 1    
   109   53  178 1    
   110   54   55 am   BACKBONE|DICT|INTERRES
   111   54  179 1    
   112   55   56 2    
   113   55   57 1    
   114   57   58 1    
   115   57   59 1    
   116   57  180 1    
   117   58  181 1    
   118   58  182 1    
   119   58  183 1    
   120   59   60 am   BACKBONE|DICT|INTERRES
   121   59  184 1    
   122   60   61 2    
   123   60   62 1    
   124   62   63 1    
   125   62   64 1    
   126   62  185 1    
   127   63  186 1    
   128   63  187 1    
   129   63  188 1    
   130   64   65 am   BACKBONE|DICT|INTERRES
   131   64  189 1    
   132   65   66 2    
   133   67   68 2    
   134   67   69 am   BACKBONE|DICT|INTERRES
   135   69   70 1    
   136   69  190 1    
   137   70   71 1    
   138   70   72 1    
   139   70  191 1    
   140   71  192 1    
   141   71  193 1    
   142   71  194 1    
   143   72   73 2    
   144   72   74 am   BACKBONE|DICT|INTERRES
   145   74   75 1    
   146   74  195 1    
   147   75   76 1    
   148   75   77 1    
   149   75  196 1    
   150   76  197 1    
   151   76  198 1    
   152   76  199 1    
   153   77   78 2    
   154   77   79 am   BACKBONE|DICT|INTERRES
   155   79   80 1    
   156   79  200 1    
   157   80   81 1    
   158   80   82 1    
   159   80  201 1    
   160   81  202 1    
   161   81  203 1    
   162   81  204 1    
   163   82   83 2    
   164   82   84 am   BACKBONE|DICT|INTERRES
   165   84   85 1    
   166   84  205 1    
   167   85   86 1    
   168   85   87 1    
   169   85  206 1    
   170   86  207 1    
   171   86  208 1    
   172   86  209 1    
   173   87   88 2    
   174   87   89 am   BACKBONE|DICT|INTERRES
   175   89   90 1    
   176   89  210 1    
   177   90   91 1    
   178   90   92 1    
   179   90  211 1    
   180   91  212 1    
   181   91  213 1    
   182   91  214 1    
   183   92   93 2    
   184   92   94 am   BACKBONE|DICT|INTERRES
   185   94   95 1    
   186   94  215 1    
   187   95   96 1    
   188   95   97 1    
   189   95  216 1    
   190   96  217 1    
   191   96  218 1    
   192   96  219 1    
   193   97   98 2    
   194   97   99 am   BACKBONE|DICT|INTERRES
   195   99  100 1    
   196   99  220 1    
   197  100  101 1    
   198  100  102 1    
   199  100  221 1    
   200  101  222 1    
   201  101  223 1    
   202  101  224 1    
   203  102  103 2    
   204  102  104 am   BACKBONE|DICT|INTERRES
   205  104  105 1    
   206  104  225 1    
   207  105  106 1    
   208  105  107 1    
   209  105  226 1    
   210  106  227 1    
   211  106  228 1    
   212  106  229 1    
   213  107  108 2    
   214  107  109 am   BACKBONE|DICT|INTERRES
   215  109  110 1    
   216  109  230 1    
   217  110  111 1    
   218  110  112 1    
   219  110  231 1    
   220  111  232 1    
   221  111  233 1    
   222  111  234 1    
   223  112  113 2    
   224  112  114 am   BACKBONE|DICT|INTERRES
   225  114  115 1    
   226  114  235 1    
   227  115  116 1    
   228  115  117 1    
   229  115  236 1    
   230  116  237 1    
   231  116  238 1    
   232  116  239 1    
   233  117  118 2    
   234  117  119 am   BACKBONE|DICT|INTERRES
   235  119  120 1    
   236  119  240 1    
   237  120  121 1    
   238  120  124 1    
   239  120  241 1    
   240  121  122 am   BACKBONE|DICT|INTERRES
   241  121  123 2    
   242  122  242 1    
   243  122  243 1    
   244  124  125 1    
   245  124  244 1    
   246  124  245 1    
   247  125  126 1    
   248  126  246 1    
   249  126  247 1    
@<TRIPOS>SUBSTRUCTURE
     1 UNK         1 GROUP             0       ****    0 ROOT    
