@<TRIPOS>MOLECULE
3R540
247   249    1
SMALL
USER_CHARGES


@<TRIPOS>ATOM
      1 CA         -2.8005  -15.0736  -44.3037 C.3       0 UNK        -0.1800 
      2 C          -2.8104  -14.0261  -45.4101 C.2       0 UNK         0.5000 
      3 O          -3.8753  -13.5330  -45.7799 O.2       0 UNK        -0.5000 
      4 N          -1.6267  -13.6910  -45.9301 N.am      1 UNK        -0.5000 
      5 CA         -1.3790  -12.6860  -46.9631 C.3       1 UNK         0.1400 
      6 C6         -1.0300  -13.3266  -48.3317 C.3       23 UNK        -0.0398 
      7 S7         -2.4843  -14.0537  -49.1552 S.3       23 UNK        -0.2404 
      8 C8         -2.2919  -15.8213  -48.7727 C.3       23 UNK        -0.0205 
      9 C9         -1.2468  -16.5008  -49.6460 C.ar      23 UNK        -0.0193 
     10 C10        -1.5407  -16.8185  -50.9750 C.ar      23 UNK        -0.1150 
     11 C11        -0.6228  -17.5292  -51.7541 C.ar      23 UNK        -0.0193 
     12 C12         0.5967  -17.9230  -51.1966 C.ar      23 UNK        -0.1150 
     13 C13         0.8930  -17.6299  -49.8639 C.ar      23 UNK        -0.0193 
     14 C14        -0.0174  -16.8856  -49.1049 C.ar      23 UNK        -0.1150 
     15 C15         2.1331  -18.2281  -49.2081 C.3       23 UNK        -0.0205 
     16 S16         1.9002  -19.9905  -48.7450 S.3       23 UNK        -0.2404 
     17 C17         0.1291  -20.0301  -48.3164 C.3       23 UNK        -0.0398 
     18 CA         -0.3901  -21.2987  -47.6095 C.3       11 UNK         0.1400 
     19 N           0.1299  -21.4700  -46.2462 N.am      11 UNK        -0.5000 
     20 C          -0.1781  -22.5032  -45.4449 C.2       10 UNK         0.5000 
     21 O          -0.8518  -23.4680  -45.8062 O.2       10 UNK        -0.5000 
     22 CA          0.2740  -22.4224  -43.9750 C.3       10 UNK         0.1400 
     23 CB          1.7350  -22.8668  -43.8137 C.3       10 UNK        -0.1800 
     24 N           0.0799  -21.0904  -43.3991 N.am      10 UNK        -0.5000 
     25 C          -1.1171  -20.5104  -43.2205 C.2       9 UNK         0.5000 
     26 O          -2.1854  -21.0679  -43.4670 O.2       9 UNK        -0.5000 
     27 CA         -1.1262  -19.0452  -42.7440 C.3       9 UNK         0.1400 
     28 CB         -0.9737  -18.9556  -41.2192 C.3       9 UNK        -0.1800 
     29 N          -0.0840  -18.2519  -43.3928 N.am      9 UNK        -0.5000 
     30 C          -0.0400  -17.9926  -44.7058 C.2       8 UNK         0.5000 
     31 O          -0.9378  -18.2948  -45.4910 O.2       8 UNK        -0.5000 
     32 CA          1.2439  -17.3368  -45.2401 C.3       8 UNK         0.1400 
     33 CB          1.1558  -15.8063  -45.1900 C.3       8 UNK        -0.1800 
     34 N           2.4346  -17.7881  -44.5222 N.am      8 UNK        -0.5000 
     35 C           2.9768  -19.0045  -44.6674 C.2       7 UNK         0.5000 
     36 O           2.5305  -19.8582  -45.4317 O.2       7 UNK        -0.5000 
     37 CA          4.1921  -19.3346  -43.7811 C.3       7 UNK         0.1400 
     38 CB          5.4802  -18.7683  -44.3967 C.3       7 UNK        -0.1800 
     39 N           4.0434  -18.8305  -42.4149 N.am      7 UNK        -0.5000 
     40 C           3.1391  -19.2880  -41.5376 C.2       6 UNK         0.5000 
     41 O           2.3749  -20.2227  -41.7740 O.2       6 UNK        -0.5000 
     42 CA          3.0325  -18.5439  -40.1909 C.3       6 UNK         0.1400 
     43 CB          4.0015  -19.1498  -39.1651 C.3       6 UNK        -0.1800 
     44 N           3.2638  -17.0969  -40.2808 N.am      6 UNK        -0.5000 
     45 C           2.5802  -16.2544  -41.0673 C.2       5 UNK         0.5000 
     46 O           1.7010  -16.6214  -41.8499 O.2       5 UNK        -0.5000 
     47 CA          2.9914  -14.7702  -41.0046 C.3       5 UNK         0.1400 
     48 CB          4.3851  -14.5701  -41.6235 C.3       5 UNK        -0.1800 
     49 N           2.0515  -13.9038  -41.7151 N.am      5 UNK        -0.5000 
     50 C           0.7937  -13.6363  -41.3383 C.2       4 UNK         0.5000 
     51 O           0.2923  -14.0306  -40.2836 O.2       4 UNK        -0.5000 
     52 CA         -0.0185  -12.7677  -42.3222 C.3       4 UNK         0.1400 
     53 CB         -1.3568  -12.2630  -41.7455 C.3       4 UNK        -0.1800 
     54 N           0.7723  -11.6627  -42.8770 N.am      4 UNK        -0.5000 
     55 C           1.3392  -10.6495  -42.2004 C.2       3 UNK         0.5000 
     56 O           1.2246  -10.4863  -40.9851 O.2       3 UNK        -0.5000 
     57 CA          2.2041   -9.6551  -43.0037 C.3       3 UNK         0.1400 
     58 CB          3.6950   -9.8947  -42.7153 C.3       3 UNK        -0.1800 
     59 N           1.9936   -9.7254  -44.4506 N.am      3 UNK        -0.5000 
     60 C           0.9097   -9.2746  -45.0946 C.2       2 UNK         0.5000 
     61 O          -0.0256   -8.6969  -44.5386 O.2       2 UNK        -0.5000 
     62 CA          0.8348   -9.5376  -46.6132 C.3       2 UNK         0.1400 
     63 CB          2.1926   -9.8934  -47.2615 C.3       2 UNK        -0.1800 
     64 N          -0.1685  -10.5592  -46.9313 N.am      2 UNK        -0.5000 
     65 C          -0.2091  -11.8182  -46.4718 C.2       1 UNK         0.5000 
     66 O           0.6322  -12.3058  -45.7087 O.2       1 UNK        -0.5000 
     67 C          -1.9319  -21.2436  -47.6292 C.2       11 UNK         0.5000 
     68 O          -2.5483  -21.9270  -48.4437 O.2       11 UNK        -0.5000 
     69 N          -2.5237  -20.4326  -46.7403 N.am      12 UNK        -0.5000 
     70 CA         -3.9716  -20.2568  -46.6195 C.3       12 UNK         0.1400 
     71 CB         -4.2672  -19.0876  -45.6682 C.3       12 UNK        -0.1800 
     72 C          -4.7000  -21.5380  -46.1707 C.2       12 UNK         0.5000 
     73 O          -5.7960  -21.8113  -46.6600 O.2       12 UNK        -0.5000 
     74 N          -4.0705  -22.3099  -45.2739 N.am      13 UNK        -0.5000 
     75 CA         -4.5424  -23.6194  -44.8249 C.3       13 UNK         0.1400 
     76 CB         -3.7382  -24.0599  -43.5922 C.3       13 UNK        -0.1800 
     77 C          -4.4710  -24.6851  -45.9347 C.2       13 UNK         0.5000 
     78 O          -5.4007  -25.4821  -46.0676 O.2       13 UNK        -0.5000 
     79 N          -3.3804  -24.6745  -46.7146 N.am      14 UNK        -0.5000 
     80 CA         -3.1795  -25.5404  -47.8775 C.3       14 UNK         0.1400 
     81 CB         -1.7135  -25.4480  -48.3301 C.3       14 UNK        -0.1800 
     82 C          -4.1315  -25.2005  -49.0390 C.2       14 UNK         0.5000 
     83 O          -4.6567  -26.1116  -49.6813 O.2       14 UNK        -0.5000 
     84 N          -4.3337  -23.8971  -49.2798 N.am      15 UNK        -0.5000 
     85 CA         -5.1593  -23.2993  -50.3288 C.3       15 UNK         0.1400 
     86 CB         -6.6575  -23.4910  -50.0067 C.3       15 UNK        -0.1800 
     87 C          -4.7319  -23.8135  -51.7165 C.2       15 UNK         0.5000 
     88 O          -3.5830  -23.5980  -52.1038 O.2       15 UNK        -0.5000 
     89 N          -5.6198  -24.5464  -52.4020 N.am      16 UNK        -0.5000 
     90 CA         -5.3888  -25.1693  -53.7068 C.3       16 UNK         0.1400 
     91 CB         -6.6701  -25.8908  -54.1497 C.3       16 UNK        -0.1800 
     92 C          -4.1808  -26.1281  -53.7632 C.2       16 UNK         0.5000 
     93 O          -3.6208  -26.3166  -54.8436 O.2       16 UNK        -0.5000 
     94 N          -3.7838  -26.6969  -52.6138 N.am      17 UNK        -0.5000 
     95 CA         -2.5908  -27.5350  -52.4852 C.3       17 UNK         0.1400 
     96 CB         -2.6823  -28.3739  -51.2016 C.3       17 UNK        -0.1800 
     97 C          -1.2726  -26.7342  -52.5340 C.2       17 UNK         0.5000 
     98 O          -0.2396  -27.3216  -52.8580 O.2       17 UNK        -0.5000 
     99 N          -1.3158  -25.4241  -52.2404 N.am      18 UNK        -0.5000 
    100 CA        -0.2028  -24.5040  -52.4823 C.3       18 UNK         0.1400 
    101 CB        -0.2825  -23.2939  -51.5337 C.3       18 UNK        -0.1800 
    102 C         -0.2080  -24.0808  -53.9609 C.2       18 UNK         0.5000 
    103 O          0.7682  -24.3298  -54.6692 O.2       18 UNK        -0.5000 
    104 N         -1.3371  -23.5176  -54.4050 N.am      19 UNK        -0.5000 
    105 CA        -1.6783  -23.2023  -55.7899 C.3       19 UNK         0.1400 
    106 CB        -0.7655  -22.1058  -56.3740 C.3       19 UNK        -0.1800 
    107 C         -3.1421  -22.7479  -55.8144 C.2       19 UNK         0.5000 
    108 O         -3.6403  -22.2515  -54.8039 O.2       19 UNK        -0.5000 
    109 N         -3.8073  -22.8908  -56.9675 N.am      20 UNK        -0.5000 
    110 CA        -5.2336  -22.5908  -57.1597 C.3       20 UNK         0.1400 
    111 CB        -5.6330  -22.9783  -58.5917 C.3       20 UNK        -0.1800 
    112 C         -5.6441  -21.1319  -56.8619 C.2       20 UNK         0.5000 
    113 O         -6.8098  -20.8830  -56.5526 O.2       20 UNK        -0.5000 
    114 N         -4.6858  -20.2014  -56.9547 N.am      21 UNK        -0.5000 
    115 CA        -4.8596  -18.7880  -56.6229 C.3       21 UNK         0.1400 
    116 CB        -3.7811  -17.9797  -57.3623 C.3       21 UNK        -0.1800 
    117 C         -4.7964  -18.4964  -55.1088 C.2       21 UNK         0.5000 
    118 O         -5.2396  -17.4247  -54.6927 O.2       21 UNK        -0.5000 
    119 N         -4.2233  -19.4122  -54.3181 N.am      22 UNK        -0.5000 
    120 CA        -4.0070  -19.2474  -52.8741 C.3       22 UNK         0.1400 
    121 C         -5.2502  -19.6576  -52.0391 C.2       22 UNK         0.5000 
    122 N         -5.4299  -19.0742  -50.8612 N.am      22 UNK        -0.7600 
    123 O         -6.0351  -20.5219  -52.4222 O.2       22 UNK        -0.5000 
    124 C124       -2.7452  -20.0054  -52.3840 C.3       23 UNK        -0.0398 
    125 S125       -1.2355  -19.7017  -53.3704 S.3       23 UNK        -0.2404 
    126 C126       -0.9585  -17.9096  -53.1866 C.3       23 UNK        -0.0205 
    127 H127       -3.3520  -15.9588  -44.6208 H         1 UNK         0.0600 
    128 H128       -3.2750  -14.6772  -43.4061 H         1 UNK         0.0600 
    129 H129       -1.7884  -15.3832  -44.0427 H         1 UNK         0.0600 
    130 H130       -0.7772  -14.0612  -45.5283 H         1 UNK         0.3000 
    131 H131       -2.2500  -12.0364  -47.0742 H         1 UNK         0.0600 
    132 H132       -0.2441  -14.0759  -48.2245 H         1 UNK         0.0800 
    133 H133       -0.6332  -12.5757  -49.0176 H         1 UNK         0.0800 
    134 H134       -2.0561  -15.9479  -47.7150 H         1 UNK         0.0800 
    135 H135       -3.2531  -16.3143  -48.9235 H         1 UNK         0.0800 
    136 H136       -2.4936  -16.5272  -51.3936 H         1 UNK         0.1150 
    137 H137        1.2885  -18.5113  -51.7834 H         1 UNK         0.1150 
    138 H138        0.1964  -16.6708  -48.0688 H         1 UNK         0.1150 
    139 H139        2.9822  -18.1507  -49.8887 H         1 UNK         0.0800 
    140 H140        2.4076  -17.6560  -48.3219 H         1 UNK         0.0800 
    141 H141       -0.0904  -19.1596  -47.7026 H         1 UNK         0.0800 
    142 H142       -0.4114  -19.8912  -49.2558 H         1 UNK         0.0800 
    143 H143       -0.0824  -22.1690  -48.1927 H         1 UNK         0.0600 
    144 H144        0.7549  -20.7493  -45.9001 H         1 UNK         0.3000 
    145 H145       -0.3461  -23.1169  -43.4044 H         1 UNK         0.0600 
    146 H146        2.0318  -22.8703  -42.7648 H         1 UNK         0.0600 
    147 H147        1.8768  -23.8787  -44.1950 H         1 UNK         0.0600 
    148 H148        2.4220  -22.2164  -44.3529 H         1 UNK         0.0600 
    149 H149        0.9151  -20.5933  -43.1082 H         1 UNK         0.3000 
    150 H150       -2.0909  -18.6105  -43.0135 H         1 UNK         0.0600 
    151 H151       -1.7943  -19.4690  -40.7169 H         1 UNK         0.0600 
    152 H152       -0.9804  -17.9189  -40.8815 H         1 UNK         0.0600 
    153 H153       -0.0456  -19.4131  -40.8786 H         1 UNK         0.0600 
    154 H154        0.6634  -17.8946  -42.8037 H         1 UNK         0.3000 
    155 H155        1.3508  -17.6342  -46.2828 H         1 UNK         0.0600 
    156 H156        2.0803  -15.3427  -45.5349 H         1 UNK         0.0600 
    157 H157        0.9516  -15.4419  -44.1831 H         1 UNK         0.0600 
    158 H158        0.3599  -15.4563  -45.8438 H         1 UNK         0.0600 
    159 H159        2.7955  -17.1716  -43.8085 H         1 UNK         0.3000 
    160 H160        4.2852  -20.4218  -43.7352 H         1 UNK         0.0600 
    161 H161        5.4607  -17.6788  -44.4450 H         1 UNK         0.0600 
    162 H162        5.6222  -19.1396  -45.4126 H         1 UNK         0.0600 
    163 H163        6.3560  -19.0634  -43.8187 H         1 UNK         0.0600 
    164 H164        4.6349  -18.0602  -42.1410 H         1 UNK         0.3000 
    165 H165        2.0157  -18.6863  -39.8206 H         1 UNK         0.0600 
    166 H166        5.0419  -19.0027  -39.4577 H         1 UNK         0.0600 
    167 H167        3.8628  -18.7047  -38.1796 H         1 UNK         0.0600 
    168 H168        3.8384  -20.2234  -39.0603 H         1 UNK         0.0600 
    169 H169        3.9813  -16.7233  -39.6763 H         1 UNK         0.3000 
    170 H170        3.0178  -14.4654  -39.9565 H         1 UNK         0.0600 
    171 H171        5.1439  -15.1452  -41.0917 H         1 UNK         0.0600 
    172 H172        4.4100  -14.8809  -42.6689 H         1 UNK         0.0600 
    173 H173        4.6886  -13.5238  -41.5789 H         1 UNK         0.0600 
    174 H174        2.3658  -13.5378  -42.6008 H         1 UNK         0.3000 
    175 H175       -0.2574  -13.4180  -43.1640 H         1 UNK         0.0600 
    176 H176       -1.9064  -11.6788  -42.4836 H         1 UNK         0.0600 
    177 H177       -1.9945  -13.0981  -41.4535 H         1 UNK         0.0600 
    178 H178       -1.2110  -11.6394  -40.8633 H         1 UNK         0.0600 
    179 H179        0.9229  -11.7083  -43.8811 H         1 UNK         0.3000 
    180 H180        1.9465   -8.6493  -42.6654 H         1 UNK         0.0600 
    181 H181        4.3189   -9.1598  -43.2243 H         1 UNK         0.0600 
    182 H182        3.9058   -9.8132  -41.6481 H         1 UNK         0.0600 
    183 H183        4.0129  -10.8873  -43.0369 H         1 UNK         0.0600 
    184 H184        2.6987  -10.2104  -44.9864 H         1 UNK         0.3000 
    185 H185        0.4897   -8.6071  -47.0666 H         1 UNK         0.0600 
    186 H186        2.0957   -9.9649  -48.3449 H         1 UNK         0.0600 
    187 H187        2.9386   -9.1239  -47.0585 H         1 UNK         0.0600 
    188 H188        2.5896  -10.8451  -46.9069 H         1 UNK         0.0600 
    189 H189       -0.9208  -10.2433  -47.5277 H         1 UNK         0.3000 
    190 H190       -1.9453  -19.8597  -46.1326 H         1 UNK         0.3000 
    191 H191       -4.3544  -19.9918  -47.6074 H         1 UNK         0.0600 
    192 H192       -5.3401  -18.9079  -45.5921 H         1 UNK         0.0600 
    193 H193       -3.8063  -18.1654  -46.0229 H         1 UNK         0.0600 
    194 H194       -3.8945  -19.2821  -44.6625 H         1 UNK         0.0600 
    195 H195       -3.2091  -21.9676  -44.8579 H         1 UNK         0.3000 
    196 H196       -5.5881  -23.5171  -44.5274 H         1 UNK         0.0600 
    197 H197       -4.0870  -25.0248  -43.2224 H         1 UNK         0.0600 
    198 H198       -3.8410  -23.3423  -42.7781 H         1 UNK         0.0600 
    199 H199       -2.6761  -24.1585  -43.8179 H         1 UNK         0.0600 
    200 H200       -2.6309  -24.0242  -46.4991 H         1 UNK         0.3000 
    201 H201       -3.3784  -26.5707  -47.5755 H         1 UNK         0.0600 
    202 H202       -1.0390  -25.7979  -47.5485 H         1 UNK         0.0600 
    203 H203       -1.4342  -24.4233  -48.5736 H         1 UNK         0.0600 
    204 H204       -1.5280  -26.0550  -49.2157 H         1 UNK         0.0600 
    205 H205       -3.7645  -23.2299  -48.7623 H         1 UNK         0.3000 
    206 H206       -4.9470  -22.2296  -50.3164 H         1 UNK         0.0600 
    207 H207       -6.9021  -23.0488  -49.0408 H         1 UNK         0.0600 
    208 H208       -7.2849  -22.9986  -50.7510 H         1 UNK         0.0600 
    209 H209       -6.9424  -24.5428  -49.9655 H         1 UNK         0.0600 
    210 H210       -6.5241  -24.7061  -51.9835 H         1 UNK         0.3000 
    211 H211       -5.1953  -24.3650  -54.4154 H         1 UNK         0.0600 
    212 H212       -6.9417  -26.6879  -53.4565 H         1 UNK         0.0600 
    213 H213       -6.5448  -26.3408  -55.1355 H         1 UNK         0.0600 
    214 H214       -7.5105  -25.1994  -54.2152 H         1 UNK         0.0600 
    215 H215       -4.2824  -26.4801  -51.7573 H         1 UNK         0.3000 
    216 H216       -2.5749  -28.2290  -53.3283 H         1 UNK         0.0600 
    217 H217       -1.8375  -29.0594  -51.1239 H         1 UNK         0.0600 
    218 H218       -3.5910  -28.9759  -51.1877 H         1 UNK         0.0600 
    219 H219       -2.6795  -27.7529  -50.3079 H         1 UNK         0.0600 
    220 H220       -2.2129  -24.9913  -52.0426 H         1 UNK         0.3000 
    221 H221        0.7407  -25.0152  -52.2789 H         1 UNK         0.0600 
    222 H222       -1.1997  -22.7214  -51.6637 H         1 UNK         0.0600 
    223 H223       -0.2318  -23.6078  -50.4918 H         1 UNK         0.0600 
    224 H224        0.5500  -22.6108  -51.7065 H         1 UNK         0.0600 
    225 H225       -2.0963  -23.3426  -53.7515 H         1 UNK         0.3000 
    226 H226       -1.5852  -24.1148  -56.3819 H         1 UNK         0.0600 
    227 H227        0.2775  -22.4185  -56.4056 H         1 UNK         0.0600 
    228 H228       -1.0533  -21.8627  -57.3973 H         1 UNK         0.0600 
    229 H229       -0.8198  -21.1853  -55.7951 H         1 UNK         0.0600 
    230 H230       -3.3260  -23.2870  -57.7621 H         1 UNK         0.3000 
    231 H231       -5.7958  -23.2238  -56.4707 H         1 UNK         0.0600 
    232 H232       -6.6948  -22.7975  -58.7652 H         1 UNK         0.0600 
    233 H233       -5.4514  -24.0366  -58.7802 H         1 UNK         0.0600 
    234 H234       -5.0768  -22.4032  -59.3330 H         1 UNK         0.0600 
    235 H235       -3.7569  -20.4966  -57.2154 H         1 UNK         0.3000 
    236 H236       -5.8370  -18.4581  -56.9814 H         1 UNK         0.0600 
    237 H237       -2.7771  -18.2650  -57.0448 H         1 UNK         0.0600 
    238 H238       -3.8477  -18.1255  -58.4406 H         1 UNK         0.0600 
    239 H239       -3.8937  -16.9114  -57.1728 H         1 UNK         0.0600 
    240 H240       -3.9592  -20.3162  -54.6963 H         1 UNK         0.3000 
    241 H241       -3.8401  -18.1867  -52.6819 H         1 UNK         0.0600 
    242 H242       -6.2335  -19.3335  -50.3113 H         1 UNK         0.3800 
    243 H243       -4.8106  -18.3562  -50.5222 H         1 UNK         0.3800 
    244 H244       -2.9272  -21.0800  -52.4066 H         1 UNK         0.0800 
    245 H245       -2.5302  -19.7613  -51.3423 H         1 UNK         0.0800 
    246 H246       -0.1287  -17.6191  -53.8322 H         1 UNK         0.0800 
    247 H247       -1.8273  -17.3597  -53.5502 H         1 UNK         0.0800 
@<TRIPOS>BOND
     1    1    2 1    
     2    1  127 1    
     3    1  128 1    
     4    1  129 1    
     5    2    3 2    
     6    2    4 am   BACKBONE|DICT|INTERRES
     7    4    5 1    
     8    4  130 1    
     9    5    6 1    
    10    5   65 1    
    11    5  131 1    
    12    6    7 1    
    13    6  132 1    
    14    6  133 1    
    15    7    8 1    
    16    8    9 1    
    17    8  134 1    
    18    8  135 1    
    19    9   10 ar   
    20    9   14 ar   
    21   10   11 ar   
    22   10  136 1    
    23   11   12 ar   
    24   11  126 1    
    25   12   13 ar   
    26   12  137 1    
    27   13   14 ar   
    28   13   15 1    
    29   14  138 1    
    30   15   16 1    
    31   15  139 1    
    32   15  140 1    
    33   16   17 1    
    34   17   18 1    
    35   17  141 1    
    36   17  142 1    
    37   18   19 1    
    38   18   67 1    
    39   18  143 1    
    40   19   20 am   BACKBONE|DICT|INTERRES
    41   19  144 1    
    42   20   21 2    
    43   20   22 1    
    44   22   23 1    
    45   22   24 1    
    46   22  145 1    
    47   23  146 1    
    48   23  147 1    
    49   23  148 1    
    50   24   25 am   BACKBONE|DICT|INTERRES
    51   24  149 1    
    52   25   26 2    
    53   25   27 1    
    54   27   28 1    
    55   27   29 1    
    56   27  150 1    
    57   28  151 1    
    58   28  152 1    
    59   28  153 1    
    60   29   30 am   BACKBONE|DICT|INTERRES
    61   29  154 1    
    62   30   31 2    
    63   30   32 1    
    64   32   33 1    
    65   32   34 1    
    66   32  155 1    
    67   33  156 1    
    68   33  157 1    
    69   33  158 1    
    70   34   35 am   BACKBONE|DICT|INTERRES
    71   34  159 1    
    72   35   36 2    
    73   35   37 1    
    74   37   38 1    
    75   37   39 1    
    76   37  160 1    
    77   38  161 1    
    78   38  162 1    
    79   38  163 1    
    80   39   40 am   BACKBONE|DICT|INTERRES
    81   39  164 1    
    82   40   41 2    
    83   40   42 1    
    84   42   43 1    
    85   42   44 1    
    86   42  165 1    
    87   43  166 1    
    88   43  167 1    
    89   43  168 1    
    90   44   45 am   BACKBONE|DICT|INTERRES
    91   44  169 1    
    92   45   46 2    
    93   45   47 1    
    94   47   48 1    
    95   47   49 1    
    96   47  170 1    
    97   48  171 1    
    98   48  172 1    
    99   48  173 1    
   100   49   50 am   BACKBONE|DICT|INTERRES
   101   49  174 1    
   102   50   51 2    
   103   50   52 1    
   104   52   53 1    
   105   52   54 1    
   106   52  175 1    
   107   53  176 1    
   108   53  177 1    
   109   53  178 1    
   110   54   55 am   BACKBONE|DICT|INTERRES
   111   54  179 1    
   112   55   56 2    
   113   55   57 1    
   114   57   58 1    
   115   57   59 1    
   116   57  180 1    
   117   58  181 1    
   118   58  182 1    
   119   58  183 1    
   120   59   60 am   BACKBONE|DICT|INTERRES
   121   59  184 1    
   122   60   61 2    
   123   60   62 1    
   124   62   63 1    
   125   62   64 1    
   126   62  185 1    
   127   63  186 1    
   128   63  187 1    
   129   63  188 1    
   130   64   65 am   BACKBONE|DICT|INTERRES
   131   64  189 1    
   132   65   66 2    
   133   67   68 2    
   134   67   69 am   BACKBONE|DICT|INTERRES
   135   69   70 1    
   136   69  190 1    
   137   70   71 1    
   138   70   72 1    
   139   70  191 1    
   140   71  192 1    
   141   71  193 1    
   142   71  194 1    
   143   72   73 2    
   144   72   74 am   BACKBONE|DICT|INTERRES
   145   74   75 1    
   146   74  195 1    
   147   75   76 1    
   148   75   77 1    
   149   75  196 1    
   150   76  197 1    
   151   76  198 1    
   152   76  199 1    
   153   77   78 2    
   154   77   79 am   BACKBONE|DICT|INTERRES
   155   79   80 1    
   156   79  200 1    
   157   80   81 1    
   158   80   82 1    
   159   80  201 1    
   160   81  202 1    
   161   81  203 1    
   162   81  204 1    
   163   82   83 2    
   164   82   84 am   BACKBONE|DICT|INTERRES
   165   84   85 1    
   166   84  205 1    
   167   85   86 1    
   168   85   87 1    
   169   85  206 1    
   170   86  207 1    
   171   86  208 1    
   172   86  209 1    
   173   87   88 2    
   174   87   89 am   BACKBONE|DICT|INTERRES
   175   89   90 1    
   176   89  210 1    
   177   90   91 1    
   178   90   92 1    
   179   90  211 1    
   180   91  212 1    
   181   91  213 1    
   182   91  214 1    
   183   92   93 2    
   184   92   94 am   BACKBONE|DICT|INTERRES
   185   94   95 1    
   186   94  215 1    
   187   95   96 1    
   188   95   97 1    
   189   95  216 1    
   190   96  217 1    
   191   96  218 1    
   192   96  219 1    
   193   97   98 2    
   194   97   99 am   BACKBONE|DICT|INTERRES
   195   99  100 1    
   196   99  220 1    
   197  100  101 1    
   198  100  102 1    
   199  100  221 1    
   200  101  222 1    
   201  101  223 1    
   202  101  224 1    
   203  102  103 2    
   204  102  104 am   BACKBONE|DICT|INTERRES
   205  104  105 1    
   206  104  225 1    
   207  105  106 1    
   208  105  107 1    
   209  105  226 1    
   210  106  227 1    
   211  106  228 1    
   212  106  229 1    
   213  107  108 2    
   214  107  109 am   BACKBONE|DICT|INTERRES
   215  109  110 1    
   216  109  230 1    
   217  110  111 1    
   218  110  112 1    
   219  110  231 1    
   220  111  232 1    
   221  111  233 1    
   222  111  234 1    
   223  112  113 2    
   224  112  114 am   BACKBONE|DICT|INTERRES
   225  114  115 1    
   226  114  235 1    
   227  115  116 1    
   228  115  117 1    
   229  115  236 1    
   230  116  237 1    
   231  116  238 1    
   232  116  239 1    
   233  117  118 2    
   234  117  119 am   BACKBONE|DICT|INTERRES
   235  119  120 1    
   236  119  240 1    
   237  120  121 1    
   238  120  124 1    
   239  120  241 1    
   240  121  122 am   BACKBONE|DICT|INTERRES
   241  121  123 2    
   242  122  242 1    
   243  122  243 1    
   244  124  125 1    
   245  124  244 1    
   246  124  245 1    
   247  125  126 1    
   248  126  246 1    
   249  126  247 1    
@<TRIPOS>SUBSTRUCTURE
     1 UNK         1 GROUP             0       ****    0 ROOT    
