@<TRIPOS>MOLECULE
3R540
247   249    1
SMALL
USER_CHARGES


@<TRIPOS>ATOM
      1 CA          2.4244  -11.7962  -46.4908 C.3       0 UNK        -0.1800 
      2 C           1.0179  -12.2880  -46.7977 C.2       0 UNK         0.5000 
      3 O           0.3606  -11.7411  -47.6792 O.2       0 UNK        -0.5000 
      4 N           0.5599  -13.2877  -46.0345 N.am      1 UNK        -0.5000 
      5 CA         -0.7409  -13.9745  -46.0592 C.3       1 UNK         0.1400 
      6 C6         -1.0362  -14.8459  -47.3082 C.3       23 UNK        -0.0398 
      7 S7         -1.5880  -13.9717  -48.8139 S.3       23 UNK        -0.2404 
      8 C8         -0.2486  -14.3880  -49.9748 C.3       23 UNK        -0.0205 
      9 C9         -0.5449  -15.6629  -50.7544 C.ar      23 UNK        -0.0193 
     10 C10        -0.8371  -15.5877  -52.1196 C.ar      23 UNK        -0.1150 
     11 C11        -1.0977  -16.7444  -52.8588 C.ar      23 UNK        -0.0193 
     12 C12        -1.0670  -17.9872  -52.2196 C.ar      23 UNK        -0.1150 
     13 C13        -0.8093  -18.0761  -50.8488 C.ar      23 UNK        -0.0193 
     14 C14        -0.5314  -16.9137  -50.1257 C.ar      23 UNK        -0.1150 
     15 C15        -0.8506  -19.4257  -50.1493 C.3       23 UNK        -0.0205 
     16 S16        -2.5566  -19.8649  -49.6786 S.3       23 UNK        -0.2404 
     17 C17        -2.4455  -19.9758  -47.8602 C.3       23 UNK        -0.0398 
     18 CA         -1.9545  -21.3770  -47.4015 C.3       11 UNK         0.1400 
     19 N          -0.5768  -21.3637  -46.9026 N.am      11 UNK        -0.5000 
     20 C           0.1665  -22.4718  -46.7636 C.2       10 UNK         0.5000 
     21 O          -0.2321  -23.6022  -47.0459 O.2       10 UNK        -0.5000 
     22 CA          1.5749  -22.2949  -46.1727 C.3       10 UNK         0.1400 
     23 CB          2.5234  -21.6674  -47.2055 C.3       10 UNK        -0.1800 
     24 N           1.5771  -21.4922  -44.9507 N.am      10 UNK        -0.5000 
     25 C           0.9312  -21.8119  -43.8207 C.2       9 UNK         0.5000 
     26 O           0.2717  -22.8396  -43.6731 O.2       9 UNK        -0.5000 
     27 CA          0.9903  -20.7866  -42.6759 C.3       9 UNK         0.1400 
     28 CB          2.3060  -20.9086  -41.8925 C.3       9 UNK        -0.1800 
     29 N           0.8208  -19.4110  -43.1421 N.am      9 UNK        -0.5000 
     30 C          -0.2806  -18.9364  -43.7412 C.2       8 UNK         0.5000 
     31 O          -1.2825  -19.6077  -43.9833 O.2       8 UNK        -0.5000 
     32 CA         -0.2270  -17.4666  -44.1817 C.3       8 UNK         0.1400 
     33 CB         -0.3587  -16.5455  -42.9554 C.3       8 UNK        -0.1800 
     34 N           1.0050  -17.1768  -44.9209 N.am      8 UNK        -0.5000 
     35 C           1.2977  -17.7132  -46.1190 C.2       7 UNK         0.5000 
     36 O           0.5238  -18.4320  -46.7515 O.2       7 UNK        -0.5000 
     37 CA          2.7002  -17.4433  -46.6971 C.3       7 UNK         0.1400 
     38 CB          2.7086  -16.1556  -47.5328 C.3       7 UNK        -0.1800 
     39 N           3.7380  -17.3566  -45.6720 N.am      7 UNK        -0.5000 
     40 C           4.0885  -18.3505  -44.8430 C.2       6 UNK         0.5000 
     41 O           3.6057  -19.4805  -44.8927 O.2       6 UNK        -0.5000 
     42 CA          5.1184  -18.0149  -43.7469 C.3       6 UNK         0.1400 
     43 CB          6.5195  -18.4841  -44.1653 C.3       6 UNK        -0.1800 
     44 N           5.1676  -16.5878  -43.4112 N.am      6 UNK        -0.5000 
     45 C           4.1535  -15.8930  -42.8775 C.2       5 UNK         0.5000 
     46 O           3.0726  -16.4041  -42.5755 O.2       5 UNK        -0.5000 
     47 CA          4.4068  -14.3840  -42.6866 C.3       5 UNK         0.1400 
     48 CB          4.6783  -13.6860  -44.0371 C.3       5 UNK        -0.1800 
     49 N           3.3428  -13.6966  -41.9454 N.am      5 UNK        -0.5000 
     50 C           2.0835  -13.4539  -42.3336 C.2       4 UNK         0.5000 
     51 O           1.6154  -13.7500  -43.4379 O.2       4 UNK        -0.5000 
     52 CA          1.2163  -12.7059  -41.3119 C.3       4 UNK         0.1400 
     53 CB          1.5308  -11.1988  -41.3323 C.3       4 UNK        -0.1800 
     54 N          -0.1957  -12.9096  -41.6141 N.am      4 UNK        -0.5000 
     55 C          -1.1977  -12.8258  -40.7296 C.2       3 UNK         0.5000 
     56 O          -1.0243  -12.6122  -39.5280 O.2       3 UNK        -0.5000 
     57 CA         -2.6295  -13.0031  -41.2864 C.3       3 UNK         0.1400 
     58 CB         -3.7176  -12.4466  -40.3444 C.3       3 UNK        -0.1800 
     59 N          -2.7900  -12.4617  -42.6416 N.am      3 UNK        -0.5000 
     60 C          -2.6003  -11.1974  -43.0505 C.2       2 UNK         0.5000 
     61 O          -2.3297  -10.2628  -42.2946 O.2       2 UNK        -0.5000 
     62 CA         -2.6693  -10.9691  -44.5766 C.3       2 UNK         0.1400 
     63 CB         -2.3619   -9.5155  -44.9788 C.3       2 UNK        -0.1800 
     64 N          -1.7302  -11.8537  -45.2688 N.am      2 UNK        -0.5000 
     65 C          -1.9402  -13.1432  -45.5602 C.2       1 UNK         0.5000 
     66 O          -3.0114  -13.7096  -45.3383 O.2       1 UNK        -0.5000 
     67 C          -2.9230  -22.0553  -46.4103 C.2       11 UNK         0.5000 
     68 O          -3.8080  -22.7866  -46.8541 O.2       11 UNK        -0.5000 
     69 N          -2.7229  -21.8548  -45.0990 N.am      12 UNK        -0.5000 
     70 CA         -3.4887  -22.5181  -44.0409 C.3       12 UNK         0.1400 
     71 CB         -3.1407  -21.9094  -42.6745 C.3       12 UNK        -0.1800 
     72 C          -3.2858  -24.0440  -44.0292 C.2       12 UNK         0.5000 
     73 O          -4.2694  -24.7819  -43.9681 O.2       12 UNK        -0.5000 
     74 N          -2.0267  -24.4923  -44.1414 N.am      13 UNK        -0.5000 
     75 CA         -1.6473  -25.9060  -44.2304 C.3       13 UNK         0.1400 
     76 CB         -0.1178  -26.0319  -44.1664 C.3       13 UNK        -0.1800 
     77 C          -2.1938  -26.5994  -45.4925 C.2       13 UNK         0.5000 
     78 O          -2.5634  -27.7724  -45.4324 O.2       13 UNK        -0.5000 
     79 N          -2.2718  -25.8494  -46.5989 N.am      14 UNK        -0.5000 
     80 CA         -2.8696  -26.2763  -47.8636 C.3       14 UNK         0.1400 
     81 CB         -2.2888  -25.4126  -48.9933 C.3       14 UNK        -0.1800 
     82 C          -4.4110  -26.2055  -47.8768 C.2       14 UNK         0.5000 
     83 O          -5.0080  -26.5609  -48.8924 O.2       14 UNK        -0.5000 
     84 N          -5.0338  -25.7143  -46.7934 N.am      15 UNK        -0.5000 
     85 CA         -6.4751  -25.4812  -46.6344 C.3       15 UNK         0.1400 
     86 CB         -7.2377  -26.8203  -46.5621 C.3       15 UNK        -0.1800 
     87 C          -7.0411  -24.5170  -47.7007 C.2       15 UNK         0.5000 
     88 O          -8.1353  -24.7348  -48.2229 O.2       15 UNK        -0.5000 
     89 N          -6.2490  -23.4838  -48.0204 N.am      16 UNK        -0.5000 
     90 CA         -6.4593  -22.4389  -49.0254 C.3       16 UNK         0.1400 
     91 CB         -7.7457  -21.6365  -48.7444 C.3       16 UNK        -0.1800 
     92 C          -6.3804  -22.9177  -50.4901 C.2       16 UNK         0.5000 
     93 O          -6.5559  -22.0941  -51.3874 O.2       16 UNK        -0.5000 
     94 N          -6.0699  -24.2001  -50.7414 N.am      17 UNK        -0.5000 
     95 CA         -5.9251  -24.7538  -52.0946 C.3       17 UNK         0.1400 
     96 CB         -5.8326  -26.2844  -52.0235 C.3       17 UNK        -0.1800 
     97 C          -4.7133  -24.1771  -52.8515 C.2       17 UNK         0.5000 
     98 O          -4.7526  -24.0622  -54.0772 O.2       17 UNK        -0.5000 
     99 N          -3.6766  -23.7779  -52.1009 N.am      18 UNK        -0.5000 
    100 CA        -2.4705  -23.1282  -52.6125 C.3       18 UNK         0.1400 
    101 CB        -1.3970  -23.1011  -51.5149 C.3       18 UNK        -0.1800 
    102 C         -2.7113  -21.7150  -53.1763 C.2       18 UNK         0.5000 
    103 O         -1.8590  -21.2288  -53.9176 O.2       18 UNK        -0.5000 
    104 N         -3.8582  -21.0901  -52.8654 N.am      19 UNK        -0.5000 
    105 CA        -4.2547  -19.7790  -53.3882 C.3       19 UNK         0.1400 
    106 CB        -5.5004  -19.2796  -52.6435 C.3       19 UNK        -0.1800 
    107 C         -4.4950  -19.7805  -54.9098 C.2       19 UNK         0.5000 
    108 O         -4.2842  -18.7543  -55.5562 O.2       19 UNK        -0.5000 
    109 N         -4.9090  -20.9326  -55.4561 N.am      20 UNK        -0.5000 
    110 CA        -5.0878  -21.1437  -56.8921 C.3       20 UNK         0.1400 
    111 CB        -6.0072  -22.3554  -57.1082 C.3       20 UNK        -0.1800 
    112 C         -3.7499  -21.3432  -57.6299 C.2       20 UNK         0.5000 
    113 O         -3.6478  -20.9835  -58.8033 O.2       20 UNK        -0.5000 
    114 N         -2.7579  -21.9200  -56.9382 N.am      21 UNK        -0.5000 
    115 CA        -1.4241  -22.1919  -57.4700 C.3       21 UNK         0.1400 
    116 CB        -0.8191  -23.3968  -56.7304 C.3       21 UNK        -0.1800 
    117 C         -0.5104  -20.9609  -57.3569 C.2       21 UNK         0.5000 
    118 O          0.0936  -20.5550  -58.3503 O.2       21 UNK        -0.5000 
    119 N         -0.4339  -20.3936  -56.1461 N.am      22 UNK        -0.5000 
    120 CA         0.3966  -19.2390  -55.7716 C.3       22 UNK         0.1400 
    121 C          1.9377  -19.4756  -55.8656 C.2       22 UNK         0.5000 
    122 N          2.4118  -20.7152  -55.8198 N.am      22 UNK        -0.7600 
    123 O          2.7214  -18.5351  -55.9602 O.2       22 UNK        -0.5000 
    124 C124       -0.0891  -17.9283  -56.4526 C.3       23 UNK        -0.0398 
    125 S125        0.0587  -16.4741  -55.3597 S.3       23 UNK        -0.2404 
    126 C126       -1.4395  -16.6387  -54.3374 C.3       23 UNK        -0.0205 
    127 H127        2.5377  -10.7520  -46.7824 H         1 UNK         0.0600 
    128 H128        3.1581  -12.3870  -47.0389 H         1 UNK         0.0600 
    129 H129        2.6429  -11.8707  -45.4255 H         1 UNK         0.0600 
    130 H130        1.1443  -13.5779  -45.2526 H         1 UNK         0.3000 
    131 H131       -0.6139  -14.7020  -45.2617 H         1 UNK         0.0600 
    132 H132       -1.8087  -15.5777  -47.0659 H         1 UNK         0.0800 
    133 H133       -0.1496  -15.4358  -47.5262 H         1 UNK         0.0800 
    134 H134        0.7027  -14.4770  -49.4498 H         1 UNK         0.0800 
    135 H135       -0.1268  -13.5477  -50.6598 H         1 UNK         0.0800 
    136 H136       -0.8603  -14.6263  -52.6135 H         1 UNK         0.1150 
    137 H137       -1.2628  -18.8881  -52.7816 H         1 UNK         0.1150 
    138 H138       -0.3228  -16.9928  -49.0701 H         1 UNK         0.1150 
    139 H139       -0.4590  -20.1961  -50.8146 H         1 UNK         0.0800 
    140 H140       -0.1977  -19.4219  -49.2752 H         1 UNK         0.0800 
    141 H141       -3.4429  -19.7510  -47.4773 H         1 UNK         0.0800 
    142 H142       -1.8132  -19.1743  -47.4799 H         1 UNK         0.0800 
    143 H143       -1.9512  -22.0367  -48.2712 H         1 UNK         0.0600 
    144 H144       -0.1852  -20.4637  -46.6481 H         1 UNK         0.3000 
    145 H145        1.9554  -23.2862  -45.9180 H         1 UNK         0.0600 
    146 H146        3.5418  -21.6099  -46.8209 H         1 UNK         0.0600 
    147 H147        2.5535  -22.2610  -48.1199 H         1 UNK         0.0600 
    148 H148        2.2121  -20.6587  -47.4783 H         1 UNK         0.0600 
    149 H149        2.1472  -20.6499  -44.9612 H         1 UNK         0.3000 
    150 H150        0.1685  -21.0065  -41.9916 H         1 UNK         0.0600 
    151 H151        2.4321  -21.9185  -41.5004 H         1 UNK         0.0600 
    152 H152        2.3241  -20.2258  -41.0429 H         1 UNK         0.0600 
    153 H153        3.1726  -20.6901  -42.5167 H         1 UNK         0.0600 
    154 H154        1.6047  -18.7871  -43.0152 H         1 UNK         0.3000 
    155 H155       -1.0755  -17.2804  -44.8437 H         1 UNK         0.0600 
    156 H156        0.4613  -16.6847  -42.2509 H         1 UNK         0.0600 
    157 H157       -1.2852  -16.7490  -42.4171 H         1 UNK         0.0600 
    158 H158       -0.3772  -15.4946  -43.2307 H         1 UNK         0.0600 
    159 H159        1.7087  -16.6361  -44.4337 H         1 UNK         0.3000 
    160 H160        2.9531  -18.2774  -47.3545 H         1 UNK         0.0600 
    161 H161        2.4441  -15.2829  -46.9351 H         1 UNK         0.0600 
    162 H162        1.9985  -16.2249  -48.3567 H         1 UNK         0.0600 
    163 H163        3.6901  -15.9759  -47.9717 H         1 UNK         0.0600 
    164 H164        4.1951  -16.4643  -45.5625 H         1 UNK         0.3000 
    165 H165        4.8271  -18.5623  -42.8481 H         1 UNK         0.0600 
    166 H166        7.2438  -18.3270  -43.3659 H         1 UNK         0.0600 
    167 H167        6.5209  -19.5500  -44.3979 H         1 UNK         0.0600 
    168 H168        6.8742  -17.9545  -45.0505 H         1 UNK         0.0600 
    169 H169        6.0308  -16.1087  -43.6243 H         1 UNK         0.3000 
    170 H170        5.3034  -14.2896  -42.0723 H         1 UNK         0.0600 
    171 H171        5.6166  -14.0256  -44.4764 H         1 UNK         0.0600 
    172 H172        3.8914  -13.8869  -44.7643 H         1 UNK         0.0600 
    173 H173        4.7560  -12.6054  -43.9161 H         1 UNK         0.0600 
    174 H174        3.6015  -13.4174  -41.0097 H         1 UNK         0.3000 
    175 H175        1.4351  -13.1123  -40.3221 H         1 UNK         0.0600 
    176 H176        1.3108  -10.7586  -42.3058 H         1 UNK         0.0600 
    177 H177        0.9463  -10.6619  -40.5849 H         1 UNK         0.0600 
    178 H178        2.5829  -11.0104  -41.1155 H         1 UNK         0.0600 
    179 H179       -0.3902  -13.1302  -42.5805 H         1 UNK         0.3000 
    180 H180       -2.7869  -14.0794  -41.3689 H         1 UNK         0.0600 
    181 H181       -4.7137  -12.5968  -40.7606 H         1 UNK         0.0600 
    182 H182       -3.5881  -11.3797  -40.1607 H         1 UNK         0.0600 
    183 H183       -3.6929  -12.9498  -39.3771 H         1 UNK         0.0600 
    184 H184       -3.0120  -13.1405  -43.3624 H         1 UNK         0.3000 
    185 H185       -3.6876  -11.1977  -44.8980 H         1 UNK         0.0600 
    186 H186       -2.4446   -9.3803  -46.0574 H         1 UNK         0.0600 
    187 H187       -3.0632   -8.8232  -44.5112 H         1 UNK         0.0600 
    188 H188       -1.3557   -9.2183  -44.6804 H         1 UNK         0.0600 
    189 H189       -0.8184  -11.4709  -45.4729 H         1 UNK         0.3000 
    190 H190       -2.0070  -21.1998  -44.7965 H         1 UNK         0.3000 
    191 H191       -4.5473  -22.3287  -44.2311 H         1 UNK         0.0600 
    192 H192       -3.7093  -22.3886  -41.8766 H         1 UNK         0.0600 
    193 H193       -3.3762  -20.8455  -42.6464 H         1 UNK         0.0600 
    194 H194       -2.0829  -22.0244  -42.4389 H         1 UNK         0.0600 
    195 H195       -1.2624  -23.8204  -44.1476 H         1 UNK         0.3000 
    196 H196       -2.0684  -26.4190  -43.3635 H         1 UNK         0.0600 
    197 H197        0.3635  -25.4969  -44.9861 H         1 UNK         0.0600 
    198 H198        0.2713  -25.6297  -43.2309 H         1 UNK         0.0600 
    199 H199        0.1930  -27.0757  -44.2258 H         1 UNK         0.0600 
    200 H200       -1.8896  -24.9108  -46.5742 H         1 UNK         0.3000 
    201 H201       -2.5903  -27.3147  -48.0521 H         1 UNK         0.0600 
    202 H202       -2.5688  -24.3654  -48.8790 H         1 UNK         0.0600 
    203 H203       -2.6457  -25.7478  -49.9679 H         1 UNK         0.0600 
    204 H204       -1.2002  -25.4677  -49.0120 H         1 UNK         0.0600 
    205 H205       -4.4639  -25.4226  -46.0083 H         1 UNK         0.3000 
    206 H206       -6.5990  -24.9784  -45.6743 H         1 UNK         0.0600 
    207 H207       -6.8204  -27.4690  -45.7919 H         1 UNK         0.0600 
    208 H208       -8.2878  -26.6592  -46.3156 H         1 UNK         0.0600 
    209 H209       -7.2033  -27.3591  -47.5094 H         1 UNK         0.0600 
    210 H210       -5.3601  -23.4053  -47.5266 H         1 UNK         0.3000 
    211 H211       -5.6204  -21.7522  -48.9017 H         1 UNK         0.0600 
    212 H212       -7.8060  -20.7583  -49.3883 H         1 UNK         0.0600 
    213 H213       -7.7730  -21.2831  -47.7137 H         1 UNK         0.0600 
    214 H214       -8.6430  -22.2294  -48.9219 H         1 UNK         0.0600 
    215 H215       -5.9331  -24.8408  -49.9687 H         1 UNK         0.3000 
    216 H216       -6.8226  -24.4948  -52.6602 H         1 UNK         0.0600 
    217 H217       -4.9133  -26.6105  -51.5361 H         1 UNK         0.0600 
    218 H218       -5.8425  -26.7204  -53.0232 H         1 UNK         0.0600 
    219 H219       -6.6737  -26.7082  -51.4744 H         1 UNK         0.0600 
    220 H220       -3.7412  -23.8991  -51.1019 H         1 UNK         0.3000 
    221 H221       -2.0894  -23.7338  -53.4374 H         1 UNK         0.0600 
    222 H222       -1.0857  -24.1100  -51.2465 H         1 UNK         0.0600 
    223 H223       -1.7540  -22.6057  -50.6131 H         1 UNK         0.0600 
    224 H224       -0.5036  -22.5719  -51.8495 H         1 UNK         0.0600 
    225 H225       -4.5287  -21.5554  -52.2676 H         1 UNK         0.3000 
    226 H226       -3.4482  -19.0768  -53.1847 H         1 UNK         0.0600 
    227 H227       -6.3722  -19.8990  -52.8562 H         1 UNK         0.0600 
    228 H228       -5.3424  -19.2766  -51.5647 H         1 UNK         0.0600 
    229 H229       -5.7458  -18.2590  -52.9394 H         1 UNK         0.0600 
    230 H230       -5.0554  -21.7329  -54.8553 H         1 UNK         0.3000 
    231 H231       -5.5774  -20.2656  -57.3188 H         1 UNK         0.0600 
    232 H232       -5.5744  -23.2682  -56.6966 H         1 UNK         0.0600 
    233 H233       -6.1849  -22.5262  -58.1708 H         1 UNK         0.0600 
    234 H234       -6.9783  -22.2027  -56.6370 H         1 UNK         0.0600 
    235 H235       -2.9174  -22.1465  -55.9680 H         1 UNK         0.3000 
    236 H236       -1.5052  -22.4564  -58.5267 H         1 UNK         0.0600 
    237 H237       -1.4338  -24.2873  -56.8635 H         1 UNK         0.0600 
    238 H238        0.1754  -23.6295  -57.1130 H         1 UNK         0.0600 
    239 H239       -0.7251  -23.2146  -55.6593 H         1 UNK         0.0600 
    240 H240       -0.9760  -20.7926  -55.3808 H         1 UNK         0.3000 
    241 H241        0.2160  -19.1397  -54.7015 H         1 UNK         0.0600 
    242 H242        1.7876  -21.5004  -55.7306 H         1 UNK         0.3800 
    243 H243        3.4066  -20.8677  -55.8751 H         1 UNK         0.3800 
    244 H244       -1.1348  -18.0123  -56.7532 H         1 UNK         0.0800 
    245 H245        0.4605  -17.7412  -57.3765 H         1 UNK         0.0800 
    246 H246       -2.0803  -15.7721  -54.5063 H         1 UNK         0.0800 
    247 H247       -2.0226  -17.5068  -54.6464 H         1 UNK         0.0800 
@<TRIPOS>BOND
     1    1    2 1    
     2    1  127 1    
     3    1  128 1    
     4    1  129 1    
     5    2    3 2    
     6    2    4 am   BACKBONE|DICT|INTERRES
     7    4    5 1    
     8    4  130 1    
     9    5    6 1    
    10    5   65 1    
    11    5  131 1    
    12    6    7 1    
    13    6  132 1    
    14    6  133 1    
    15    7    8 1    
    16    8    9 1    
    17    8  134 1    
    18    8  135 1    
    19    9   10 ar   
    20    9   14 ar   
    21   10   11 ar   
    22   10  136 1    
    23   11   12 ar   
    24   11  126 1    
    25   12   13 ar   
    26   12  137 1    
    27   13   14 ar   
    28   13   15 1    
    29   14  138 1    
    30   15   16 1    
    31   15  139 1    
    32   15  140 1    
    33   16   17 1    
    34   17   18 1    
    35   17  141 1    
    36   17  142 1    
    37   18   19 1    
    38   18   67 1    
    39   18  143 1    
    40   19   20 am   BACKBONE|DICT|INTERRES
    41   19  144 1    
    42   20   21 2    
    43   20   22 1    
    44   22   23 1    
    45   22   24 1    
    46   22  145 1    
    47   23  146 1    
    48   23  147 1    
    49   23  148 1    
    50   24   25 am   BACKBONE|DICT|INTERRES
    51   24  149 1    
    52   25   26 2    
    53   25   27 1    
    54   27   28 1    
    55   27   29 1    
    56   27  150 1    
    57   28  151 1    
    58   28  152 1    
    59   28  153 1    
    60   29   30 am   BACKBONE|DICT|INTERRES
    61   29  154 1    
    62   30   31 2    
    63   30   32 1    
    64   32   33 1    
    65   32   34 1    
    66   32  155 1    
    67   33  156 1    
    68   33  157 1    
    69   33  158 1    
    70   34   35 am   BACKBONE|DICT|INTERRES
    71   34  159 1    
    72   35   36 2    
    73   35   37 1    
    74   37   38 1    
    75   37   39 1    
    76   37  160 1    
    77   38  161 1    
    78   38  162 1    
    79   38  163 1    
    80   39   40 am   BACKBONE|DICT|INTERRES
    81   39  164 1    
    82   40   41 2    
    83   40   42 1    
    84   42   43 1    
    85   42   44 1    
    86   42  165 1    
    87   43  166 1    
    88   43  167 1    
    89   43  168 1    
    90   44   45 am   BACKBONE|DICT|INTERRES
    91   44  169 1    
    92   45   46 2    
    93   45   47 1    
    94   47   48 1    
    95   47   49 1    
    96   47  170 1    
    97   48  171 1    
    98   48  172 1    
    99   48  173 1    
   100   49   50 am   BACKBONE|DICT|INTERRES
   101   49  174 1    
   102   50   51 2    
   103   50   52 1    
   104   52   53 1    
   105   52   54 1    
   106   52  175 1    
   107   53  176 1    
   108   53  177 1    
   109   53  178 1    
   110   54   55 am   BACKBONE|DICT|INTERRES
   111   54  179 1    
   112   55   56 2    
   113   55   57 1    
   114   57   58 1    
   115   57   59 1    
   116   57  180 1    
   117   58  181 1    
   118   58  182 1    
   119   58  183 1    
   120   59   60 am   BACKBONE|DICT|INTERRES
   121   59  184 1    
   122   60   61 2    
   123   60   62 1    
   124   62   63 1    
   125   62   64 1    
   126   62  185 1    
   127   63  186 1    
   128   63  187 1    
   129   63  188 1    
   130   64   65 am   BACKBONE|DICT|INTERRES
   131   64  189 1    
   132   65   66 2    
   133   67   68 2    
   134   67   69 am   BACKBONE|DICT|INTERRES
   135   69   70 1    
   136   69  190 1    
   137   70   71 1    
   138   70   72 1    
   139   70  191 1    
   140   71  192 1    
   141   71  193 1    
   142   71  194 1    
   143   72   73 2    
   144   72   74 am   BACKBONE|DICT|INTERRES
   145   74   75 1    
   146   74  195 1    
   147   75   76 1    
   148   75   77 1    
   149   75  196 1    
   150   76  197 1    
   151   76  198 1    
   152   76  199 1    
   153   77   78 2    
   154   77   79 am   BACKBONE|DICT|INTERRES
   155   79   80 1    
   156   79  200 1    
   157   80   81 1    
   158   80   82 1    
   159   80  201 1    
   160   81  202 1    
   161   81  203 1    
   162   81  204 1    
   163   82   83 2    
   164   82   84 am   BACKBONE|DICT|INTERRES
   165   84   85 1    
   166   84  205 1    
   167   85   86 1    
   168   85   87 1    
   169   85  206 1    
   170   86  207 1    
   171   86  208 1    
   172   86  209 1    
   173   87   88 2    
   174   87   89 am   BACKBONE|DICT|INTERRES
   175   89   90 1    
   176   89  210 1    
   177   90   91 1    
   178   90   92 1    
   179   90  211 1    
   180   91  212 1    
   181   91  213 1    
   182   91  214 1    
   183   92   93 2    
   184   92   94 am   BACKBONE|DICT|INTERRES
   185   94   95 1    
   186   94  215 1    
   187   95   96 1    
   188   95   97 1    
   189   95  216 1    
   190   96  217 1    
   191   96  218 1    
   192   96  219 1    
   193   97   98 2    
   194   97   99 am   BACKBONE|DICT|INTERRES
   195   99  100 1    
   196   99  220 1    
   197  100  101 1    
   198  100  102 1    
   199  100  221 1    
   200  101  222 1    
   201  101  223 1    
   202  101  224 1    
   203  102  103 2    
   204  102  104 am   BACKBONE|DICT|INTERRES
   205  104  105 1    
   206  104  225 1    
   207  105  106 1    
   208  105  107 1    
   209  105  226 1    
   210  106  227 1    
   211  106  228 1    
   212  106  229 1    
   213  107  108 2    
   214  107  109 am   BACKBONE|DICT|INTERRES
   215  109  110 1    
   216  109  230 1    
   217  110  111 1    
   218  110  112 1    
   219  110  231 1    
   220  111  232 1    
   221  111  233 1    
   222  111  234 1    
   223  112  113 2    
   224  112  114 am   BACKBONE|DICT|INTERRES
   225  114  115 1    
   226  114  235 1    
   227  115  116 1    
   228  115  117 1    
   229  115  236 1    
   230  116  237 1    
   231  116  238 1    
   232  116  239 1    
   233  117  118 2    
   234  117  119 am   BACKBONE|DICT|INTERRES
   235  119  120 1    
   236  119  240 1    
   237  120  121 1    
   238  120  124 1    
   239  120  241 1    
   240  121  122 am   BACKBONE|DICT|INTERRES
   241  121  123 2    
   242  122  242 1    
   243  122  243 1    
   244  124  125 1    
   245  124  244 1    
   246  124  245 1    
   247  125  126 1    
   248  126  246 1    
   249  126  247 1    
@<TRIPOS>SUBSTRUCTURE
     1 UNK         1 GROUP             0       ****    0 ROOT    
