@<TRIPOS>MOLECULE
3R540
247   249    1
SMALL
USER_CHARGES


@<TRIPOS>ATOM
      1 CA          1.4123  -13.8591  -56.7755 C.3       0 UNK        -0.1800 
      2 C           1.7759  -13.6858  -55.3073 C.2       0 UNK         0.5000 
      3 O           2.0360  -12.5647  -54.8690 O.2       0 UNK        -0.5000 
      4 N           1.8034  -14.7896  -54.5506 N.am      1 UNK        -0.5000 
      5 CA          2.0553  -14.8092  -53.1062 C.3       1 UNK         0.1400 
      6 C6          2.3984  -16.2401  -52.6083 C.3       23 UNK        -0.0398 
      7 S7          3.7832  -16.2826  -51.4170 S.3       23 UNK        -0.2404 
      8 C8          2.9783  -16.1215  -49.7841 C.3       23 UNK        -0.0205 
      9 C9          1.8157  -17.0801  -49.5519 C.ar      23 UNK        -0.0193 
     10 C10         0.6197  -16.5930  -49.0207 C.ar      23 UNK        -0.1150 
     11 C11        -0.4704  -17.4402  -48.8083 C.ar      23 UNK        -0.0193 
     12 C12        -0.3535  -18.7972  -49.1265 C.ar      23 UNK        -0.1150 
     13 C13         0.8453  -19.3055  -49.6409 C.ar      23 UNK        -0.0193 
     14 C14         1.9254  -18.4425  -49.8480 C.ar      23 UNK        -0.1150 
     15 C15         0.9730  -20.7824  -49.9913 C.3       23 UNK        -0.0205 
     16 S16         2.1428  -21.6780  -48.9159 S.3       23 UNK        -0.2404 
     17 C17         1.3937  -21.4790  -47.2681 C.3       23 UNK        -0.0398 
     18 CA          0.5223  -22.6654  -46.7850 C.3       11 UNK         0.1400 
     19 N           0.2446  -22.5446  -45.3488 N.am      11 UNK        -0.5000 
     20 C          -0.4309  -23.4241  -44.5962 C.2       10 UNK         0.5000 
     21 O          -0.8570  -24.4975  -45.0167 O.2       10 UNK        -0.5000 
     22 CA         -0.7268  -23.0149  -43.1406 C.3       10 UNK         0.1400 
     23 CB          0.4808  -23.2946  -42.2343 C.3       10 UNK        -0.1800 
     24 N          -1.1297  -21.6122  -43.0165 N.am      10 UNK        -0.5000 
     25 C          -2.2437  -21.0924  -43.5540 C.2       9 UNK         0.5000 
     26 O          -3.0776  -21.7575  -44.1668 O.2       9 UNK        -0.5000 
     27 CA         -2.4287  -19.5667  -43.4441 C.3       9 UNK         0.1400 
     28 CB         -2.9684  -19.1683  -42.0628 C.3       9 UNK        -0.1800 
     29 N          -1.1900  -18.8400  -43.7200 N.am      9 UNK        -0.5000 
     30 C          -0.5491  -18.8634  -44.8968 C.2       8 UNK         0.5000 
     31 O          -0.9857  -19.4336  -45.8962 O.2       8 UNK        -0.5000 
     32 CA          0.8422  -18.2055  -44.9368 C.3       8 UNK         0.1400 
     33 CB          0.7456  -16.6885  -45.1453 C.3       8 UNK        -0.1800 
     34 N           1.5972  -18.4717  -43.7123 N.am      8 UNK        -0.5000 
     35 C           2.1295  -19.6581  -43.3905 C.2       7 UNK         0.5000 
     36 O           2.0619  -20.6512  -44.1115 O.2       7 UNK        -0.5000 
     37 CA          2.8211  -19.7625  -42.0183 C.3       7 UNK         0.1400 
     38 CB          4.2887  -19.3216  -42.1201 C.3       7 UNK        -0.1800 
     39 N           2.1492  -18.9700  -40.9882 N.am      7 UNK        -0.5000 
     40 C           0.9227  -19.2282  -40.5121 C.2       6 UNK         0.5000 
     41 O           0.2533  -20.2047  -40.8470 O.2       6 UNK        -0.5000 
     42 CA          0.3230  -18.1838  -39.5496 C.3       6 UNK         0.1400 
     43 CB          0.7224  -18.4926  -38.0993 C.3       6 UNK        -0.1800 
     44 N           0.7122  -16.8081  -39.8817 N.am      6 UNK        -0.5000 
     45 C           0.4122  -16.1971  -41.0357 C.2       5 UNK         0.5000 
     46 O          -0.2426  -16.7314  -41.9331 O.2       5 UNK        -0.5000 
     47 CA          1.0193  -14.7973  -41.2489 C.3       5 UNK         0.1400 
     48 CB          2.4968  -14.9214  -41.6569 C.3       5 UNK        -0.1800 
     49 N           0.3225  -14.0295  -42.2816 N.am      5 UNK        -0.5000 
     50 C          -0.9252  -13.5513  -42.1826 C.2       4 UNK         0.5000 
     51 O          -1.6206  -13.6786  -41.1732 O.2       4 UNK        -0.5000 
     52 CA         -1.4848  -12.7793  -43.3959 C.3       4 UNK         0.1400 
     53 CB         -2.0500  -11.4130  -42.9683 C.3       4 UNK        -0.1800 
     54 N          -0.4752  -12.5556  -44.4384 N.am      4 UNK        -0.5000 
     55 C          -0.4997  -13.1044  -45.6580 C.2       3 UNK         0.5000 
     56 O          -1.3579  -13.9032  -46.0397 O.2       3 UNK        -0.5000 
     57 CA          0.6271  -12.6917  -46.6164 C.3       3 UNK         0.1400 
     58 CB          1.9121  -13.4999  -46.3448 C.3       3 UNK        -0.1800 
     59 N           0.1602  -12.9027  -47.9830 N.am      3 UNK        -0.5000 
     60 C           0.7863  -12.5315  -49.1021 C.2       2 UNK         0.5000 
     61 O           1.8716  -11.9462  -49.1292 O.2       2 UNK        -0.5000 
     62 CA          0.0884  -12.8765  -50.4213 C.3       2 UNK         0.1400 
     63 CB         -0.5971  -11.6428  -51.0337 C.3       2 UNK        -0.1800 
     64 N           1.0928  -13.4098  -51.3330 N.am      2 UNK        -0.5000 
     65 C           0.8384  -14.2390  -52.3484 C.2       1 UNK         0.5000 
     66 O          -0.2971  -14.5808  -52.6857 O.2       1 UNK        -0.5000 
     67 C          -0.7775  -22.8014  -47.6094 C.2       11 UNK         0.5000 
     68 O          -0.8773  -23.6887  -48.4615 O.2       11 UNK        -0.5000 
     69 N          -1.7615  -21.9406  -47.3122 N.am      12 UNK        -0.5000 
     70 CA         -3.0936  -21.9716  -47.9108 C.3       12 UNK         0.1400 
     71 CB         -3.8601  -20.6992  -47.5344 C.3       12 UNK        -0.1800 
     72 C          -3.8949  -23.2253  -47.5205 C.2       12 UNK         0.5000 
     73 O          -4.5020  -23.8414  -48.3948 O.2       12 UNK        -0.5000 
     74 N          -3.8597  -23.6027  -46.2339 N.am      13 UNK        -0.5000 
     75 CA         -4.5253  -24.7927  -45.6924 C.3       13 UNK         0.1400 
     76 CB         -4.4311  -24.7852  -44.1596 C.3       13 UNK        -0.1800 
     77 C          -3.9714  -26.1119  -46.2637 C.2       13 UNK         0.5000 
     78 O          -4.7428  -27.0382  -46.5152 O.2       13 UNK        -0.5000 
     79 N          -2.6532  -26.1573  -46.4980 N.am      14 UNK        -0.5000 
     80 CA         -1.9525  -27.2468  -47.1810 C.3       14 UNK         0.1400 
     81 CB         -0.4459  -27.1143  -46.9054 C.3       14 UNK        -0.1800 
     82 C          -2.2130  -27.2852  -48.7013 C.2       14 UNK         0.5000 
     83 O          -1.8600  -28.2753  -49.3430 O.2       14 UNK        -0.5000 
     84 N          -2.8037  -26.2108  -49.2471 N.am      15 UNK        -0.5000 
     85 CA         -3.1139  -25.9728  -50.6581 C.3       15 UNK         0.1400 
     86 CB         -4.1666  -26.9778  -51.1693 C.3       15 UNK        -0.1800 
     87 C          -1.8566  -25.9082  -51.5476 C.2       15 UNK         0.5000 
     88 O          -1.9182  -26.2600  -52.7270 O.2       15 UNK        -0.5000 
     89 N          -0.7390  -25.4289  -50.9814 N.am      16 UNK        -0.5000 
     90 CA          0.5686  -25.3611  -51.6423 C.3       16 UNK         0.1400 
     91 CB          1.6425  -25.0652  -50.5886 C.3       16 UNK        -0.1800 
     92 C           0.6271  -24.3490  -52.8052 C.2       16 UNK         0.5000 
     93 O           1.4461  -24.5117  -53.7102 O.2       16 UNK        -0.5000 
     94 N          -0.2713  -23.3581  -52.7810 N.am      17 UNK        -0.5000 
     95 CA         -0.5623  -22.4431  -53.8846 C.3       17 UNK         0.1400 
     96 CB          0.0192  -21.0534  -53.5709 C.3       17 UNK        -0.1800 
     97 C          -2.0827  -22.4151  -54.1293 C.2       17 UNK         0.5000 
     98 O          -2.6534  -21.3484  -54.3628 O.2       17 UNK        -0.5000 
     99 N          -2.7261  -23.5875  -54.0056 N.am      18 UNK        -0.5000 
    100 CA        -4.1683  -23.8697  -54.0657 C.3       18 UNK         0.1400 
    101 CB        -4.7734  -23.4692  -55.4246 C.3       18 UNK        -0.1800 
    102 C         -4.9733  -23.2733  -52.8931 C.2       18 UNK         0.5000 
    103 O         -5.7435  -23.9963  -52.2629 O.2       18 UNK        -0.5000 
    104 N         -4.7516  -21.9864  -52.6116 N.am      19 UNK        -0.5000 
    105 CA        -5.3201  -21.1903  -51.5230 C.3       19 UNK         0.1400 
    106 CB        -6.8582  -21.1182  -51.6076 C.3       19 UNK        -0.1800 
    107 C         -4.7402  -19.7675  -51.5505 C.2       19 UNK         0.5000 
    108 O         -4.6244  -19.1451  -50.4957 O.2       19 UNK        -0.5000 
    109 N         -4.4152  -19.2701  -52.7569 N.am      20 UNK        -0.5000 
    110 CA        -3.8291  -17.9543  -53.0548 C.3       20 UNK         0.1400 
    111 CB        -2.3892  -17.8740  -52.5057 C.3       20 UNK        -0.1800 
    112 C         -4.7020  -16.7537  -52.6198 C.2       20 UNK         0.5000 
    113 O         -4.1884  -15.6466  -52.4645 O.2       20 UNK        -0.5000 
    114 N         -6.0050  -16.9973  -52.4095 N.am      21 UNK        -0.5000 
    115 CA        -7.0452  -16.1119  -51.8634 C.3       21 UNK         0.1400 
    116 CB        -7.2184  -14.8382  -52.7130 C.3       21 UNK        -0.1800 
    117 C         -6.8742  -15.7712  -50.3667 C.2       21 UNK         0.5000 
    118 O         -7.8783  -15.6414  -49.6652 O.2       21 UNK        -0.5000 
    119 N         -5.6284  -15.6492  -49.8975 N.am      22 UNK        -0.5000 
    120 CA        -5.2501  -15.4549  -48.4906 C.3       22 UNK         0.1400 
    121 C         -5.4925  -16.6823  -47.5671 C.2       22 UNK         0.5000 
    122 N         -5.5674  -17.9029  -48.0796 N.am      22 UNK        -0.7600 
    123 O         -5.6385  -16.5185  -46.3590 O.2       22 UNK        -0.5000 
    124 C124       -3.8064  -14.9045  -48.3449 C.3       23 UNK        -0.0398 
    125 S125       -2.5597  -15.7356  -49.3927 S.3       23 UNK        -0.2404 
    126 C126       -1.7602  -16.8759  -48.2262 C.3       23 UNK        -0.0205 
    127 H127        0.5174  -13.2828  -57.0104 H         1 UNK         0.0600 
    128 H128        1.2198  -14.9028  -57.0257 H         1 UNK         0.0600 
    129 H129        2.2250  -13.5024  -57.4084 H         1 UNK         0.0600 
    130 H130        1.5424  -15.6737  -54.9626 H         1 UNK         0.3000 
    131 H131        2.9125  -14.1560  -52.9271 H         1 UNK         0.0600 
    132 H132        1.5270  -16.7663  -52.2140 H         1 UNK         0.0800 
    133 H133        2.7296  -16.8549  -53.4464 H         1 UNK         0.0800 
    134 H134        2.6547  -15.0880  -49.6592 H         1 UNK         0.0800 
    135 H135        3.7271  -16.2967  -49.0107 H         1 UNK         0.0800 
    136 H136        0.5276  -15.5465  -48.7741 H         1 UNK         0.1150 
    137 H137       -1.1928  -19.4581  -48.9641 H         1 UNK         0.1150 
    138 H138        2.8507  -18.8329  -50.2475 H         1 UNK         0.1150 
    139 H139        0.0001  -21.2743  -49.9697 H         1 UNK         0.0800 
    140 H140        1.3327  -20.8675  -51.0161 H         1 UNK         0.0800 
    141 H141        0.8429  -20.5425  -47.2256 H         1 UNK         0.0800 
    142 H142        2.2328  -21.3512  -46.5846 H         1 UNK         0.0800 
    143 H143        1.0927  -23.5865  -46.9203 H         1 UNK         0.0600 
    144 H144        0.6185  -21.7178  -44.8934 H         1 UNK         0.3000 
    145 H145       -1.5577  -23.6278  -42.7868 H         1 UNK         0.0600 
    146 H146        0.2536  -23.0652  -41.1931 H         1 UNK         0.0600 
    147 H147        1.3503  -22.7055  -42.5242 H         1 UNK         0.0600 
    148 H148        0.7671  -24.3460  -42.2811 H         1 UNK         0.0600 
    149 H149       -0.5237  -21.0096  -42.4682 H         1 UNK         0.3000 
    150 H150       -3.1631  -19.2657  -44.1944 H         1 UNK         0.0600 
    151 H151       -3.9258  -19.6521  -41.8661 H         1 UNK         0.0600 
    152 H152       -3.1266  -18.0916  -41.9972 H         1 UNK         0.0600 
    153 H153       -2.2867  -19.4550  -41.2627 H         1 UNK         0.0600 
    154 H154       -0.7929  -18.2927  -42.9622 H         1 UNK         0.3000 
    155 H155        1.3966  -18.6263  -45.7783 H         1 UNK         0.0600 
    156 H156        0.4075  -16.4606  -46.1534 H         1 UNK         0.0600 
    157 H157        1.7171  -16.2125  -45.0162 H         1 UNK         0.0600 
    158 H158        0.0455  -16.2175  -44.4557 H         1 UNK         0.0600 
    159 H159        1.6302  -17.7260  -43.0341 H         1 UNK         0.3000 
    160 H160        2.7989  -20.8102  -41.7114 H         1 UNK         0.0600 
    161 H161        4.3767  -18.2715  -42.4018 H         1 UNK         0.0600 
    162 H162        4.8207  -19.9086  -42.8701 H         1 UNK         0.0600 
    163 H163        4.8087  -19.4602  -41.1720 H         1 UNK         0.0600 
    164 H164        2.6340  -18.1518  -40.6514 H         1 UNK         0.3000 
    165 H165       -0.7642  -18.2509  -39.6263 H         1 UNK         0.0600 
    166 H166        0.2360  -17.8099  -37.4023 H         1 UNK         0.0600 
    167 H167        0.4261  -19.5048  -37.8205 H         1 UNK         0.0600 
    168 H168        1.8001  -18.4134  -37.9514 H         1 UNK         0.0600 
    169 H169        1.2607  -16.3157  -39.1912 H         1 UNK         0.3000 
    170 H170        0.9551  -14.2457  -40.3087 H         1 UNK         0.0600 
    171 H171        2.9551  -13.9396  -41.7785 H         1 UNK         0.0600 
    172 H172        3.0746  -15.4522  -40.8993 H         1 UNK         0.0600 
    173 H173        2.6125  -15.4623  -42.5971 H         1 UNK         0.0600 
    174 H174        0.8048  -13.9110  -43.1583 H         1 UNK         0.3000 
    175 H175       -2.3118  -13.3764  -43.7855 H         1 UNK         0.0600 
    176 H176       -1.2804  -10.7802  -42.5249 H         1 UNK         0.0600 
    177 H177       -2.4735  -10.8795  -43.8195 H         1 UNK         0.0600 
    178 H178       -2.8469  -11.5272  -42.2324 H         1 UNK         0.0600 
    179 H179        0.2638  -11.9064  -44.2058 H         1 UNK         0.3000 
    180 H180        0.8261  -11.6277  -46.4736 H         1 UNK         0.0600 
    181 H181        2.7697  -13.0611  -46.8543 H         1 UNK         0.0600 
    182 H182        1.8180  -14.5279  -46.6927 H         1 UNK         0.0600 
    183 H183        2.1551  -13.5266  -45.2821 H         1 UNK         0.0600 
    184 H184       -0.7351  -13.3757  -48.0279 H         1 UNK         0.3000 
    185 H185       -0.6637  -13.6438  -50.2303 H         1 UNK         0.0600 
    186 H186        0.1230  -10.8571  -51.2653 H         1 UNK         0.0600 
    187 H187       -1.1220  -11.8982  -51.9545 H         1 UNK         0.0600 
    188 H188       -1.3332  -11.2249  -50.3460 H         1 UNK         0.0600 
    189 H189        2.0455  -13.1602  -51.0996 H         1 UNK         0.3000 
    190 H190       -1.5870  -21.2140  -46.6242 H         1 UNK         0.3000 
    191 H191       -2.9712  -21.9805  -48.9960 H         1 UNK         0.0600 
    192 H192       -3.3548  -19.8134  -47.9154 H         1 UNK         0.0600 
    193 H193       -3.9629  -20.5879  -46.4550 H         1 UNK         0.0600 
    194 H194       -4.8622  -20.7112  -47.9644 H         1 UNK         0.0600 
    195 H195       -3.3798  -23.0079  -45.5627 H         1 UNK         0.3000 
    196 H196       -5.5805  -24.7329  -45.9666 H         1 UNK         0.0600 
    197 H197       -4.8839  -23.8867  -43.7403 H         1 UNK         0.0600 
    198 H198       -3.3960  -24.8286  -43.8214 H         1 UNK         0.0600 
    199 H199       -4.9525  -25.6423  -43.7319 H         1 UNK         0.0600 
    200 H200       -2.0760  -25.3824  -46.1800 H         1 UNK         0.3000 
    201 H201       -2.2969  -28.1953  -46.7640 H         1 UNK         0.0600 
    202 H202       -0.2362  -27.1506  -45.8362 H         1 UNK         0.0600 
    203 H203       -0.0490  -26.1748  -47.2925 H         1 UNK         0.0600 
    204 H204        0.1135  -27.9253  -47.3732 H         1 UNK         0.0600 
    205 H205       -3.0617  -25.4544  -48.6254 H         1 UNK         0.3000 
    206 H206       -3.5611  -24.9796  -50.7023 H         1 UNK         0.0600 
    207 H207       -3.7708  -27.9923  -51.2203 H         1 UNK         0.0600 
    208 H208       -5.0433  -26.9899  -50.5216 H         1 UNK         0.0600 
    209 H209       -4.5102  -26.7111  -52.1690 H         1 UNK         0.0600 
    210 H210       -0.7818  -25.0988  -50.0223 H         1 UNK         0.3000 
    211 H211        0.7783  -26.3451  -52.0667 H         1 UNK         0.0600 
    212 H212        1.4263  -24.1395  -50.0603 H         1 UNK         0.0600 
    213 H213        2.6295  -24.9676  -51.0425 H         1 UNK         0.0600 
    214 H214        1.6993  -25.8641  -49.8491 H         1 UNK         0.0600 
    215 H215       -0.8977  -23.3130  -51.9901 H         1 UNK         0.3000 
    216 H216       -0.1093  -22.8047  -54.8098 H         1 UNK         0.0600 
    217 H217       -0.1654  -20.3550  -54.3880 H         1 UNK         0.0600 
    218 H218        1.0986  -21.1032  -53.4283 H         1 UNK         0.0600 
    219 H219       -0.4234  -20.6303  -52.6691 H         1 UNK         0.0600 
    220 H220       -2.1605  -24.4023  -53.7942 H         1 UNK         0.3000 
    221 H221       -4.2548  -24.9542  -53.9834 H         1 UNK         0.0600 
    222 H222       -4.7532  -22.3910  -55.5843 H         1 UNK         0.0600 
    223 H223       -4.2366  -23.9400  -56.2481 H         1 UNK         0.0600 
    224 H224       -5.8148  -23.7862  -55.4923 H         1 UNK         0.0600 
    225 H225       -4.0365  -21.5250  -53.1705 H         1 UNK         0.3000 
    226 H226       -5.0342  -21.6510  -50.5755 H         1 UNK         0.0600 
    227 H227       -7.3188  -22.0882  -51.4238 H         1 UNK         0.0600 
    228 H228       -7.2597  -20.4337  -50.8588 H         1 UNK         0.0600 
    229 H229       -7.1910  -20.7687  -52.5854 H         1 UNK         0.0600 
    230 H230       -4.5834  -19.8468  -53.5692 H         1 UNK         0.3000 
    231 H231       -3.7653  -17.8905  -54.1418 H         1 UNK         0.0600 
    232 H232       -1.9108  -16.9315  -52.7745 H         1 UNK         0.0600 
    233 H233       -1.7723  -18.6734  -52.9129 H         1 UNK         0.0600 
    234 H234       -2.3632  -17.9533  -51.4191 H         1 UNK         0.0600 
    235 H235       -6.3027  -17.9509  -52.5543 H         1 UNK         0.3000 
    236 H236       -7.9736  -16.6797  -51.9417 H         1 UNK         0.0600 
    237 H237       -6.3526  -14.1793  -52.6456 H         1 UNK         0.0600 
    238 H238       -7.3753  -15.0823  -53.7636 H         1 UNK         0.0600 
    239 H239       -8.0848  -14.2663  -52.3789 H         1 UNK         0.0600 
    240 H240       -4.8600  -15.7418  -50.5532 H         1 UNK         0.3000 
    241 H241       -5.9131  -14.6794  -48.1021 H         1 UNK         0.0600 
    242 H242       -5.7455  -18.6745  -47.4603 H         1 UNK         0.3800 
    243 H243       -5.3476  -18.0875  -49.0541 H         1 UNK         0.3800 
    244 H244       -3.4839  -14.9086  -47.3024 H         1 UNK         0.0800 
    245 H245       -3.8043  -13.8540  -48.6374 H         1 UNK         0.0800 
    246 H246       -1.5409  -16.3498  -47.2981 H         1 UNK         0.0800 
    247 H247       -2.4559  -17.6750  -47.9709 H         1 UNK         0.0800 
@<TRIPOS>BOND
     1    1    2 1    
     2    1  127 1    
     3    1  128 1    
     4    1  129 1    
     5    2    3 2    
     6    2    4 am   BACKBONE|DICT|INTERRES
     7    4    5 1    
     8    4  130 1    
     9    5    6 1    
    10    5   65 1    
    11    5  131 1    
    12    6    7 1    
    13    6  132 1    
    14    6  133 1    
    15    7    8 1    
    16    8    9 1    
    17    8  134 1    
    18    8  135 1    
    19    9   10 ar   
    20    9   14 ar   
    21   10   11 ar   
    22   10  136 1    
    23   11   12 ar   
    24   11  126 1    
    25   12   13 ar   
    26   12  137 1    
    27   13   14 ar   
    28   13   15 1    
    29   14  138 1    
    30   15   16 1    
    31   15  139 1    
    32   15  140 1    
    33   16   17 1    
    34   17   18 1    
    35   17  141 1    
    36   17  142 1    
    37   18   19 1    
    38   18   67 1    
    39   18  143 1    
    40   19   20 am   BACKBONE|DICT|INTERRES
    41   19  144 1    
    42   20   21 2    
    43   20   22 1    
    44   22   23 1    
    45   22   24 1    
    46   22  145 1    
    47   23  146 1    
    48   23  147 1    
    49   23  148 1    
    50   24   25 am   BACKBONE|DICT|INTERRES
    51   24  149 1    
    52   25   26 2    
    53   25   27 1    
    54   27   28 1    
    55   27   29 1    
    56   27  150 1    
    57   28  151 1    
    58   28  152 1    
    59   28  153 1    
    60   29   30 am   BACKBONE|DICT|INTERRES
    61   29  154 1    
    62   30   31 2    
    63   30   32 1    
    64   32   33 1    
    65   32   34 1    
    66   32  155 1    
    67   33  156 1    
    68   33  157 1    
    69   33  158 1    
    70   34   35 am   BACKBONE|DICT|INTERRES
    71   34  159 1    
    72   35   36 2    
    73   35   37 1    
    74   37   38 1    
    75   37   39 1    
    76   37  160 1    
    77   38  161 1    
    78   38  162 1    
    79   38  163 1    
    80   39   40 am   BACKBONE|DICT|INTERRES
    81   39  164 1    
    82   40   41 2    
    83   40   42 1    
    84   42   43 1    
    85   42   44 1    
    86   42  165 1    
    87   43  166 1    
    88   43  167 1    
    89   43  168 1    
    90   44   45 am   BACKBONE|DICT|INTERRES
    91   44  169 1    
    92   45   46 2    
    93   45   47 1    
    94   47   48 1    
    95   47   49 1    
    96   47  170 1    
    97   48  171 1    
    98   48  172 1    
    99   48  173 1    
   100   49   50 am   BACKBONE|DICT|INTERRES
   101   49  174 1    
   102   50   51 2    
   103   50   52 1    
   104   52   53 1    
   105   52   54 1    
   106   52  175 1    
   107   53  176 1    
   108   53  177 1    
   109   53  178 1    
   110   54   55 am   BACKBONE|DICT|INTERRES
   111   54  179 1    
   112   55   56 2    
   113   55   57 1    
   114   57   58 1    
   115   57   59 1    
   116   57  180 1    
   117   58  181 1    
   118   58  182 1    
   119   58  183 1    
   120   59   60 am   BACKBONE|DICT|INTERRES
   121   59  184 1    
   122   60   61 2    
   123   60   62 1    
   124   62   63 1    
   125   62   64 1    
   126   62  185 1    
   127   63  186 1    
   128   63  187 1    
   129   63  188 1    
   130   64   65 am   BACKBONE|DICT|INTERRES
   131   64  189 1    
   132   65   66 2    
   133   67   68 2    
   134   67   69 am   BACKBONE|DICT|INTERRES
   135   69   70 1    
   136   69  190 1    
   137   70   71 1    
   138   70   72 1    
   139   70  191 1    
   140   71  192 1    
   141   71  193 1    
   142   71  194 1    
   143   72   73 2    
   144   72   74 am   BACKBONE|DICT|INTERRES
   145   74   75 1    
   146   74  195 1    
   147   75   76 1    
   148   75   77 1    
   149   75  196 1    
   150   76  197 1    
   151   76  198 1    
   152   76  199 1    
   153   77   78 2    
   154   77   79 am   BACKBONE|DICT|INTERRES
   155   79   80 1    
   156   79  200 1    
   157   80   81 1    
   158   80   82 1    
   159   80  201 1    
   160   81  202 1    
   161   81  203 1    
   162   81  204 1    
   163   82   83 2    
   164   82   84 am   BACKBONE|DICT|INTERRES
   165   84   85 1    
   166   84  205 1    
   167   85   86 1    
   168   85   87 1    
   169   85  206 1    
   170   86  207 1    
   171   86  208 1    
   172   86  209 1    
   173   87   88 2    
   174   87   89 am   BACKBONE|DICT|INTERRES
   175   89   90 1    
   176   89  210 1    
   177   90   91 1    
   178   90   92 1    
   179   90  211 1    
   180   91  212 1    
   181   91  213 1    
   182   91  214 1    
   183   92   93 2    
   184   92   94 am   BACKBONE|DICT|INTERRES
   185   94   95 1    
   186   94  215 1    
   187   95   96 1    
   188   95   97 1    
   189   95  216 1    
   190   96  217 1    
   191   96  218 1    
   192   96  219 1    
   193   97   98 2    
   194   97   99 am   BACKBONE|DICT|INTERRES
   195   99  100 1    
   196   99  220 1    
   197  100  101 1    
   198  100  102 1    
   199  100  221 1    
   200  101  222 1    
   201  101  223 1    
   202  101  224 1    
   203  102  103 2    
   204  102  104 am   BACKBONE|DICT|INTERRES
   205  104  105 1    
   206  104  225 1    
   207  105  106 1    
   208  105  107 1    
   209  105  226 1    
   210  106  227 1    
   211  106  228 1    
   212  106  229 1    
   213  107  108 2    
   214  107  109 am   BACKBONE|DICT|INTERRES
   215  109  110 1    
   216  109  230 1    
   217  110  111 1    
   218  110  112 1    
   219  110  231 1    
   220  111  232 1    
   221  111  233 1    
   222  111  234 1    
   223  112  113 2    
   224  112  114 am   BACKBONE|DICT|INTERRES
   225  114  115 1    
   226  114  235 1    
   227  115  116 1    
   228  115  117 1    
   229  115  236 1    
   230  116  237 1    
   231  116  238 1    
   232  116  239 1    
   233  117  118 2    
   234  117  119 am   BACKBONE|DICT|INTERRES
   235  119  120 1    
   236  119  240 1    
   237  120  121 1    
   238  120  124 1    
   239  120  241 1    
   240  121  122 am   BACKBONE|DICT|INTERRES
   241  121  123 2    
   242  122  242 1    
   243  122  243 1    
   244  124  125 1    
   245  124  244 1    
   246  124  245 1    
   247  125  126 1    
   248  126  246 1    
   249  126  247 1    
@<TRIPOS>SUBSTRUCTURE
     1 UNK         1 GROUP             0       ****    0 ROOT    
