@<TRIPOS>MOLECULE
3R540
247   249    1
SMALL
USER_CHARGES


@<TRIPOS>ATOM
      1 CA         -3.1131  -16.3240  -40.7420 C.3       0 UNK        -0.1800 
      2 C          -2.8993  -15.7540  -42.1368 C.2       0 UNK         0.5000 
      3 O          -3.8119  -15.1475  -42.6969 O.2       0 UNK        -0.5000 
      4 N          -1.6937  -15.9333  -42.6856 N.am      1 UNK        -0.5000 
      5 CA         -1.2847  -15.4787  -44.0199 C.3       1 UNK         0.1400 
      6 C6         -0.7893  -16.6485  -44.9049 C.3       23 UNK        -0.0398 
      7 S7         -2.1573  -17.7546  -45.3814 S.3       23 UNK        -0.2404 
      8 C8         -2.5264  -17.1574  -47.0688 C.3       23 UNK        -0.0205 
      9 C9         -1.8300  -17.9531  -48.1716 C.ar      23 UNK        -0.0193 
     10 C10        -2.5385  -18.2965  -49.3291 C.ar      23 UNK        -0.1150 
     11 C11        -1.9107  -18.9813  -50.3740 C.ar      23 UNK        -0.0193 
     12 C12        -0.5674  -19.3462  -50.2460 C.ar      23 UNK        -0.1150 
     13 C13         0.1556  -19.0047  -49.1015 C.ar      23 UNK        -0.0193 
     14 C14        -0.4799  -18.3062  -48.0726 C.ar      23 UNK        -0.1150 
     15 C15         1.6401  -19.3252  -49.0043 C.3       23 UNK        -0.0205 
     16 S16         1.9751  -21.0567  -48.5615 S.3       23 UNK        -0.2404 
     17 C17         1.2865  -21.1851  -46.8750 C.3       23 UNK        -0.0398 
     18 CA          0.4121  -22.4472  -46.6874 C.3       11 UNK         0.1400 
     19 N           0.1637  -22.7173  -45.2693 N.am      11 UNK        -0.5000 
     20 C          -0.3785  -23.8481  -44.7911 C.2       10 UNK         0.5000 
     21 O          -0.6968  -24.8043  -45.4960 O.2       10 UNK        -0.5000 
     22 CA         -0.6590  -23.9082  -43.2770 C.3       10 UNK         0.1400 
     23 CB          0.5432  -24.5106  -42.5353 C.3       10 UNK        -0.1800 
     24 N          -0.9803  -22.6078  -42.6901 N.am      10 UNK        -0.5000 
     25 C          -1.9728  -21.7922  -43.0765 C.2       9 UNK         0.5000 
     26 O          -2.7965  -22.0877  -43.9428 O.2       9 UNK        -0.5000 
     27 CA         -2.0220  -20.3989  -42.4167 C.3       9 UNK         0.1400 
     28 CB         -3.1406  -20.3433  -41.3667 C.3       9 UNK        -0.1800 
     29 N          -0.7550  -20.0029  -41.7901 N.am      9 UNK        -0.5000 
     30 C           0.3938  -19.7791  -42.4435 C.2       8 UNK         0.5000 
     31 O           0.5147  -19.8449  -43.6691 O.2       8 UNK        -0.5000 
     32 CA          1.6291  -19.5102  -41.5670 C.3       8 UNK         0.1400 
     33 CB          2.7032  -20.5842  -41.8018 C.3       8 UNK        -0.1800 
     34 N           2.2109  -18.1951  -41.8109 N.am      8 UNK        -0.5000 
     35 C           1.6317  -17.0226  -41.5357 C.2       7 UNK         0.5000 
     36 O           0.4905  -16.9107  -41.0869 O.2       7 UNK        -0.5000 
     37 CA          2.4547  -15.7545  -41.8241 C.3       7 UNK         0.1400 
     38 CB          3.6382  -15.6031  -40.8499 C.3       7 UNK        -0.1800 
     39 N           2.8783  -15.6397  -43.2234 N.am      7 UNK        -0.5000 
     40 C           3.7499  -16.3928  -43.9110 C.2       6 UNK         0.5000 
     41 O           4.3859  -17.3308  -43.4289 O.2       6 UNK        -0.5000 
     42 CA          3.9270  -16.0464  -45.3986 C.3       6 UNK         0.1400 
     43 CB          3.0308  -16.9442  -46.2622 C.3       6 UNK        -0.1800 
     44 N           3.5979  -14.6486  -45.6777 N.am      6 UNK        -0.5000 
     45 C           4.4688  -13.6322  -45.6243 C.2       5 UNK         0.5000 
     46 O           5.6599  -13.7768  -45.3448 O.2       5 UNK        -0.5000 
     47 CA          3.9185  -12.2155  -45.9025 C.3       5 UNK         0.1400 
     48 CB          4.8954  -11.3513  -46.7265 C.3       5 UNK        -0.1800 
     49 N           2.5716  -12.2022  -46.4874 N.am      5 UNK        -0.5000 
     50 C           2.1854  -12.6344  -47.6995 C.2       4 UNK         0.5000 
     51 O           2.9610  -13.0714  -48.5496 O.2       4 UNK        -0.5000 
     52 CA          0.6725  -12.6175  -48.0042 C.3       4 UNK         0.1400 
     53 CB          0.1551  -14.0476  -48.2383 C.3       4 UNK        -0.1800 
     54 N          -0.1079  -12.0118  -46.9229 N.am      4 UNK        -0.5000 
     55 C          -0.3824  -10.7047  -46.8108 C.2       3 UNK         0.5000 
     56 O          -0.0697   -9.8649  -47.6548 O.2       3 UNK        -0.5000 
     57 CA         -1.1060  -10.2565  -45.5242 C.3       3 UNK         0.1400 
     58 CB         -2.6223  -10.1836  -45.7592 C.3       3 UNK        -0.1800 
     59 N          -0.8433  -11.1282  -44.3746 N.am      3 UNK        -0.5000 
     60 C           0.3443  -11.2606  -43.7656 C.2       2 UNK         0.5000 
     61 O           1.3552  -10.6442  -44.0996 O.2       2 UNK        -0.5000 
     62 CA          0.4336  -12.3096  -42.6414 C.3       2 UNK         0.1400 
     63 CB          0.0642  -11.6923  -41.2854 C.3       2 UNK        -0.1800 
     64 N          -0.4132  -13.4800  -42.8880 N.am      2 UNK        -0.5000 
     65 C          -0.2442  -14.3474  -43.8957 C.2       1 UNK         0.5000 
     66 O           0.6932  -14.2669  -44.6947 O.2       1 UNK        -0.5000 
     67 C          -0.9010  -22.3856  -47.4992 C.2       11 UNK         0.5000 
     68 O          -0.9675  -22.9672  -48.5843 O.2       11 UNK        -0.5000 
     69 N          -1.9353  -21.7450  -46.9323 N.am      12 UNK        -0.5000 
     70 CA         -3.2788  -21.7040  -47.5062 C.3       12 UNK         0.1400 
     71 CB         -4.1216  -20.6105  -46.8370 C.3       12 UNK        -0.1800 
     72 C          -4.0000  -23.0516  -47.3825 C.2       12 UNK         0.5000 
     73 O          -4.6769  -23.4484  -48.3297 O.2       12 UNK        -0.5000 
     74 N          -3.8483  -23.7209  -46.2304 N.am      13 UNK        -0.5000 
     75 CA         -4.4822  -25.0064  -45.9269 C.3       13 UNK         0.1400 
     76 CB         -4.2714  -25.3511  -44.4456 C.3       13 UNK        -0.1800 
     77 C          -3.9830  -26.1485  -46.8305 C.2       13 UNK         0.5000 
     78 O          -4.7952  -26.9310  -47.3251 O.2       13 UNK        -0.5000 
     79 N          -2.6629  -26.2030  -47.0563 N.am      14 UNK        -0.5000 
     80 CA         -2.0275  -27.1105  -48.0144 C.3       14 UNK         0.1400 
     81 CB         -0.5265  -27.2016  -47.6976 C.3       14 UNK        -0.1800 
     82 C          -2.2310  -26.6624  -49.4747 C.2       14 UNK         0.5000 
     83 O          -2.1327  -27.4916  -50.3796 O.2       14 UNK        -0.5000 
     84 N          -2.4911  -25.3605  -49.6637 N.am      15 UNK        -0.5000 
     85 CA         -2.6215  -24.6336  -50.9261 C.3       15 UNK         0.1400 
     86 CB         -3.9007  -25.0497  -51.6790 C.3       15 UNK        -0.1800 
     87 C          -1.3433  -24.7371  -51.7740 C.2       15 UNK         0.5000 
     88 O          -1.4006  -25.0941  -52.9511 O.2       15 UNK        -0.5000 
     89 N          -0.2010  -24.4442  -51.1379 N.am      16 UNK        -0.5000 
     90 CA          1.1412  -24.6617  -51.6843 C.3       16 UNK         0.1400 
     91 CB          2.1790  -24.4124  -50.5818 C.3       16 UNK        -0.1800 
     92 C           1.4608  -23.8249  -52.9384 C.2       16 UNK         0.5000 
     93 O           2.2415  -24.2730  -53.7790 O.2       16 UNK        -0.5000 
     94 N           0.8394  -22.6437  -53.0567 N.am      17 UNK        -0.5000 
     95 CA          0.9377  -21.7780  -54.2347 C.3       17 UNK         0.1400 
     96 CB          0.6826  -20.3252  -53.8076 C.3       17 UNK        -0.1800 
     97 C          -0.0351  -22.1820  -55.3619 C.2       17 UNK         0.5000 
     98 O           0.1254  -21.7044  -56.4854 O.2       17 UNK        -0.5000 
     99 N          -1.0304  -23.0264  -55.0431 N.am      18 UNK        -0.5000 
    100 CA        -2.1060  -23.5215  -55.9126 C.3       18 UNK         0.1400 
    101 CB        -1.5341  -24.4572  -56.9977 C.3       18 UNK        -0.1800 
    102 C         -3.0085  -22.4099  -56.4960 C.2       18 UNK         0.5000 
    103 O         -3.6022  -22.5941  -57.5606 O.2       18 UNK        -0.5000 
    104 N         -3.0951  -21.2739  -55.7938 N.am      19 UNK        -0.5000 
    105 CA        -3.8852  -20.1102  -56.1828 C.3       19 UNK         0.1400 
    106 CB        -3.1947  -18.8498  -55.6377 C.3       19 UNK        -0.1800 
    107 C         -5.3157  -20.2065  -55.6312 C.2       19 UNK         0.5000 
    108 O         -5.5470  -20.8624  -54.6132 O.2       19 UNK        -0.5000 
    109 N         -6.2425  -19.4768  -56.2655 N.am      20 UNK        -0.5000 
    110 CA        -7.6373  -19.3347  -55.8287 C.3       20 UNK         0.1400 
    111 CB        -8.4340  -18.6222  -56.9326 C.3       20 UNK        -0.1800 
    112 C         -7.7924  -18.5918  -54.4835 C.2       20 UNK         0.5000 
    113 O         -8.8278  -18.7250  -53.8312 O.2       20 UNK        -0.5000 
    114 N         -6.7577  -17.8355  -54.0915 N.am      21 UNK        -0.5000 
    115 CA        -6.6450  -17.1459  -52.8073 C.3       21 UNK         0.1400 
    116 CB        -5.5511  -16.0724  -52.9286 C.3       21 UNK        -0.1800 
    117 C         -6.3397  -18.0866  -51.6226 C.2       21 UNK         0.5000 
    118 O         -6.4786  -17.6584  -50.4758 O.2       21 UNK        -0.5000 
    119 N         -5.8988  -19.3232  -51.9001 N.am      22 UNK        -0.5000 
    120 CA        -5.6064  -20.3465  -50.8842 C.3       22 UNK         0.1400 
    121 C         -6.9145  -20.9784  -50.2996 C.2       22 UNK         0.5000 
    122 N         -6.8252  -21.9621  -49.4142 N.am      22 UNK        -0.7600 
    123 O         -8.0337  -20.5995  -50.6391 O.2       22 UNK        -0.5000 
    124 C124       -4.6335  -21.4330  -51.4206 C.3       23 UNK        -0.0398 
    125 S125       -2.9694  -20.9730  -52.0577 S.3       23 UNK        -0.2404 
    126 C126       -2.6379  -19.2143  -51.6894 C.3       23 UNK        -0.0205 
    127 H127       -2.2666  -16.9307  -40.4191 H         1 UNK         0.0600 
    128 H128       -4.0052  -16.9498  -40.7251 H         1 UNK         0.0600 
    129 H129       -3.2483  -15.5161  -40.0231 H         1 UNK         0.0600 
    130 H130       -0.9704  -16.3938  -42.1370 H         1 UNK         0.3000 
    131 H131       -2.1301  -15.0196  -44.5360 H         1 UNK         0.0600 
    132 H132       -0.0266  -17.2311  -44.3865 H         1 UNK         0.0800 
    133 H133       -0.3224  -16.2795  -45.8165 H         1 UNK         0.0800 
    134 H134       -3.6079  -17.2063  -47.2034 H         1 UNK         0.0800 
    135 H135       -2.2629  -16.1036  -47.1652 H         1 UNK         0.0800 
    136 H136       -3.5718  -17.9956  -49.4333 H         1 UNK         0.1150 
    137 H137       -0.0717  -19.8638  -51.0532 H         1 UNK         0.1150 
    138 H138        0.0878  -18.0313  -47.1976 H         1 UNK         0.1150 
    139 H139        2.1153  -19.1133  -49.9632 H         1 UNK         0.0800 
    140 H140        2.1262  -18.6744  -48.2793 H         1 UNK         0.0800 
    141 H141        0.7312  -20.2869  -46.6054 H         1 UNK         0.0800 
    142 H142        2.1344  -21.2201  -46.1895 H         1 UNK         0.0800 
    143 H143        0.9788  -23.3000  -47.0684 H         1 UNK         0.0600 
    144 H144        0.3648  -21.9631  -44.6249 H         1 UNK         0.3000 
    145 H145       -1.5181  -24.5603  -43.1191 H         1 UNK         0.0600 
    146 H146        0.3321  -24.6321  -41.4727 H         1 UNK         0.0600 
    147 H147        0.7907  -25.4968  -42.9305 H         1 UNK         0.0600 
    148 H148        1.4317  -23.8856  -42.6331 H         1 UNK         0.0600 
    149 H149       -0.3663  -22.2828  -41.9591 H         1 UNK         0.3000 
    150 H150       -2.2521  -19.6760  -43.1999 H         1 UNK         0.0600 
    151 H151       -2.9627  -21.0448  -40.5508 H         1 UNK         0.0600 
    152 H152       -4.1053  -20.5931  -41.8107 H         1 UNK         0.0600 
    153 H153       -3.2311  -19.3456  -40.9385 H         1 UNK         0.0600 
    154 H154       -0.7654  -19.9188  -40.7837 H         1 UNK         0.3000 
    155 H155        1.3351  -19.5534  -40.5162 H         1 UNK         0.0600 
    156 H156        3.0759  -20.5637  -42.8271 H         1 UNK         0.0600 
    157 H157        2.3075  -21.5832  -41.6153 H         1 UNK         0.0600 
    158 H158        3.5540  -20.4427  -41.1350 H         1 UNK         0.0600 
    159 H159        3.1223  -18.1693  -42.2594 H         1 UNK         0.3000 
    160 H160        1.7912  -14.9087  -41.6437 H         1 UNK         0.0600 
    161 H161        4.3560  -16.4186  -40.9394 H         1 UNK         0.0600 
    162 H162        3.2893  -15.5914  -39.8166 H         1 UNK         0.0600 
    163 H163        4.1713  -14.6683  -41.0231 H         1 UNK         0.0600 
    164 H164        2.3786  -14.9390  -43.7583 H         1 UNK         0.3000 
    165 H165        4.9669  -16.2427  -45.6684 H         1 UNK         0.0600 
    166 H166        3.1750  -16.7327  -47.3218 H         1 UNK         0.0600 
    167 H167        3.2615  -17.9985  -46.1025 H         1 UNK         0.0600 
    168 H168        1.9761  -16.8002  -46.0326 H         1 UNK         0.0600 
    169 H169        2.6282  -14.4365  -45.8732 H         1 UNK         0.3000 
    170 H170        3.8175  -11.7443  -44.9240 H         1 UNK         0.0600 
    171 H171        5.8403  -11.2183  -46.1984 H         1 UNK         0.0600 
    172 H172        5.1250  -11.8032  -47.6916 H         1 UNK         0.0600 
    173 H173        4.4854  -10.3579  -46.9085 H         1 UNK         0.0600 
    174 H174        1.8536  -11.8448  -45.8703 H         1 UNK         0.3000 
    175 H175        0.5272  -12.0480  -48.9245 H         1 UNK         0.0600 
    176 H176        0.3405  -14.6883  -47.3772 H         1 UNK         0.0600 
    177 H177       -0.9161  -14.0550  -48.4401 H         1 UNK         0.0600 
    178 H178        0.6481  -14.5073  -49.0958 H         1 UNK         0.0600 
    179 H179       -0.3775  -12.6274  -46.1696 H         1 UNK         0.3000 
    180 H180       -0.7485   -9.2544  -45.2779 H         1 UNK         0.0600 
    181 H181       -3.0420  -11.1635  -45.9905 H         1 UNK         0.0600 
    182 H182       -2.8570   -9.5208  -46.5933 H         1 UNK         0.0600 
    183 H183       -3.1395   -9.7944  -44.8820 H         1 UNK         0.0600 
    184 H184       -1.6212  -11.6730  -44.0326 H         1 UNK         0.3000 
    185 H185        1.4714  -12.6455  -42.5910 H         1 UNK         0.0600 
    186 H186        0.6935  -10.8288  -41.0650 H         1 UNK         0.0600 
    187 H187       -0.9734  -11.3569  -41.2635 H         1 UNK         0.0600 
    188 H188        0.2030  -12.4090  -40.4757 H         1 UNK         0.0600 
    189 H189       -1.1941  -13.6184  -42.2626 H         1 UNK         0.3000 
    190 H190       -1.8232  -21.3400  -46.0138 H         1 UNK         0.3000 
    191 H191       -3.1898  -21.4607  -48.5674 H         1 UNK         0.0600 
    192 H192       -3.7001  -19.6284  -47.0192 H         1 UNK         0.0600 
    193 H193       -5.1371  -20.5974  -47.2351 H         1 UNK         0.0600 
    194 H194       -4.1941  -20.7486  -45.7583 H         1 UNK         0.0600 
    195 H195       -3.3182  -23.2820  -45.4843 H         1 UNK         0.3000 
    196 H196       -5.5546  -24.8904  -46.0970 H         1 UNK         0.0600 
    197 H197       -4.8485  -26.2340  -44.1682 H         1 UNK         0.0600 
    198 H198       -4.5899  -24.5350  -43.7966 H         1 UNK         0.0600 
    199 H199       -3.2260  -25.5671  -44.2302 H         1 UNK         0.0600 
    200 H200       -2.0457  -25.5624  -46.5620 H         1 UNK         0.3000 
    201 H201       -2.4645  -28.1049  -47.9023 H         1 UNK         0.0600 
    202 H202       -0.0280  -27.9071  -48.3633 H         1 UNK         0.0600 
    203 H203       -0.3585  -27.5426  -46.6759 H         1 UNK         0.0600 
    204 H204       -0.0327  -26.2356  -47.8136 H         1 UNK         0.0600 
    205 H205       -2.5235  -24.7776  -48.8389 H         1 UNK         0.3000 
    206 H206       -2.7146  -23.5843  -50.6541 H         1 UNK         0.0600 
    207 H207       -4.7830  -24.9187  -51.0522 H         1 UNK         0.0600 
    208 H208       -4.0424  -24.4396  -52.5719 H         1 UNK         0.0600 
    209 H209       -3.8646  -26.0922  -51.9960 H         1 UNK         0.0600 
    210 H210       -0.2627  -24.1034  -50.1836 H         1 UNK         0.3000 
    211 H211        1.2051  -25.7126  -51.9741 H         1 UNK         0.0600 
    212 H212        2.1687  -23.3736  -50.2561 H         1 UNK         0.0600 
    213 H213        3.1866  -24.6349  -50.9353 H         1 UNK         0.0600 
    214 H214        1.9927  -25.0409  -49.7106 H         1 UNK         0.0600 
    215 H215        0.2186  -22.3494  -52.3168 H         1 UNK         0.3000 
    216 H216        1.9507  -21.8355  -54.6388 H         1 UNK         0.0600 
    217 H217        0.8081  -19.6424  -54.6489 H         1 UNK         0.0600 
    218 H218        1.3796  -20.0121  -53.0301 H         1 UNK         0.0600 
    219 H219       -0.3304  -20.1938  -53.4313 H         1 UNK         0.0600 
    220 H220       -1.0371  -23.4188  -54.1088 H         1 UNK         0.3000 
    221 H221       -2.7540  -24.1219  -55.2727 H         1 UNK         0.0600 
    222 H222       -0.9210  -23.9147  -57.7178 H         1 UNK         0.0600 
    223 H223       -0.9189  -25.2409  -56.5555 H         1 UNK         0.0600 
    224 H224       -2.3330  -24.9497  -57.5531 H         1 UNK         0.0600 
    225 H225       -2.6377  -21.2280  -54.8953 H         1 UNK         0.3000 
    226 H226       -3.9267  -20.0420  -57.2720 H         1 UNK         0.0600 
    227 H227       -2.1588  -18.7906  -55.9729 H         1 UNK         0.0600 
    228 H228       -3.6977  -17.9454  -55.9817 H         1 UNK         0.0600 
    229 H229       -3.1956  -18.8303  -54.5483 H         1 UNK         0.0600 
    230 H230       -5.9776  -18.9559  -57.0895 H         1 UNK         0.3000 
    231 H231       -8.0533  -20.3357  -55.6968 H         1 UNK         0.0600 
    232 H232       -8.0515  -17.6182  -57.1208 H         1 UNK         0.0600 
    233 H233       -9.4851  -18.5264  -56.6566 H         1 UNK         0.0600 
    234 H234       -8.3958  -19.1786  -57.8693 H         1 UNK         0.0600 
    235 H235       -5.9611  -17.7721  -54.7066 H         1 UNK         0.3000 
    236 H236       -7.5939  -16.6487  -52.5955 H         1 UNK         0.0600 
    237 H237       -5.7846  -15.3580  -53.7183 H         1 UNK         0.0600 
    238 H238       -5.4519  -15.5070  -52.0010 H         1 UNK         0.0600 
    239 H239       -4.5777  -16.5125  -53.1497 H         1 UNK         0.0600 
    240 H240       -5.8427  -19.6298  -52.8634 H         1 UNK         0.3000 
    241 H241       -5.1143  -19.8536  -50.0445 H         1 UNK         0.0600 
    242 H242       -7.6840  -22.3499  -49.0577 H         1 UNK         0.3800 
    243 H243       -5.9486  -22.3849  -49.1215 H         1 UNK         0.3800 
    244 H244       -4.4494  -22.1604  -50.6335 H         1 UNK         0.0800 
    245 H245       -5.1281  -21.9957  -52.2137 H         1 UNK         0.0800 
    246 H246       -1.9953  -18.8311  -52.4818 H         1 UNK         0.0800 
    247 H247       -3.5284  -18.5995  -51.7497 H         1 UNK         0.0800 
@<TRIPOS>BOND
     1    1    2 1    
     2    1  127 1    
     3    1  128 1    
     4    1  129 1    
     5    2    3 2    
     6    2    4 am   BACKBONE|DICT|INTERRES
     7    4    5 1    
     8    4  130 1    
     9    5    6 1    
    10    5   65 1    
    11    5  131 1    
    12    6    7 1    
    13    6  132 1    
    14    6  133 1    
    15    7    8 1    
    16    8    9 1    
    17    8  134 1    
    18    8  135 1    
    19    9   10 ar   
    20    9   14 ar   
    21   10   11 ar   
    22   10  136 1    
    23   11   12 ar   
    24   11  126 1    
    25   12   13 ar   
    26   12  137 1    
    27   13   14 ar   
    28   13   15 1    
    29   14  138 1    
    30   15   16 1    
    31   15  139 1    
    32   15  140 1    
    33   16   17 1    
    34   17   18 1    
    35   17  141 1    
    36   17  142 1    
    37   18   19 1    
    38   18   67 1    
    39   18  143 1    
    40   19   20 am   BACKBONE|DICT|INTERRES
    41   19  144 1    
    42   20   21 2    
    43   20   22 1    
    44   22   23 1    
    45   22   24 1    
    46   22  145 1    
    47   23  146 1    
    48   23  147 1    
    49   23  148 1    
    50   24   25 am   BACKBONE|DICT|INTERRES
    51   24  149 1    
    52   25   26 2    
    53   25   27 1    
    54   27   28 1    
    55   27   29 1    
    56   27  150 1    
    57   28  151 1    
    58   28  152 1    
    59   28  153 1    
    60   29   30 am   BACKBONE|DICT|INTERRES
    61   29  154 1    
    62   30   31 2    
    63   30   32 1    
    64   32   33 1    
    65   32   34 1    
    66   32  155 1    
    67   33  156 1    
    68   33  157 1    
    69   33  158 1    
    70   34   35 am   BACKBONE|DICT|INTERRES
    71   34  159 1    
    72   35   36 2    
    73   35   37 1    
    74   37   38 1    
    75   37   39 1    
    76   37  160 1    
    77   38  161 1    
    78   38  162 1    
    79   38  163 1    
    80   39   40 am   BACKBONE|DICT|INTERRES
    81   39  164 1    
    82   40   41 2    
    83   40   42 1    
    84   42   43 1    
    85   42   44 1    
    86   42  165 1    
    87   43  166 1    
    88   43  167 1    
    89   43  168 1    
    90   44   45 am   BACKBONE|DICT|INTERRES
    91   44  169 1    
    92   45   46 2    
    93   45   47 1    
    94   47   48 1    
    95   47   49 1    
    96   47  170 1    
    97   48  171 1    
    98   48  172 1    
    99   48  173 1    
   100   49   50 am   BACKBONE|DICT|INTERRES
   101   49  174 1    
   102   50   51 2    
   103   50   52 1    
   104   52   53 1    
   105   52   54 1    
   106   52  175 1    
   107   53  176 1    
   108   53  177 1    
   109   53  178 1    
   110   54   55 am   BACKBONE|DICT|INTERRES
   111   54  179 1    
   112   55   56 2    
   113   55   57 1    
   114   57   58 1    
   115   57   59 1    
   116   57  180 1    
   117   58  181 1    
   118   58  182 1    
   119   58  183 1    
   120   59   60 am   BACKBONE|DICT|INTERRES
   121   59  184 1    
   122   60   61 2    
   123   60   62 1    
   124   62   63 1    
   125   62   64 1    
   126   62  185 1    
   127   63  186 1    
   128   63  187 1    
   129   63  188 1    
   130   64   65 am   BACKBONE|DICT|INTERRES
   131   64  189 1    
   132   65   66 2    
   133   67   68 2    
   134   67   69 am   BACKBONE|DICT|INTERRES
   135   69   70 1    
   136   69  190 1    
   137   70   71 1    
   138   70   72 1    
   139   70  191 1    
   140   71  192 1    
   141   71  193 1    
   142   71  194 1    
   143   72   73 2    
   144   72   74 am   BACKBONE|DICT|INTERRES
   145   74   75 1    
   146   74  195 1    
   147   75   76 1    
   148   75   77 1    
   149   75  196 1    
   150   76  197 1    
   151   76  198 1    
   152   76  199 1    
   153   77   78 2    
   154   77   79 am   BACKBONE|DICT|INTERRES
   155   79   80 1    
   156   79  200 1    
   157   80   81 1    
   158   80   82 1    
   159   80  201 1    
   160   81  202 1    
   161   81  203 1    
   162   81  204 1    
   163   82   83 2    
   164   82   84 am   BACKBONE|DICT|INTERRES
   165   84   85 1    
   166   84  205 1    
   167   85   86 1    
   168   85   87 1    
   169   85  206 1    
   170   86  207 1    
   171   86  208 1    
   172   86  209 1    
   173   87   88 2    
   174   87   89 am   BACKBONE|DICT|INTERRES
   175   89   90 1    
   176   89  210 1    
   177   90   91 1    
   178   90   92 1    
   179   90  211 1    
   180   91  212 1    
   181   91  213 1    
   182   91  214 1    
   183   92   93 2    
   184   92   94 am   BACKBONE|DICT|INTERRES
   185   94   95 1    
   186   94  215 1    
   187   95   96 1    
   188   95   97 1    
   189   95  216 1    
   190   96  217 1    
   191   96  218 1    
   192   96  219 1    
   193   97   98 2    
   194   97   99 am   BACKBONE|DICT|INTERRES
   195   99  100 1    
   196   99  220 1    
   197  100  101 1    
   198  100  102 1    
   199  100  221 1    
   200  101  222 1    
   201  101  223 1    
   202  101  224 1    
   203  102  103 2    
   204  102  104 am   BACKBONE|DICT|INTERRES
   205  104  105 1    
   206  104  225 1    
   207  105  106 1    
   208  105  107 1    
   209  105  226 1    
   210  106  227 1    
   211  106  228 1    
   212  106  229 1    
   213  107  108 2    
   214  107  109 am   BACKBONE|DICT|INTERRES
   215  109  110 1    
   216  109  230 1    
   217  110  111 1    
   218  110  112 1    
   219  110  231 1    
   220  111  232 1    
   221  111  233 1    
   222  111  234 1    
   223  112  113 2    
   224  112  114 am   BACKBONE|DICT|INTERRES
   225  114  115 1    
   226  114  235 1    
   227  115  116 1    
   228  115  117 1    
   229  115  236 1    
   230  116  237 1    
   231  116  238 1    
   232  116  239 1    
   233  117  118 2    
   234  117  119 am   BACKBONE|DICT|INTERRES
   235  119  120 1    
   236  119  240 1    
   237  120  121 1    
   238  120  124 1    
   239  120  241 1    
   240  121  122 am   BACKBONE|DICT|INTERRES
   241  121  123 2    
   242  122  242 1    
   243  122  243 1    
   244  124  125 1    
   245  124  244 1    
   246  124  245 1    
   247  125  126 1    
   248  126  246 1    
   249  126  247 1    
@<TRIPOS>SUBSTRUCTURE
     1 UNK         1 GROUP             0       ****    0 ROOT    
