@<TRIPOS>MOLECULE
3R540
247   249    1
SMALL
USER_CHARGES


@<TRIPOS>ATOM
      1 CA         -2.3417  -12.0964  -45.5302 C.3       0 UNK        -0.1800 
      2 C          -1.4059  -11.6894  -46.6575 C.2       0 UNK         0.5000 
      3 O          -1.6132  -10.6429  -47.2731 O.2       0 UNK        -0.5000 
      4 N          -0.3926  -12.5170  -46.9410 N.am      1 UNK        -0.5000 
      5 CA          0.6075  -12.2700  -47.9819 C.3       1 UNK         0.1400 
      6 C6          1.0677  -13.5865  -48.6623 C.3       23 UNK        -0.0398 
      7 S7          2.1707  -14.6613  -47.6742 S.3       23 UNK        -0.2404 
      8 C8          3.2656  -15.3408  -48.9647 C.3       23 UNK        -0.0205 
      9 C9          2.6156  -16.4853  -49.7313 C.ar      23 UNK        -0.0193 
     10 C10         1.6426  -16.2287  -50.7011 C.ar      23 UNK        -0.1150 
     11 C11         1.0418  -17.2755  -51.4043 C.ar      23 UNK        -0.0193 
     12 C12         1.4388  -18.5917  -51.1541 C.ar      23 UNK        -0.1150 
     13 C13         2.4306  -18.8611  -50.2059 C.ar      23 UNK        -0.0193 
     14 C14         3.0068  -17.8057  -49.4912 C.ar      23 UNK        -0.1150 
     15 C15         2.9045  -20.2870  -49.9704 C.3       23 UNK        -0.0205 
     16 S16         2.3855  -20.9177  -48.3468 S.3       23 UNK        -0.2404 
     17 C17         0.5855  -21.0885  -48.5823 C.3       23 UNK        -0.0398 
     18 CA          0.0198  -22.2356  -47.7158 C.3       11 UNK         0.1400 
     19 N           0.0659  -21.9339  -46.2829 N.am      11 UNK        -0.5000 
     20 C          -0.1613  -22.8293  -45.3130 C.2       10 UNK         0.5000 
     21 O          -0.3945  -24.0193  -45.5231 O.2       10 UNK        -0.5000 
     22 CA         -0.1816  -22.3015  -43.8683 C.3       10 UNK         0.1400 
     23 CB          1.2451  -22.1433  -43.3223 C.3       10 UNK        -0.1800 
     24 N          -0.9106  -21.0385  -43.7426 N.am      10 UNK        -0.5000 
     25 C          -2.2212  -20.8968  -43.9888 C.2       9 UNK         0.5000 
     26 O          -2.9595  -21.8291  -44.3048 O.2       9 UNK        -0.5000 
     27 CA         -2.8026  -19.4742  -43.9089 C.3       9 UNK         0.1400 
     28 CB         -3.0705  -19.0763  -42.4502 C.3       9 UNK        -0.1800 
     29 N          -1.9496  -18.4719  -44.5475 N.am      9 UNK        -0.5000 
     30 C          -1.6391  -18.4535  -45.8522 C.2       8 UNK         0.5000 
     31 O          -2.0667  -19.2678  -46.6701 O.2       8 UNK        -0.5000 
     32 CA         -0.6409  -17.3740  -46.3107 C.3       8 UNK         0.1400 
     33 CB         -1.3396  -16.0157  -46.4592 C.3       8 UNK        -0.1800 
     34 N           0.5045  -17.2440  -45.4083 N.am      8 UNK        -0.5000 
     35 C           1.3593  -18.2394  -45.1298 C.2       7 UNK         0.5000 
     36 O           1.2876  -19.3645  -45.6209 O.2       7 UNK        -0.5000 
     37 CA          2.4264  -17.9526  -44.0628 C.3       7 UNK         0.1400 
     38 CB          3.5529  -17.0714  -44.6243 C.3       7 UNK        -0.1800 
     39 N           1.8405  -17.3297  -42.8757 N.am      7 UNK        -0.5000 
     40 C           0.9962  -17.9498  -42.0372 C.2       6 UNK         0.5000 
     41 O           0.6589  -19.1270  -42.1519 O.2       6 UNK        -0.5000 
     42 CA          0.3970  -17.1028  -40.8998 C.3       6 UNK         0.1400 
     43 CB          1.3374  -17.0877  -39.6857 C.3       6 UNK        -0.1800 
     44 N           0.1147  -15.7272  -41.3088 N.am      6 UNK        -0.5000 
     45 C          -0.7895  -15.3752  -42.2343 C.2       5 UNK         0.5000 
     46 O          -1.5246  -16.1734  -42.8138 O.2       5 UNK        -0.5000 
     47 CA         -0.8280  -13.8860  -42.6209 C.3       5 UNK         0.1400 
     48 CB         -1.7592  -13.0990  -41.6878 C.3       5 UNK        -0.1800 
     49 N           0.5058  -13.2793  -42.6167 N.am      5 UNK        -0.5000 
     50 C           1.4750  -13.6167  -43.4765 C.2       4 UNK         0.5000 
     51 O           1.3009  -14.3791  -44.4313 O.2       4 UNK        -0.5000 
     52 CA          2.8814  -13.0955  -43.1519 C.3       4 UNK         0.1400 
     53 CB          3.4823  -13.9337  -42.0007 C.3       4 UNK        -0.1800 
     54 N           3.7115  -13.1795  -44.3506 N.am      4 UNK        -0.5000 
     55 C           4.9806  -12.7676  -44.4687 C.2       3 UNK         0.5000 
     56 O           5.6289  -12.2518  -43.5574 O.2       3 UNK        -0.5000 
     57 CA          5.6271  -12.9286  -45.8553 C.3       3 UNK         0.1400 
     58 CB          5.7730  -14.4087  -46.2435 C.3       3 UNK        -0.1800 
     59 N           4.8648  -12.2114  -46.8765 N.am      3 UNK        -0.5000 
     60 C           4.8642  -10.8763  -47.0082 C.2       2 UNK         0.5000 
     61 O           5.5832  -10.1247  -46.3482 O.2       2 UNK        -0.5000 
     62 CA          3.9027  -10.2652  -48.0477 C.3       2 UNK         0.1400 
     63 CB          4.6451   -9.9857  -49.3637 C.3       2 UNK        -0.1800 
     64 N           2.7211  -11.0826  -48.3354 N.am      2 UNK        -0.5000 
     65 C           1.7697  -11.4034  -47.4470 C.2       1 UNK         0.5000 
     66 O           1.7973  -11.0506  -46.2646 O.2       1 UNK        -0.5000 
     67 C          -1.3943  -22.6450  -48.1709 C.2       11 UNK         0.5000 
     68 O          -1.5212  -23.6238  -48.9048 O.2       11 UNK        -0.5000 
     69 N          -2.4316  -21.9391  -47.6972 N.am      12 UNK        -0.5000 
     70 CA         -3.8352  -22.2802  -47.9405 C.3       12 UNK         0.1400 
     71 CB         -4.7467  -21.1660  -47.4073 C.3       12 UNK        -0.1800 
     72 C          -4.2243  -23.6445  -47.3434 C.2       12 UNK         0.5000 
     73 O          -4.8950  -24.4278  -48.0143 O.2       12 UNK        -0.5000 
     74 N          -3.7655  -23.9294  -46.1164 N.am      13 UNK        -0.5000 
     75 CA         -3.9487  -25.2159  -45.4428 C.3       13 UNK         0.1400 
     76 CB         -3.4671  -25.1190  -43.9877 C.3       13 UNK        -0.1800 
     77 C          -3.2525  -26.3737  -46.1813 C.2       13 UNK         0.5000 
     78 O          -3.8725  -27.4176  -46.3869 O.2       13 UNK        -0.5000 
     79 N          -2.0038  -26.1532  -46.6186 N.am      14 UNK        -0.5000 
     80 CA         -1.2238  -27.0921  -47.4311 C.3       14 UNK         0.1400 
     81 CB          0.2117  -26.5680  -47.5847 C.3       14 UNK        -0.1800 
     82 C          -1.8541  -27.3652  -48.8111 C.2       14 UNK         0.5000 
     83 O          -1.7820  -28.4921  -49.3018 O.2       14 UNK        -0.5000 
     84 N          -2.5006  -26.3432  -49.3864 N.am      15 UNK        -0.5000 
     85 CA         -3.2752  -26.4121  -50.6256 C.3       15 UNK         0.1400 
     86 CB         -3.3220  -25.0098  -51.2559 C.3       15 UNK        -0.1800 
     87 C          -4.6967  -26.9894  -50.4362 C.2       15 UNK         0.5000 
     88 O          -5.4635  -27.0014  -51.3985 O.2       15 UNK        -0.5000 
     89 N          -5.0350  -27.4497  -49.2214 N.am      16 UNK        -0.5000 
     90 CA         -6.3082  -28.0594  -48.8223 C.3       16 UNK         0.1400 
     91 CB         -6.5391  -29.3941  -49.5623 C.3       16 UNK        -0.1800 
     92 C          -7.4998  -27.0855  -48.9285 C.2       16 UNK         0.5000 
     93 O          -8.5649  -27.4548  -49.4257 O.2       16 UNK        -0.5000 
     94 N          -7.2817  -25.8529  -48.4500 N.am      17 UNK        -0.5000 
     95 CA         -8.2113  -24.7190  -48.3995 C.3       17 UNK         0.1400 
     96 CB         -9.5051  -25.0677  -47.6334 C.3       17 UNK        -0.1800 
     97 C          -8.4787  -24.0636  -49.7696 C.2       17 UNK         0.5000 
     98 O          -9.4057  -23.2594  -49.8862 O.2       17 UNK        -0.5000 
     99 N          -7.6481  -24.3770  -50.7727 N.am      18 UNK        -0.5000 
    100 CA        -7.6013  -23.6779  -52.0556 C.3       18 UNK         0.1400 
    101 CB        -6.9766  -24.6066  -53.1089 C.3       18 UNK        -0.1800 
    102 C         -6.8171  -22.3541  -51.9393 C.2       18 UNK         0.5000 
    103 O         -6.2242  -22.0636  -50.8971 O.2       18 UNK        -0.5000 
    104 N         -6.8183  -21.5767  -53.0296 N.am      19 UNK        -0.5000 
    105 CA        -6.2019  -20.2492  -53.1233 C.3       19 UNK         0.1400 
    106 CB        -6.6616  -19.5849  -54.4315 C.3       19 UNK        -0.1800 
    107 C         -4.6621  -20.2311  -53.0320 C.2       19 UNK         0.5000 
    108 O         -4.0967  -19.1544  -52.8520 O.2       19 UNK        -0.5000 
    109 N         -4.0084  -21.3932  -53.1947 N.am      20 UNK        -0.5000 
    110 CA        -2.5552  -21.6099  -53.0992 C.3       20 UNK         0.1400 
    111 CB        -2.0794  -21.4196  -51.6448 C.3       20 UNK        -0.1800 
    112 C         -1.7302  -20.7685  -54.0997 C.2       20 UNK         0.5000 
    113 O         -0.5832  -20.4204  -53.8168 O.2       20 UNK        -0.5000 
    114 N         -2.3489  -20.4512  -55.2470 N.am      21 UNK        -0.5000 
    115 CA        -1.8579  -19.5881  -56.3268 C.3       21 UNK         0.1400 
    116 CB        -0.5788  -20.1681  -56.9674 C.3       21 UNK        -0.1800 
    117 C         -1.7042  -18.1000  -55.9360 C.2       21 UNK         0.5000 
    118 O         -1.0618  -17.3506  -56.6743 O.2       21 UNK        -0.5000 
    119 N         -2.3036  -17.6783  -54.8133 N.am      22 UNK        -0.5000 
    120 CA        -2.3746  -16.2714  -54.3940 C.3       22 UNK         0.1400 
    121 C         -3.3523  -15.4486  -55.2805 C.2       22 UNK         0.5000 
    122 N         -3.0726  -14.1712  -55.5016 N.am      22 UNK        -0.7600 
    123 O         -4.3812  -15.9431  -55.7373 O.2       22 UNK        -0.5000 
    124 C124       -2.7638  -16.1303  -52.8981 C.3       23 UNK        -0.0398 
    125 S125       -1.6758  -16.9320  -51.6601 S.3       23 UNK        -0.2404 
    126 C126       -0.0304  -16.9723  -52.4364 C.3       23 UNK        -0.0205 
    127 H127       -2.4383  -13.1801  -45.4721 H         1 UNK         0.0600 
    128 H128       -3.3375  -11.6842  -45.6942 H         1 UNK         0.0600 
    129 H129       -1.9696  -11.7184  -44.5784 H         1 UNK         0.0600 
    130 H130       -0.2126  -13.3188  -46.3526 H         1 UNK         0.3000 
    131 H131        0.1342  -11.6768  -48.7675 H         1 UNK         0.0600 
    132 H132        0.1949  -14.1733  -48.9523 H         1 UNK         0.0800 
    133 H133        1.5671  -13.3377  -49.5988 H         1 UNK         0.0800 
    134 H134        3.5732  -14.5549  -49.6555 H         1 UNK         0.0800 
    135 H135        4.1817  -15.6927  -48.4894 H         1 UNK         0.0800 
    136 H136        1.3421  -15.2136  -50.9105 H         1 UNK         0.1150 
    137 H137        0.9804  -19.4016  -51.7051 H         1 UNK         0.1150 
    138 H138        3.7666  -18.0167  -48.7518 H         1 UNK         0.1150 
    139 H139        2.5473  -20.9551  -50.7558 H         1 UNK         0.0800 
    140 H140        3.9937  -20.3116  -50.0233 H         1 UNK         0.0800 
    141 H141        0.3953  -21.2780  -49.6397 H         1 UNK         0.0800 
    142 H142        0.1015  -20.1395  -48.3448 H         1 UNK         0.0800 
    143 H143        0.6534  -23.1108  -47.8761 H         1 UNK         0.0600 
    144 H144        0.3109  -20.9803  -46.0276 H         1 UNK         0.3000 
    145 H145       -0.6957  -23.0432  -43.2537 H         1 UNK         0.0600 
    146 H146        1.2341  -21.8638  -42.2688 H         1 UNK         0.0600 
    147 H147        1.8008  -23.0782  -43.4047 H         1 UNK         0.0600 
    148 H148        1.8034  -21.3801  -43.8648 H         1 UNK         0.0600 
    149 H149       -0.3711  -20.2310  -43.4463 H         1 UNK         0.3000 
    150 H150       -3.7576  -19.4780  -44.4381 H         1 UNK         0.0600 
    151 H151       -3.7236  -19.8003  -41.9614 H         1 UNK         0.0600 
    152 H152       -3.5601  -18.1042  -42.3904 H         1 UNK         0.0600 
    153 H153       -2.1481  -19.0225  -41.8718 H         1 UNK         0.0600 
    154 H154       -1.5910  -17.7335  -43.9484 H         1 UNK         0.3000 
    155 H155       -0.2567  -17.6681  -47.2900 H         1 UNK         0.0600 
    156 H156       -1.7104  -15.6439  -45.5041 H         1 UNK         0.0600 
    157 H157       -0.6578  -15.2737  -46.8675 H         1 UNK         0.0600 
    158 H158       -2.1888  -16.0850  -47.1401 H         1 UNK         0.0600 
    159 H159        0.6514  -16.3383  -44.9778 H         1 UNK         0.3000 
    160 H160        2.8643  -18.9071  -43.7629 H         1 UNK         0.0600 
    161 H161        3.1852  -16.0968  -44.9409 H         1 UNK         0.0600 
    162 H162        4.0151  -17.5404  -45.4939 H         1 UNK         0.0600 
    163 H163        4.3378  -16.9112  -43.8853 H         1 UNK         0.0600 
    164 H164        2.0265  -16.3492  -42.7377 H         1 UNK         0.3000 
    165 H165       -0.5447  -17.5661  -40.5985 H         1 UNK         0.0600 
    166 H166        0.8903  -16.5538  -38.8470 H         1 UNK         0.0600 
    167 H167        1.5518  -18.1020  -39.3463 H         1 UNK         0.0600 
    168 H168        2.2906  -16.6110  -39.9184 H         1 UNK         0.0600 
    169 H169        0.6655  -15.0026  -40.8745 H         1 UNK         0.3000 
    170 H170       -1.2245  -13.8306  -43.6336 H         1 UNK         0.0600 
    171 H171       -2.7656  -13.5199  -41.6971 H         1 UNK         0.0600 
    172 H172       -1.4057  -13.1148  -40.6562 H         1 UNK         0.0600 
    173 H173       -1.8410  -12.0574  -41.9988 H         1 UNK         0.0600 
    174 H174        0.7131  -12.6428  -41.8603 H         1 UNK         0.3000 
    175 H175        2.8047  -12.0486  -42.8526 H         1 UNK         0.0600 
    176 H176        3.6737  -14.9615  -42.3092 H         1 UNK         0.0600 
    177 H177        4.4230  -13.5159  -41.6441 H         1 UNK         0.0600 
    178 H178        2.8154  -13.9673  -41.1387 H         1 UNK         0.0600 
    179 H179        3.2295  -13.5697  -45.1514 H         1 UNK         0.3000 
    180 H180        6.6314  -12.5015  -45.8096 H         1 UNK         0.0600 
    181 H181        4.8099  -14.9123  -46.3027 H         1 UNK         0.0600 
    182 H182        6.3741  -14.9446  -45.5079 H         1 UNK         0.0600 
    183 H183        6.2682  -14.5164  -47.2085 H         1 UNK         0.0600 
    184 H184        4.2315  -12.7529  -47.4454 H         1 UNK         0.3000 
    185 H185        3.5542   -9.3121  -47.6442 H         1 UNK         0.0600 
    186 H186        5.5176   -9.3534  -49.1941 H         1 UNK         0.0600 
    187 H187        4.9940  -10.9070  -49.8321 H         1 UNK         0.0600 
    188 H188        4.0046   -9.4665  -50.0769 H         1 UNK         0.0600 
    189 H189        2.6277  -11.3962  -49.2902 H         1 UNK         0.3000 
    190 H190       -2.2539  -21.1105  -47.1351 H         1 UNK         0.3000 
    191 H191       -3.9834  -22.3422  -49.0199 H         1 UNK         0.0600 
    192 H192       -4.6377  -21.0339  -46.3308 H         1 UNK         0.0600 
    193 H193       -5.7946  -21.3920  -47.6092 H         1 UNK         0.0600 
    194 H194       -4.5220  -20.2129  -47.8864 H         1 UNK         0.0600 
    195 H195       -3.2659  -23.2107  -45.5993 H         1 UNK         0.3000 
    196 H196       -5.0193  -25.4307  -45.4281 H         1 UNK         0.0600 
    197 H197       -3.6173  -26.0631  -43.4629 H         1 UNK         0.0600 
    198 H198       -4.0171  -24.3522  -43.4419 H         1 UNK         0.0600 
    199 H199       -2.4067  -24.8747  -43.9274 H         1 UNK         0.0600 
    200 H200       -1.5448  -25.2804  -46.3689 H         1 UNK         0.3000 
    201 H201       -1.1836  -28.0415  -46.8933 H         1 UNK         0.0600 
    202 H202        0.6910  -26.4407  -46.6140 H         1 UNK         0.0600 
    203 H203        0.2356  -25.6065  -48.0980 H         1 UNK         0.0600 
    204 H204        0.8227  -27.2637  -48.1610 H         1 UNK         0.0600 
    205 H205       -2.4489  -25.4308  -48.9444 H         1 UNK         0.3000 
    206 H206       -2.7533  -27.0721  -51.3212 H         1 UNK         0.0600 
    207 H207       -2.3219  -24.5872  -51.3520 H         1 UNK         0.0600 
    208 H208       -3.7463  -25.0454  -52.2584 H         1 UNK         0.0600 
    209 H209       -3.9231  -24.3196  -50.6627 H         1 UNK         0.0600 
    210 H210       -4.3537  -27.3623  -48.4768 H         1 UNK         0.3000 
    211 H211       -6.2083  -28.2928  -47.7614 H         1 UNK         0.0600 
    212 H212       -6.7071  -29.2454  -50.6293 H         1 UNK         0.0600 
    213 H213       -7.4117  -29.9137  -49.1649 H         1 UNK         0.0600 
    214 H214       -5.6848  -30.0611  -49.4466 H         1 UNK         0.0600 
    215 H215       -6.3362  -25.6181  -48.1539 H         1 UNK         0.3000 
    216 H216       -7.6946  -23.9558  -47.8158 H         1 UNK         0.0600 
    217 H217      -10.0919  -24.1709  -47.4318 H         1 UNK         0.0600 
    218 H218       -9.2827  -25.5302  -46.6718 H         1 UNK         0.0600 
    219 H219      -10.1420  -25.7494  -48.1972 H         1 UNK         0.0600 
    220 H220       -6.9037  -25.0348  -50.5892 H         1 UNK         0.3000 
    221 H221       -8.6207  -23.4424  -52.3685 H         1 UNK         0.0600 
    222 H222       -5.9237  -24.7939  -52.9060 H         1 UNK         0.0600 
    223 H223       -7.4861  -25.5701  -53.1373 H         1 UNK         0.0600 
    224 H224       -7.0455  -24.1775  -54.1089 H         1 UNK         0.0600 
    225 H225       -7.3203  -21.8896  -53.8482 H         1 UNK         0.3000 
    226 H226       -6.5744  -19.6506  -52.2894 H         1 UNK         0.0600 
    227 H227       -7.7473  -19.4936  -54.4681 H         1 UNK         0.0600 
    228 H228       -6.2510  -18.5784  -54.5276 H         1 UNK         0.0600 
    229 H229       -6.3415  -20.1534  -55.3055 H         1 UNK         0.0600 
    230 H230       -4.5661  -22.2176  -53.3626 H         1 UNK         0.3000 
    231 H231       -2.3838  -22.6531  -53.3676 H         1 UNK         0.0600 
    232 H232       -1.0479  -21.7513  -51.5257 H         1 UNK         0.0600 
    233 H233       -2.6875  -22.0032  -50.9560 H         1 UNK         0.0600 
    234 H234       -2.1283  -20.3752  -51.3338 H         1 UNK         0.0600 
    235 H235       -3.2936  -20.7887  -55.3634 H         1 UNK         0.3000 
    236 H236       -2.6362  -19.6072  -57.0908 H         1 UNK         0.0600 
    237 H237       -0.3217  -19.6325  -57.8819 H         1 UNK         0.0600 
    238 H238        0.2793  -20.0967  -56.2987 H         1 UNK         0.0600 
    239 H239       -0.7110  -21.2164  -57.2348 H         1 UNK         0.0600 
    240 H240       -2.8254  -18.3347  -54.2426 H         1 UNK         0.3000 
    241 H241       -1.3854  -15.8350  -54.5350 H         1 UNK         0.0600 
    242 H242       -3.7059  -13.6229  -56.0633 H         1 UNK         0.3800 
    243 H243       -2.2387  -13.7377  -55.1357 H         1 UNK         0.3800 
    244 H244       -2.8063  -15.0732  -52.6300 H         1 UNK         0.0800 
    245 H245       -3.7741  -16.5108  -52.7391 H         1 UNK         0.0800 
    246 H246        0.1842  -16.0103  -52.9026 H         1 UNK         0.0800 
    247 H247       -0.0112  -17.7221  -53.2283 H         1 UNK         0.0800 
@<TRIPOS>BOND
     1    1    2 1    
     2    1  127 1    
     3    1  128 1    
     4    1  129 1    
     5    2    3 2    
     6    2    4 am   BACKBONE|DICT|INTERRES
     7    4    5 1    
     8    4  130 1    
     9    5    6 1    
    10    5   65 1    
    11    5  131 1    
    12    6    7 1    
    13    6  132 1    
    14    6  133 1    
    15    7    8 1    
    16    8    9 1    
    17    8  134 1    
    18    8  135 1    
    19    9   10 ar   
    20    9   14 ar   
    21   10   11 ar   
    22   10  136 1    
    23   11   12 ar   
    24   11  126 1    
    25   12   13 ar   
    26   12  137 1    
    27   13   14 ar   
    28   13   15 1    
    29   14  138 1    
    30   15   16 1    
    31   15  139 1    
    32   15  140 1    
    33   16   17 1    
    34   17   18 1    
    35   17  141 1    
    36   17  142 1    
    37   18   19 1    
    38   18   67 1    
    39   18  143 1    
    40   19   20 am   BACKBONE|DICT|INTERRES
    41   19  144 1    
    42   20   21 2    
    43   20   22 1    
    44   22   23 1    
    45   22   24 1    
    46   22  145 1    
    47   23  146 1    
    48   23  147 1    
    49   23  148 1    
    50   24   25 am   BACKBONE|DICT|INTERRES
    51   24  149 1    
    52   25   26 2    
    53   25   27 1    
    54   27   28 1    
    55   27   29 1    
    56   27  150 1    
    57   28  151 1    
    58   28  152 1    
    59   28  153 1    
    60   29   30 am   BACKBONE|DICT|INTERRES
    61   29  154 1    
    62   30   31 2    
    63   30   32 1    
    64   32   33 1    
    65   32   34 1    
    66   32  155 1    
    67   33  156 1    
    68   33  157 1    
    69   33  158 1    
    70   34   35 am   BACKBONE|DICT|INTERRES
    71   34  159 1    
    72   35   36 2    
    73   35   37 1    
    74   37   38 1    
    75   37   39 1    
    76   37  160 1    
    77   38  161 1    
    78   38  162 1    
    79   38  163 1    
    80   39   40 am   BACKBONE|DICT|INTERRES
    81   39  164 1    
    82   40   41 2    
    83   40   42 1    
    84   42   43 1    
    85   42   44 1    
    86   42  165 1    
    87   43  166 1    
    88   43  167 1    
    89   43  168 1    
    90   44   45 am   BACKBONE|DICT|INTERRES
    91   44  169 1    
    92   45   46 2    
    93   45   47 1    
    94   47   48 1    
    95   47   49 1    
    96   47  170 1    
    97   48  171 1    
    98   48  172 1    
    99   48  173 1    
   100   49   50 am   BACKBONE|DICT|INTERRES
   101   49  174 1    
   102   50   51 2    
   103   50   52 1    
   104   52   53 1    
   105   52   54 1    
   106   52  175 1    
   107   53  176 1    
   108   53  177 1    
   109   53  178 1    
   110   54   55 am   BACKBONE|DICT|INTERRES
   111   54  179 1    
   112   55   56 2    
   113   55   57 1    
   114   57   58 1    
   115   57   59 1    
   116   57  180 1    
   117   58  181 1    
   118   58  182 1    
   119   58  183 1    
   120   59   60 am   BACKBONE|DICT|INTERRES
   121   59  184 1    
   122   60   61 2    
   123   60   62 1    
   124   62   63 1    
   125   62   64 1    
   126   62  185 1    
   127   63  186 1    
   128   63  187 1    
   129   63  188 1    
   130   64   65 am   BACKBONE|DICT|INTERRES
   131   64  189 1    
   132   65   66 2    
   133   67   68 2    
   134   67   69 am   BACKBONE|DICT|INTERRES
   135   69   70 1    
   136   69  190 1    
   137   70   71 1    
   138   70   72 1    
   139   70  191 1    
   140   71  192 1    
   141   71  193 1    
   142   71  194 1    
   143   72   73 2    
   144   72   74 am   BACKBONE|DICT|INTERRES
   145   74   75 1    
   146   74  195 1    
   147   75   76 1    
   148   75   77 1    
   149   75  196 1    
   150   76  197 1    
   151   76  198 1    
   152   76  199 1    
   153   77   78 2    
   154   77   79 am   BACKBONE|DICT|INTERRES
   155   79   80 1    
   156   79  200 1    
   157   80   81 1    
   158   80   82 1    
   159   80  201 1    
   160   81  202 1    
   161   81  203 1    
   162   81  204 1    
   163   82   83 2    
   164   82   84 am   BACKBONE|DICT|INTERRES
   165   84   85 1    
   166   84  205 1    
   167   85   86 1    
   168   85   87 1    
   169   85  206 1    
   170   86  207 1    
   171   86  208 1    
   172   86  209 1    
   173   87   88 2    
   174   87   89 am   BACKBONE|DICT|INTERRES
   175   89   90 1    
   176   89  210 1    
   177   90   91 1    
   178   90   92 1    
   179   90  211 1    
   180   91  212 1    
   181   91  213 1    
   182   91  214 1    
   183   92   93 2    
   184   92   94 am   BACKBONE|DICT|INTERRES
   185   94   95 1    
   186   94  215 1    
   187   95   96 1    
   188   95   97 1    
   189   95  216 1    
   190   96  217 1    
   191   96  218 1    
   192   96  219 1    
   193   97   98 2    
   194   97   99 am   BACKBONE|DICT|INTERRES
   195   99  100 1    
   196   99  220 1    
   197  100  101 1    
   198  100  102 1    
   199  100  221 1    
   200  101  222 1    
   201  101  223 1    
   202  101  224 1    
   203  102  103 2    
   204  102  104 am   BACKBONE|DICT|INTERRES
   205  104  105 1    
   206  104  225 1    
   207  105  106 1    
   208  105  107 1    
   209  105  226 1    
   210  106  227 1    
   211  106  228 1    
   212  106  229 1    
   213  107  108 2    
   214  107  109 am   BACKBONE|DICT|INTERRES
   215  109  110 1    
   216  109  230 1    
   217  110  111 1    
   218  110  112 1    
   219  110  231 1    
   220  111  232 1    
   221  111  233 1    
   222  111  234 1    
   223  112  113 2    
   224  112  114 am   BACKBONE|DICT|INTERRES
   225  114  115 1    
   226  114  235 1    
   227  115  116 1    
   228  115  117 1    
   229  115  236 1    
   230  116  237 1    
   231  116  238 1    
   232  116  239 1    
   233  117  118 2    
   234  117  119 am   BACKBONE|DICT|INTERRES
   235  119  120 1    
   236  119  240 1    
   237  120  121 1    
   238  120  124 1    
   239  120  241 1    
   240  121  122 am   BACKBONE|DICT|INTERRES
   241  121  123 2    
   242  122  242 1    
   243  122  243 1    
   244  124  125 1    
   245  124  244 1    
   246  124  245 1    
   247  125  126 1    
   248  126  246 1    
   249  126  247 1    
@<TRIPOS>SUBSTRUCTURE
     1 UNK         1 GROUP             0       ****    0 ROOT    
