@<TRIPOS>MOLECULE
3R540
247   249    1
SMALL
USER_CHARGES


@<TRIPOS>ATOM
      1 CA          0.7213  -13.2802  -42.6864 C.3       0 UNK        -0.1800 
      2 C           0.1192  -11.9817  -43.2051 C.2       0 UNK         0.5000 
      3 O           0.1658  -10.9660  -42.5114 O.2       0 UNK        -0.5000 
      4 N          -0.4731  -12.0197  -44.4059 N.am      1 UNK        -0.5000 
      5 CA         -1.1958  -10.9004  -45.0196 C.3       1 UNK         0.1400 
      6 C6         -2.1622  -11.3616  -46.1414 C.3       23 UNK        -0.0398 
      7 S7         -1.3854  -12.4008  -47.4330 S.3       23 UNK        -0.2404 
      8 C8         -2.5138  -13.8245  -47.4611 C.3       23 UNK        -0.0205 
      9 C9         -2.0955  -14.8350  -48.5162 C.ar      23 UNK        -0.0193 
     10 C10        -2.5049  -14.6750  -49.8441 C.ar      23 UNK        -0.1150 
     11 C11        -2.1284  -15.6041  -50.8184 C.ar      23 UNK        -0.0193 
     12 C12        -1.3501  -16.7044  -50.4504 C.ar      23 UNK        -0.1150 
     13 C13        -0.9493  -16.8853  -49.1252 C.ar      23 UNK        -0.0193 
     14 C14        -1.3086  -15.9360  -48.1648 C.ar      23 UNK        -0.1150 
     15 C15        -0.1432  -18.1153  -48.7425 C.3       23 UNK        -0.0205 
     16 S16        -1.2432  -19.4854  -48.2704 S.3       23 UNK        -0.2404 
     17 C17        -0.1343  -20.9150  -48.5397 C.3       23 UNK        -0.0398 
     18 CA         -0.5422  -22.2180  -47.8052 C.3       11 UNK         0.1400 
     19 N          -0.5006  -22.0832  -46.3463 N.am      11 UNK        -0.5000 
     20 C          -0.5988  -23.1069  -45.4853 C.2       10 UNK         0.5000 
     21 O          -0.6953  -24.2836  -45.8331 O.2       10 UNK        -0.5000 
     22 CA         -0.6615  -22.7582  -43.9876 C.3       10 UNK         0.1400 
     23 CB          0.7418  -22.5057  -43.4177 C.3       10 UNK        -0.1800 
     24 N          -1.5190  -21.6048  -43.7157 N.am      10 UNK        -0.5000 
     25 C          -2.8367  -21.5512  -43.9471 C.2       9 UNK         0.5000 
     26 O          -3.4820  -22.5016  -44.3882 O.2       9 UNK        -0.5000 
     27 CA         -3.5552  -20.2088  -43.7008 C.3       9 UNK         0.1400 
     28 CB         -4.0076  -20.0714  -42.2348 C.3       9 UNK        -0.1800 
     29 N          -2.7950  -19.0377  -44.1612 N.am      9 UNK        -0.5000 
     30 C          -1.6587  -18.5303  -43.6651 C.2       8 UNK         0.5000 
     31 O          -1.1093  -18.9312  -42.6363 O.2       8 UNK        -0.5000 
     32 CA         -0.9998  -17.4199  -44.5024 C.3       8 UNK         0.1400 
     33 CB         -1.3871  -16.0280  -43.9834 C.3       8 UNK        -0.1800 
     34 N           0.4590  -17.5399  -44.5351 N.am      8 UNK        -0.5000 
     35 C           1.1316  -18.5983  -45.0055 C.2       7 UNK         0.5000 
     36 O           0.5778  -19.5810  -45.4996 O.2       7 UNK        -0.5000 
     37 CA          2.6720  -18.5461  -44.9238 C.3       7 UNK         0.1400 
     38 CB          3.3376  -19.7142  -45.6757 C.3       7 UNK        -0.1800 
     39 N           3.2283  -17.2902  -45.4340 N.am      7 UNK        -0.5000 
     40 C           3.2873  -16.1361  -44.7604 C.2       6 UNK         0.5000 
     41 O           2.7922  -15.9737  -43.6431 O.2       6 UNK        -0.5000 
     42 CA          3.9961  -14.9649  -45.4633 C.3       6 UNK         0.1400 
     43 CB          2.9776  -13.9423  -45.9938 C.3       6 UNK        -0.1800 
     44 N           4.9384  -14.3057  -44.5578 N.am      6 UNK        -0.5000 
     45 C           6.1058  -14.8450  -44.1707 C.2       5 UNK         0.5000 
     46 O           6.5171  -15.9295  -44.5867 O.2       5 UNK        -0.5000 
     47 CA          6.9845  -14.0551  -43.1771 C.3       5 UNK         0.1400 
     48 CB          8.1579  -13.3898  -43.9138 C.3       5 UNK        -0.1800 
     49 N           6.2590  -13.0258  -42.4363 N.am      5 UNK        -0.5000 
     50 C           5.3953  -13.2519  -41.4376 C.2       4 UNK         0.5000 
     51 O           5.1812  -14.3667  -40.9607 O.2       4 UNK        -0.5000 
     52 CA          4.6337  -12.0269  -40.8825 C.3       4 UNK         0.1400 
     53 CB          5.2253  -11.5947  -39.5318 C.3       4 UNK        -0.1800 
     54 N           4.6001  -10.8619  -41.7788 N.am      4 UNK        -0.5000 
     55 C           4.0689  -10.8546  -43.0075 C.2       3 UNK         0.5000 
     56 O           3.5911  -11.8555  -43.5480 O.2       3 UNK        -0.5000 
     57 CA          4.1316   -9.5366  -43.7889 C.3       3 UNK         0.1400 
     58 CB          5.5574   -9.2968  -44.3240 C.3       3 UNK        -0.1800 
     59 N           3.1842   -9.6626  -44.8868 N.am      3 UNK        -0.5000 
     60 C           2.7871   -8.7245  -45.7488 C.2       2 UNK         0.5000 
     61 O           3.1791   -7.5571  -45.7351 O.2       2 UNK        -0.5000 
     62 CA          1.7623   -9.1821  -46.8005 C.3       2 UNK         0.1400 
     63 CB          2.4710   -9.8375  -47.9962 C.3       2 UNK        -0.1800 
     64 N           0.7879  -10.1254  -46.2465 N.am      2 UNK        -0.5000 
     65 C          -0.2599   -9.7679  -45.4918 C.2       1 UNK         0.5000 
     66 O          -0.5050   -8.6037  -45.1710 O.2       1 UNK        -0.5000 
     67 C          -1.8936  -22.7755  -48.3024 C.2       11 UNK         0.5000 
     68 O          -1.9097  -23.6270  -49.1910 O.2       11 UNK        -0.5000 
     69 N          -2.9953  -22.3211  -47.6868 N.am      12 UNK        -0.5000 
     70 CA         -4.3529  -22.7850  -47.9642 C.3       12 UNK         0.1400 
     71 CB         -5.3751  -21.8412  -47.3150 C.3       12 UNK        -0.1800 
     72 C          -4.5673  -24.2370  -47.5142 C.2       12 UNK         0.5000 
     73 O          -5.1527  -25.0164  -48.2641 O.2       12 UNK        -0.5000 
     74 N          -4.0546  -24.5879  -46.3271 N.am      13 UNK        -0.5000 
     75 CA         -4.0684  -25.9478  -45.7886 C.3       13 UNK         0.1400 
     76 CB         -3.5537  -25.9373  -44.3415 C.3       13 UNK        -0.1800 
     77 C          -3.2632  -26.9326  -46.6561 C.2       13 UNK         0.5000 
     78 O          -3.7543  -28.0245  -46.9429 O.2       13 UNK        -0.5000 
     79 N          -2.0689  -26.5120  -47.0978 N.am      14 UNK        -0.5000 
     80 CA         -1.1948  -27.2704  -47.9958 C.3       14 UNK         0.1400 
     81 CB          0.1619  -26.5589  -48.1094 C.3       14 UNK        -0.1800 
     82 C          -1.8090  -27.4938  -49.3910 C.2       14 UNK         0.5000 
     83 O          -1.6707  -28.5829  -49.9488 O.2       14 UNK        -0.5000 
     84 N          -2.4964  -26.4711  -49.9161 N.am      15 UNK        -0.5000 
     85 CA         -3.2089  -26.5130  -51.1944 C.3       15 UNK         0.1400 
     86 CB         -3.4300  -25.0726  -51.6774 C.3       15 UNK        -0.1800 
     87 C          -4.5591  -27.2536  -51.1305 C.2       15 UNK         0.5000 
     88 O          -5.1525  -27.4920  -52.1812 O.2       15 UNK        -0.5000 
     89 N          -5.0459  -27.5605  -49.9187 N.am      16 UNK        -0.5000 
     90 CA         -6.3726  -28.1078  -49.6114 C.3       16 UNK         0.1400 
     91 CB         -6.5181  -29.5467  -50.1489 C.3       16 UNK        -0.1800 
     92 C          -7.5070  -27.1630  -50.0678 C.2       16 UNK         0.5000 
     93 O          -8.4933  -27.6054  -50.6589 O.2       16 UNK        -0.5000 
     94 N          -7.3135  -25.8648  -49.7934 N.am      17 UNK        -0.5000 
     95 CA         -8.1751  -24.7202  -50.1081 C.3       17 UNK         0.1400 
     96 CB         -9.5521  -24.8584  -49.4263 C.3       17 UNK        -0.1800 
     97 C          -8.2893  -24.3872  -51.6122 C.2       17 UNK         0.5000 
     98 O          -9.1421  -23.5792  -51.9855 O.2       17 UNK        -0.5000 
     99 N          -7.4299  -24.9800  -52.4521 N.am      18 UNK        -0.5000 
    100 CA        -7.3332  -24.6799  -53.8801 C.3       18 UNK         0.1400 
    101 CB        -6.6173  -25.8413  -54.5878 C.3       18 UNK        -0.1800 
    102 C         -6.5851  -23.3586  -54.1387 C.2       18 UNK         0.5000 
    103 O         -5.8389  -22.8805  -53.2794 O.2       18 UNK        -0.5000 
    104 N         -6.7423  -22.8307  -55.3610 N.am      19 UNK        -0.5000 
    105 CA        -6.0780  -21.6196  -55.8615 C.3       19 UNK         0.1400 
    106 CB        -6.6456  -21.2749  -57.2464 C.3       19 UNK        -0.1800 
    107 C         -4.5390  -21.7168  -55.9211 C.2       19 UNK         0.5000 
    108 O         -3.8673  -20.6849  -55.9637 O.2       19 UNK        -0.5000 
    109 N         -4.0046  -22.9460  -55.8683 N.am      20 UNK        -0.5000 
    110 CA        -2.5812  -23.2809  -55.7679 C.3       20 UNK         0.1400 
    111 CB        -2.4370  -24.8110  -55.7868 C.3       20 UNK        -0.1800 
    112 C         -1.8652  -22.6873  -54.5345 C.2       20 UNK         0.5000 
    113 O         -0.6359  -22.6188  -54.5345 O.2       20 UNK        -0.5000 
    114 N         -2.6327  -22.2484  -53.5245 N.am      21 UNK        -0.5000 
    115 CA        -2.1529  -21.4736  -52.3796 C.3       21 UNK         0.1400 
    116 CB        -3.3214  -21.2439  -51.4108 C.3       21 UNK        -0.1800 
    117 C         -1.5419  -20.1207  -52.7932 C.2       21 UNK         0.5000 
    118 O         -0.5179  -19.7252  -52.2358 O.2       21 UNK        -0.5000 
    119 N         -2.1756  -19.4573  -53.7694 N.am      22 UNK        -0.5000 
    120 CA        -1.7384  -18.1765  -54.3440 C.3       22 UNK         0.1400 
    121 C         -1.0539  -18.3500  -55.7264 C.2       22 UNK         0.5000 
    122 N         -1.4489  -19.3194  -56.5430 N.am      22 UNK        -0.7600 
    123 O         -0.1450  -17.5957  -56.0617 O.2       22 UNK        -0.5000 
    124 C124       -2.9056  -17.1612  -54.4506 C.3       23 UNK        -0.0398 
    125 S125       -3.6442  -16.7581  -52.8304 S.3       23 UNK        -0.2404 
    126 C126       -2.5403  -15.4200  -52.2710 C.3       23 UNK        -0.0205 
    127 H127        0.0853  -13.7011  -41.9081 H         1 UNK         0.0600 
    128 H128        0.8272  -14.0214  -43.4770 H         1 UNK         0.0600 
    129 H129        1.7064  -13.1045  -42.2568 H         1 UNK         0.0600 
    130 H130       -0.4688  -12.8756  -44.9406 H         1 UNK         0.3000 
    131 H131       -1.8222  -10.4647  -44.2376 H         1 UNK         0.0600 
    132 H132       -2.6324  -10.5026  -46.6236 H         1 UNK         0.0800 
    133 H133       -2.9827  -11.9176  -45.6862 H         1 UNK         0.0800 
    134 H134       -2.5376  -14.2932  -46.4762 H         1 UNK         0.0800 
    135 H135       -3.5289  -13.4796  -47.6645 H         1 UNK         0.0800 
    136 H136       -3.1084  -13.8208  -50.1179 H         1 UNK         0.1150 
    137 H137       -1.0682  -17.4308  -51.1981 H         1 UNK         0.1150 
    138 H138       -0.9824  -16.0557  -47.1436 H         1 UNK         0.1150 
    139 H139        0.4806  -18.4199  -49.5847 H         1 UNK         0.0800 
    140 H140        0.5343  -17.8889  -47.9184 H         1 UNK         0.0800 
    141 H141       -0.0678  -21.0951  -49.6142 H         1 UNK         0.0800 
    142 H142        0.8715  -20.6327  -48.2247 H         1 UNK         0.0800 
    143 H143        0.2084  -22.9681  -48.0634 H         1 UNK         0.0600 
    144 H144       -0.3531  -21.1428  -45.9856 H         1 UNK         0.3000 
    145 H145       -1.0878  -23.6179  -43.4668 H         1 UNK         0.0600 
    146 H146        1.2088  -21.6292  -43.8656 H         1 UNK         0.0600 
    147 H147        0.7059  -22.3500  -42.3394 H         1 UNK         0.0600 
    148 H148        1.3972  -23.3578  -43.6020 H         1 UNK         0.0600 
    149 H149       -1.0721  -20.7695  -43.3515 H         1 UNK         0.3000 
    150 H150       -4.4576  -20.2260  -44.3140 H         1 UNK         0.0600 
    151 H151       -4.6863  -20.8811  -41.9640 H         1 UNK         0.0600 
    152 H152       -4.5388  -19.1337  -42.0719 H         1 UNK         0.0600 
    153 H153       -3.1692  -20.1088  -41.5391 H         1 UNK         0.0600 
    154 H154       -3.1406  -18.6356  -45.0215 H         1 UNK         0.3000 
    155 H155       -1.3563  -17.5224  -45.5280 H         1 UNK         0.0600 
    156 H156       -0.9800  -15.2439  -44.6211 H         1 UNK         0.0600 
    157 H157       -1.0222  -15.8642  -42.9687 H         1 UNK         0.0600 
    158 H158       -2.4704  -15.9026  -43.9675 H         1 UNK         0.0600 
    159 H159        0.9982  -16.7998  -44.0999 H         1 UNK         0.3000 
    160 H160        2.9344  -18.6419  -43.8682 H         1 UNK         0.0600 
    161 H161        4.4225  -19.6822  -45.5738 H         1 UNK         0.0600 
    162 H162        3.0987  -19.6953  -46.7398 H         1 UNK         0.0600 
    163 H163        3.0072  -20.6763  -45.2826 H         1 UNK         0.0600 
    164 H164        3.6279  -17.3316  -46.3603 H         1 UNK         0.3000 
    165 H165        4.5581  -15.3500  -46.3170 H         1 UNK         0.0600 
    166 H166        2.3716  -13.5219  -45.1927 H         1 UNK         0.0600 
    167 H167        3.4759  -13.1170  -46.5025 H         1 UNK         0.0600 
    168 H168        2.2966  -14.4042  -46.7098 H         1 UNK         0.0600 
    169 H169        4.6214  -13.4395  -44.1338 H         1 UNK         0.3000 
    170 H170        7.3933  -14.7713  -42.4612 H         1 UNK         0.0600 
    171 H171        8.7499  -14.1288  -44.4555 H         1 UNK         0.0600 
    172 H172        7.8111  -12.6519  -44.6385 H         1 UNK         0.0600 
    173 H173        8.8284  -12.8874  -43.2163 H         1 UNK         0.0600 
    174 H174        6.3717  -12.0757  -42.7560 H         1 UNK         0.3000 
    175 H175        3.6016  -12.3425  -40.7170 H         1 UNK         0.0600 
    176 H176        6.2510  -11.2395  -39.6382 H         1 UNK         0.0600 
    177 H177        4.6369  -10.7959  -39.0799 H         1 UNK         0.0600 
    178 H178        5.2373  -12.4256  -38.8250 H         1 UNK         0.0600 
    179 H179        4.9929  -10.0068  -41.4118 H         1 UNK         0.3000 
    180 H180        3.8233   -8.7164  -43.1380 H         1 UNK         0.0600 
    181 H181        5.8740  -10.0982  -44.9931 H         1 UNK         0.0600 
    182 H182        6.2805   -9.2433  -43.5095 H         1 UNK         0.0600 
    183 H183        5.6278   -8.3578  -44.8725 H         1 UNK         0.0600 
    184 H184        2.7874  -10.5924  -44.9518 H         1 UNK         0.3000 
    185 H185        1.2332   -8.2980  -47.1630 H         1 UNK         0.0600 
    186 H186        3.1918   -9.1529  -48.4452 H         1 UNK         0.0600 
    187 H187        3.0122  -10.7378  -47.7023 H         1 UNK         0.0600 
    188 H188        1.7580  -10.1138  -48.7733 H         1 UNK         0.0600 
    189 H189        0.9031  -11.1001  -46.4826 H         1 UNK         0.3000 
    190 H190       -2.8838  -21.6390  -46.9523 H         1 UNK         0.3000 
    191 H191       -4.5102  -22.7527  -49.0424 H         1 UNK         0.0600 
    192 H192       -6.3934  -22.1474  -47.5580 H         1 UNK         0.0600 
    193 H193       -5.2494  -20.8191  -47.6728 H         1 UNK         0.0600 
    194 H194       -5.2887  -21.8304  -46.2289 H         1 UNK         0.0600 
    195 H195       -3.6355  -23.8699  -45.7430 H         1 UNK         0.3000 
    196 H196       -5.1060  -26.2881  -45.7761 H         1 UNK         0.0600 
    197 H197       -3.5888  -26.9373  -43.9076 H         1 UNK         0.0600 
    198 H198       -4.1619  -25.2872  -43.7122 H         1 UNK         0.0600 
    199 H199       -2.5225  -25.5892  -44.2814 H         1 UNK         0.0600 
    200 H200       -1.7171  -25.6145  -46.7743 H         1 UNK         0.3000 
    201 H201       -1.0274  -28.2515  -47.5469 H         1 UNK         0.0600 
    202 H202        0.6429  -26.4705  -47.1352 H         1 UNK         0.0600 
    203 H203        0.0561  -25.5550  -48.5219 H         1 UNK         0.0600 
    204 H204        0.8412  -27.1122  -48.7590 H         1 UNK         0.0600 
    205 H205       -2.5077  -25.5840  -49.4232 H         1 UNK         0.3000 
    206 H206       -2.5850  -27.0276  -51.9280 H         1 UNK         0.0600 
    207 H207       -2.4840  -24.5392  -51.7676 H         1 UNK         0.0600 
    208 H208       -3.9103  -25.0489  -52.6556 H         1 UNK         0.0600 
    209 H209       -4.0668  -24.5175  -50.9881 H         1 UNK         0.0600 
    210 H210       -4.4913  -27.2954  -49.1151 H         1 UNK         0.3000 
    211 H211       -6.4355  -28.1558  -48.5233 H         1 UNK         0.0600 
    212 H212       -6.5229  -29.5772  -51.2387 H         1 UNK         0.0600 
    213 H213       -7.4504  -29.9971  -49.8065 H         1 UNK         0.0600 
    214 H214       -5.7037  -30.1810  -49.7989 H         1 UNK         0.0600 
    215 H215       -6.4585  -25.6203  -49.2929 H         1 UNK         0.3000 
    216 H216       -7.6794  -23.8583  -49.6592 H         1 UNK         0.0600 
    217 H217      -10.1482  -25.6546  -49.8726 H         1 UNK         0.0600 
    218 H218      -10.1268  -23.9356  -49.5126 H         1 UNK         0.0600 
    219 H219       -9.4459  -25.0728  -48.3629 H         1 UNK         0.0600 
    220 H220       -6.7522  -25.6293  -52.0784 H         1 UNK         0.3000 
    221 H221       -8.3425  -24.5949  -54.2885 H         1 UNK         0.0600 
    222 H222       -5.5701  -25.9105  -54.2926 H         1 UNK         0.0600 
    223 H223       -7.0920  -26.7962  -54.3604 H         1 UNK         0.0600 
    224 H224       -6.6425  -25.7188  -55.6711 H         1 UNK         0.0600 
    225 H225       -7.3611  -23.2936  -56.0115 H         1 UNK         0.3000 
    226 H226       -6.3200  -20.8029  -55.1785 H         1 UNK         0.0600 
    227 H227       -7.7225  -21.1115  -57.2027 H         1 UNK         0.0600 
    228 H228       -6.1963  -20.3608  -57.6373 H         1 UNK         0.0600 
    229 H229       -6.4540  -22.0695  -57.9687 H         1 UNK         0.0600 
    230 H230       -4.6445  -23.7249  -55.8380 H         1 UNK         0.3000 
    231 H231       -2.0858  -22.8760  -56.6525 H         1 UNK         0.0600 
    232 H232       -2.9420  -25.2735  -54.9381 H         1 UNK         0.0600 
    233 H233       -1.3879  -25.1066  -55.7446 H         1 UNK         0.0600 
    234 H234       -2.8553  -25.2362  -56.6992 H         1 UNK         0.0600 
    235 H235       -3.6346  -22.3812  -53.5874 H         1 UNK         0.3000 
    236 H236       -1.3854  -22.0590  -51.8692 H         1 UNK         0.0600 
    237 H237       -3.7654  -22.1888  -51.1065 H         1 UNK         0.0600 
    238 H238       -2.9884  -20.7300  -50.5086 H         1 UNK         0.0600 
    239 H239       -4.1094  -20.6399  -51.8626 H         1 UNK         0.0600 
    240 H240       -2.9732  -19.8911  -54.2161 H         1 UNK         0.3000 
    241 H241       -0.9857  -17.7303  -53.6915 H         1 UNK         0.0600 
    242 H242       -2.2578  -19.8927  -56.3165 H         1 UNK         0.3800 
    243 H243       -0.9961  -19.4272  -57.4363 H         1 UNK         0.3800 
    244 H244       -2.5768  -16.2349  -54.9257 H         1 UNK         0.0800 
    245 H245       -3.6945  -17.5622  -55.0895 H         1 UNK         0.0800 
    246 H246       -1.6366  -15.3875  -52.8809 H         1 UNK         0.0800 
    247 H247       -3.0433  -14.4630  -52.4174 H         1 UNK         0.0800 
@<TRIPOS>BOND
     1    1    2 1    
     2    1  127 1    
     3    1  128 1    
     4    1  129 1    
     5    2    3 2    
     6    2    4 am   BACKBONE|DICT|INTERRES
     7    4    5 1    
     8    4  130 1    
     9    5    6 1    
    10    5   65 1    
    11    5  131 1    
    12    6    7 1    
    13    6  132 1    
    14    6  133 1    
    15    7    8 1    
    16    8    9 1    
    17    8  134 1    
    18    8  135 1    
    19    9   10 ar   
    20    9   14 ar   
    21   10   11 ar   
    22   10  136 1    
    23   11   12 ar   
    24   11  126 1    
    25   12   13 ar   
    26   12  137 1    
    27   13   14 ar   
    28   13   15 1    
    29   14  138 1    
    30   15   16 1    
    31   15  139 1    
    32   15  140 1    
    33   16   17 1    
    34   17   18 1    
    35   17  141 1    
    36   17  142 1    
    37   18   19 1    
    38   18   67 1    
    39   18  143 1    
    40   19   20 am   BACKBONE|DICT|INTERRES
    41   19  144 1    
    42   20   21 2    
    43   20   22 1    
    44   22   23 1    
    45   22   24 1    
    46   22  145 1    
    47   23  146 1    
    48   23  147 1    
    49   23  148 1    
    50   24   25 am   BACKBONE|DICT|INTERRES
    51   24  149 1    
    52   25   26 2    
    53   25   27 1    
    54   27   28 1    
    55   27   29 1    
    56   27  150 1    
    57   28  151 1    
    58   28  152 1    
    59   28  153 1    
    60   29   30 am   BACKBONE|DICT|INTERRES
    61   29  154 1    
    62   30   31 2    
    63   30   32 1    
    64   32   33 1    
    65   32   34 1    
    66   32  155 1    
    67   33  156 1    
    68   33  157 1    
    69   33  158 1    
    70   34   35 am   BACKBONE|DICT|INTERRES
    71   34  159 1    
    72   35   36 2    
    73   35   37 1    
    74   37   38 1    
    75   37   39 1    
    76   37  160 1    
    77   38  161 1    
    78   38  162 1    
    79   38  163 1    
    80   39   40 am   BACKBONE|DICT|INTERRES
    81   39  164 1    
    82   40   41 2    
    83   40   42 1    
    84   42   43 1    
    85   42   44 1    
    86   42  165 1    
    87   43  166 1    
    88   43  167 1    
    89   43  168 1    
    90   44   45 am   BACKBONE|DICT|INTERRES
    91   44  169 1    
    92   45   46 2    
    93   45   47 1    
    94   47   48 1    
    95   47   49 1    
    96   47  170 1    
    97   48  171 1    
    98   48  172 1    
    99   48  173 1    
   100   49   50 am   BACKBONE|DICT|INTERRES
   101   49  174 1    
   102   50   51 2    
   103   50   52 1    
   104   52   53 1    
   105   52   54 1    
   106   52  175 1    
   107   53  176 1    
   108   53  177 1    
   109   53  178 1    
   110   54   55 am   BACKBONE|DICT|INTERRES
   111   54  179 1    
   112   55   56 2    
   113   55   57 1    
   114   57   58 1    
   115   57   59 1    
   116   57  180 1    
   117   58  181 1    
   118   58  182 1    
   119   58  183 1    
   120   59   60 am   BACKBONE|DICT|INTERRES
   121   59  184 1    
   122   60   61 2    
   123   60   62 1    
   124   62   63 1    
   125   62   64 1    
   126   62  185 1    
   127   63  186 1    
   128   63  187 1    
   129   63  188 1    
   130   64   65 am   BACKBONE|DICT|INTERRES
   131   64  189 1    
   132   65   66 2    
   133   67   68 2    
   134   67   69 am   BACKBONE|DICT|INTERRES
   135   69   70 1    
   136   69  190 1    
   137   70   71 1    
   138   70   72 1    
   139   70  191 1    
   140   71  192 1    
   141   71  193 1    
   142   71  194 1    
   143   72   73 2    
   144   72   74 am   BACKBONE|DICT|INTERRES
   145   74   75 1    
   146   74  195 1    
   147   75   76 1    
   148   75   77 1    
   149   75  196 1    
   150   76  197 1    
   151   76  198 1    
   152   76  199 1    
   153   77   78 2    
   154   77   79 am   BACKBONE|DICT|INTERRES
   155   79   80 1    
   156   79  200 1    
   157   80   81 1    
   158   80   82 1    
   159   80  201 1    
   160   81  202 1    
   161   81  203 1    
   162   81  204 1    
   163   82   83 2    
   164   82   84 am   BACKBONE|DICT|INTERRES
   165   84   85 1    
   166   84  205 1    
   167   85   86 1    
   168   85   87 1    
   169   85  206 1    
   170   86  207 1    
   171   86  208 1    
   172   86  209 1    
   173   87   88 2    
   174   87   89 am   BACKBONE|DICT|INTERRES
   175   89   90 1    
   176   89  210 1    
   177   90   91 1    
   178   90   92 1    
   179   90  211 1    
   180   91  212 1    
   181   91  213 1    
   182   91  214 1    
   183   92   93 2    
   184   92   94 am   BACKBONE|DICT|INTERRES
   185   94   95 1    
   186   94  215 1    
   187   95   96 1    
   188   95   97 1    
   189   95  216 1    
   190   96  217 1    
   191   96  218 1    
   192   96  219 1    
   193   97   98 2    
   194   97   99 am   BACKBONE|DICT|INTERRES
   195   99  100 1    
   196   99  220 1    
   197  100  101 1    
   198  100  102 1    
   199  100  221 1    
   200  101  222 1    
   201  101  223 1    
   202  101  224 1    
   203  102  103 2    
   204  102  104 am   BACKBONE|DICT|INTERRES
   205  104  105 1    
   206  104  225 1    
   207  105  106 1    
   208  105  107 1    
   209  105  226 1    
   210  106  227 1    
   211  106  228 1    
   212  106  229 1    
   213  107  108 2    
   214  107  109 am   BACKBONE|DICT|INTERRES
   215  109  110 1    
   216  109  230 1    
   217  110  111 1    
   218  110  112 1    
   219  110  231 1    
   220  111  232 1    
   221  111  233 1    
   222  111  234 1    
   223  112  113 2    
   224  112  114 am   BACKBONE|DICT|INTERRES
   225  114  115 1    
   226  114  235 1    
   227  115  116 1    
   228  115  117 1    
   229  115  236 1    
   230  116  237 1    
   231  116  238 1    
   232  116  239 1    
   233  117  118 2    
   234  117  119 am   BACKBONE|DICT|INTERRES
   235  119  120 1    
   236  119  240 1    
   237  120  121 1    
   238  120  124 1    
   239  120  241 1    
   240  121  122 am   BACKBONE|DICT|INTERRES
   241  121  123 2    
   242  122  242 1    
   243  122  243 1    
   244  124  125 1    
   245  124  244 1    
   246  124  245 1    
   247  125  126 1    
   248  126  246 1    
   249  126  247 1    
@<TRIPOS>SUBSTRUCTURE
     1 UNK         1 GROUP             0       ****    0 ROOT    
