@<TRIPOS>MOLECULE
3R540
247   249    1
SMALL
USER_CHARGES


@<TRIPOS>ATOM
      1 CA         -1.1018   -7.4501  -47.8462 C.3       0 UNK        -0.1800 
      2 C          -0.2603   -8.7091  -47.9999 C.2       0 UNK         0.5000 
      3 O           0.9675   -8.6269  -48.0267 O.2       0 UNK        -0.5000 
      4 N          -0.9143   -9.8736  -48.0940 N.am      1 UNK        -0.5000 
      5 CA         -0.2739  -11.1852  -48.2662 C.3       1 UNK         0.1400 
      6 C6         -1.2598  -12.2490  -48.8104 C.3       23 UNK        -0.0398 
      7 S7         -2.0288  -11.8172  -50.4072 S.3       23 UNK        -0.2404 
      8 C8         -3.2372  -13.1739  -50.5853 C.3       23 UNK        -0.0205 
      9 C9         -2.5569  -14.5193  -50.8006 C.ar      23 UNK        -0.0193 
     10 C10        -2.2189  -14.9413  -52.0903 C.ar      23 UNK        -0.1150 
     11 C11        -1.5538  -16.1553  -52.2876 C.ar      23 UNK        -0.0193 
     12 C12        -1.2208  -16.9449  -51.1832 C.ar      23 UNK        -0.1150 
     13 C13        -1.5619  -16.5390  -49.8904 C.ar      23 UNK        -0.0193 
     14 C14        -2.2451  -15.3342  -49.7075 C.ar      23 UNK        -0.1150 
     15 C15        -1.1407  -17.3663  -48.6867 C.3       23 UNK        -0.0205 
     16 S16        -2.4523  -18.4924  -48.1254 S.3       23 UNK        -0.2404 
     17 C17        -1.6379  -19.2265  -46.6684 C.3       23 UNK        -0.0398 
     18 CA         -1.3667  -20.7429  -46.8155 C.3       11 UNK         0.1400 
     19 N          -0.2052  -21.1690  -46.0331 N.am      11 UNK        -0.5000 
     20 C           0.4082  -22.3533  -46.1703 C.2       10 UNK         0.5000 
     21 O           0.1102  -23.1783  -47.0332 O.2       10 UNK        -0.5000 
     22 CA          1.5113  -22.6960  -45.1519 C.3       10 UNK         0.1400 
     23 CB          2.8973  -22.3472  -45.7148 C.3       10 UNK        -0.1800 
     24 N           1.3252  -22.0355  -43.8581 N.am      10 UNK        -0.5000 
     25 C           0.3339  -22.3181  -43.0002 C.2       9 UNK         0.5000 
     26 O          -0.5387  -23.1576  -43.2293 O.2       9 UNK        -0.5000 
     27 CA          0.2732  -21.5201  -41.6787 C.3       9 UNK         0.1400 
     28 CB          1.5708  -20.7529  -41.3442 C.3       9 UNK        -0.1800 
     29 N          -0.8734  -20.6058  -41.6112 N.am      9 UNK        -0.5000 
     30 C          -1.2205  -19.6824  -42.5192 C.2       8 UNK         0.5000 
     31 O          -0.6706  -19.5602  -43.6145 O.2       8 UNK        -0.5000 
     32 CA         -2.3845  -18.7292  -42.1790 C.3       8 UNK         0.1400 
     33 CB         -3.0126  -18.9327  -40.7812 C.3       8 UNK        -0.1800 
     34 N          -1.9625  -17.3435  -42.3978 N.am      8 UNK        -0.5000 
     35 C          -1.0160  -16.6725  -41.7260 C.2       7 UNK         0.5000 
     36 O          -0.4922  -17.0660  -40.6822 O.2       7 UNK        -0.5000 
     37 CA         -0.5181  -15.3770  -42.3957 C.3       7 UNK         0.1400 
     38 CB          0.0863  -14.3856  -41.3859 C.3       7 UNK        -0.1800 
     39 N           0.4995  -15.7075  -43.3891 N.am      7 UNK        -0.5000 
     40 C           0.2762  -16.2948  -44.5714 C.2       6 UNK         0.5000 
     41 O          -0.8516  -16.4726  -45.0323 O.2       6 UNK        -0.5000 
     42 CA          1.5031  -16.7743  -45.3676 C.3       6 UNK         0.1400 
     43 CB          1.8638  -15.7657  -46.4638 C.3       6 UNK        -0.1800 
     44 N           2.6814  -16.9762  -44.5232 N.am      6 UNK        -0.5000 
     45 C           3.1468  -18.1673  -44.1263 C.2       5 UNK         0.5000 
     46 O           2.5867  -19.2352  -44.3746 O.2       5 UNK        -0.5000 
     47 CA          4.4800  -18.1904  -43.3517 C.3       5 UNK         0.1400 
     48 CB          5.5759  -18.8454  -44.2080 C.3       5 UNK        -0.1800 
     49 N           4.9380  -16.8550  -42.9543 N.am      5 UNK        -0.5000 
     50 C           4.7528  -16.3204  -41.7403 C.2       4 UNK         0.5000 
     51 O           4.1972  -16.9080  -40.8118 O.2       4 UNK        -0.5000 
     52 CA          5.2571  -14.8764  -41.5235 C.3       4 UNK         0.1400 
     53 CB          6.7152  -14.8894  -41.0392 C.3       4 UNK        -0.1800 
     54 N           5.1448  -13.9731  -42.6789 N.am      4 UNK        -0.5000 
     55 C           4.0229  -13.7342  -43.3699 C.2       3 UNK         0.5000 
     56 O           2.9864  -14.3820  -43.2137 O.2       3 UNK        -0.5000 
     57 CA          4.0708  -12.6137  -44.4299 C.3       3 UNK         0.1400 
     58 CB          4.8385  -13.0764  -45.6783 C.3       3 UNK        -0.1800 
     59 N           2.7160  -12.2223  -44.8252 N.am      3 UNK        -0.5000 
     60 C           1.8663  -11.5257  -44.0629 C.2       2 UNK         0.5000 
     61 O           2.2196  -10.8976  -43.0626 O.2       2 UNK        -0.5000 
     62 CA          0.3721  -11.5805  -44.4610 C.3       2 UNK         0.1400 
     63 CB         -0.5311  -10.8188  -43.4734 C.3       2 UNK        -0.1800 
     64 N           0.0661  -11.1114  -45.8155 N.am      2 UNK        -0.5000 
     65 C           0.3707  -11.7241  -46.9683 C.2       1 UNK         0.5000 
     66 O           1.0901  -12.7193  -47.0349 O.2       1 UNK        -0.5000 
     67 C          -2.6044  -21.5694  -46.4256 C.2       11 UNK         0.5000 
     68 O          -3.2957  -22.0855  -47.3030 O.2       11 UNK        -0.5000 
     69 N          -2.8316  -21.7171  -45.1116 N.am      12 UNK        -0.5000 
     70 CA         -3.9362  -22.4848  -44.5333 C.3       12 UNK         0.1400 
     71 CB         -4.0063  -22.2397  -43.0190 C.3       12 UNK        -0.1800 
     72 C          -3.8369  -23.9867  -44.8472 C.2       12 UNK         0.5000 
     73 O          -4.8455  -24.5991  -45.1983 O.2       12 UNK        -0.5000 
     74 N          -2.6139  -24.5331  -44.7904 N.am      13 UNK        -0.5000 
     75 CA         -2.2891  -25.9078  -45.1835 C.3       13 UNK         0.1400 
     76 CB         -0.8181  -26.1916  -44.8457 C.3       13 UNK        -0.1800 
     77 C          -2.5662  -26.2056  -46.6724 C.2       13 UNK         0.5000 
     78 O          -2.8619  -27.3499  -47.0169 O.2       13 UNK        -0.5000 
     79 N          -2.4984  -25.1675  -47.5155 N.am      14 UNK        -0.5000 
     80 CA         -2.8166  -25.2004  -48.9416 C.3       14 UNK         0.1400 
     81 CB         -1.7716  -24.3583  -49.6918 C.3       14 UNK        -0.1800 
     82 C          -4.2565  -24.7258  -49.2364 C.2       14 UNK         0.5000 
     83 O          -4.5540  -24.4035  -50.3875 O.2       14 UNK        -0.5000 
     84 N          -5.1228  -24.6838  -48.2111 N.am      15 UNK        -0.5000 
     85 CA         -6.5419  -24.3116  -48.2605 C.3       15 UNK         0.1400 
     86 CB         -7.3418  -25.3300  -49.1016 C.3       15 UNK        -0.1800 
     87 C          -6.7571  -22.8534  -48.7140 C.2       15 UNK         0.5000 
     88 O          -7.5304  -22.5978  -49.6363 O.2       15 UNK        -0.5000 
     89 N          -6.0255  -21.9274  -48.0782 N.am      16 UNK        -0.5000 
     90 CA         -5.9045  -20.5037  -48.4233 C.3       16 UNK         0.1400 
     91 CB         -7.2497  -19.7642  -48.2676 C.3       16 UNK        -0.1800 
     92 C          -5.2516  -20.3164  -49.8089 C.2       16 UNK         0.5000 
     93 O          -5.6854  -19.4776  -50.5996 O.2       16 UNK        -0.5000 
     94 N          -4.2399  -21.1569  -50.0726 N.am      17 UNK        -0.5000 
     95 CA         -3.4778  -21.3076  -51.3155 C.3       17 UNK         0.1400 
     96 CB         -2.6489  -20.0460  -51.6142 C.3       17 UNK        -0.1800 
     97 C          -4.2975  -21.7752  -52.5357 C.2       17 UNK         0.5000 
     98 O          -3.7639  -21.7689  -53.6453 O.2       17 UNK        -0.5000 
     99 N          -5.5468  -22.2169  -52.3304 N.am      18 UNK        -0.5000 
    100 CA        -6.4339  -22.7147  -53.3813 C.3       18 UNK         0.1400 
    101 CB        -7.8717  -22.7958  -52.8505 C.3       18 UNK        -0.1800 
    102 C         -5.9937  -24.0774  -53.9421 C.2       18 UNK         0.5000 
    103 O         -6.1732  -24.3178  -55.1359 O.2       18 UNK        -0.5000 
    104 N         -5.4000  -24.9316  -53.0946 N.am      19 UNK        -0.5000 
    105 CA        -4.8594  -26.2342  -53.4948 C.3       19 UNK         0.1400 
    106 CB        -4.6371  -27.1058  -52.2494 C.3       19 UNK        -0.1800 
    107 C         -3.5529  -26.0938  -54.2972 C.2       19 UNK         0.5000 
    108 O         -3.2896  -26.9047  -55.1855 O.2       19 UNK        -0.5000 
    109 N         -2.7735  -25.0514  -53.9802 N.am      20 UNK        -0.5000 
    110 CA        -1.5550  -24.6695  -54.6941 C.3       20 UNK         0.1400 
    111 CB        -0.6538  -23.8813  -53.7291 C.3       20 UNK        -0.1800 
    112 C         -1.8431  -23.8281  -55.9531 C.2       20 UNK         0.5000 
    113 O         -0.9528  -23.6728  -56.7898 O.2       20 UNK        -0.5000 
    114 N         -3.0517  -23.2498  -56.0327 N.am      21 UNK        -0.5000 
    115 CA        -3.5217  -22.2673  -57.0171 C.3       21 UNK         0.1400 
    116 CB        -3.7023  -22.9325  -58.3965 C.3       21 UNK        -0.1800 
    117 C         -2.6346  -21.0018  -57.0674 C.2       21 UNK         0.5000 
    118 O         -2.4598  -20.4124  -58.1355 O.2       21 UNK        -0.5000 
    119 N         -2.0549  -20.6407  -55.9126 N.am      22 UNK        -0.5000 
    120 CA        -0.9915  -19.6332  -55.7435 C.3       22 UNK         0.1400 
    121 C          0.3355  -19.9368  -56.5141 C.2       22 UNK         0.5000 
    122 N          0.5820  -21.1566  -56.9791 N.am      22 UNK        -0.7600 
    123 O          1.1865  -19.0634  -56.6602 O.2       22 UNK        -0.5000 
    124 C124       -1.5054  -18.1773  -55.9479 C.3       23 UNK        -0.0398 
    125 S125       -2.4417  -17.5873  -54.4966 S.3       23 UNK        -0.2404 
    126 C126       -1.1488  -16.5938  -53.6858 C.3       23 UNK        -0.0205 
    127 H127       -0.9060   -6.7653  -48.6713 H         1 UNK         0.0600 
    128 H128       -2.1689   -7.6740  -47.8366 H         1 UNK         0.0600 
    129 H129       -0.8522   -6.9431  -46.9142 H         1 UNK         0.0600 
    130 H130       -1.9247   -9.8786  -48.0848 H         1 UNK         0.3000 
    131 H131        0.5323  -11.0752  -48.9949 H         1 UNK         0.0600 
    132 H132       -0.7320  -13.1935  -48.9524 H         1 UNK         0.0800 
    133 H133       -2.0525  -12.4423  -48.0851 H         1 UNK         0.0800 
    134 H134       -3.8913  -12.9539  -51.4304 H         1 UNK         0.0800 
    135 H135       -3.8817  -13.2098  -49.7056 H         1 UNK         0.0800 
    136 H136       -2.4581  -14.3164  -52.9394 H         1 UNK         0.1150 
    137 H137       -0.6825  -17.8702  -51.3305 H         1 UNK         0.1150 
    138 H138       -2.5033  -15.0154  -48.7074 H         1 UNK         0.1150 
    139 H139       -0.2430  -17.9414  -48.9192 H         1 UNK         0.0800 
    140 H140       -0.8773  -16.6977  -47.8666 H         1 UNK         0.0800 
    141 H141       -0.6926  -18.7101  -46.5152 H         1 UNK         0.0800 
    142 H142       -2.2300  -18.9964  -45.7808 H         1 UNK         0.0800 
    143 H143       -1.1412  -20.9543  -47.8634 H         1 UNK         0.0600 
    144 H144        0.0626  -20.5694  -45.2582 H         1 UNK         0.3000 
    145 H145        1.4802  -23.7739  -44.9823 H         1 UNK         0.0600 
    146 H146        3.6873  -22.5909  -45.0045 H         1 UNK         0.0600 
    147 H147        3.0964  -22.9086  -46.6284 H         1 UNK         0.0600 
    148 H148        2.9798  -21.2884  -45.9605 H         1 UNK         0.0600 
    149 H149        1.9363  -21.2515  -43.6621 H         1 UNK         0.3000 
    150 H150        0.1238  -22.2630  -40.8939 H         1 UNK         0.0600 
    151 H151        2.4481  -21.3976  -41.4115 H         1 UNK         0.0600 
    152 H152        1.5371  -20.3655  -40.3259 H         1 UNK         0.0600 
    153 H153        1.7240  -19.9016  -42.0058 H         1 UNK         0.0600 
    154 H154       -1.4084  -20.6477  -40.7556 H         1 UNK         0.3000 
    155 H155       -3.1614  -18.9263  -42.9188 H         1 UNK         0.0600 
    156 H156       -3.8155  -18.2157  -40.6095 H         1 UNK         0.0600 
    157 H157       -2.2885  -18.8139  -39.9749 H         1 UNK         0.0600 
    158 H158       -3.4499  -19.9273  -40.6880 H         1 UNK         0.0600 
    159 H159       -2.2156  -16.9655  -43.3028 H         1 UNK         0.3000 
    160 H160       -1.3602  -14.8887  -42.8906 H         1 UNK         0.0600 
    161 H161        0.9582  -14.8036  -40.8805 H         1 UNK         0.0600 
    162 H162       -0.6419  -14.1143  -40.6208 H         1 UNK         0.0600 
    163 H163        0.4027  -13.4664  -41.8777 H         1 UNK         0.0600 
    164 H164        1.4598  -15.5157  -43.1220 H         1 UNK         0.3000 
    165 H165        1.2308  -17.7114  -45.8543 H         1 UNK         0.0600 
    166 H166        2.2046  -14.8274  -46.0306 H         1 UNK         0.0600 
    167 H167        2.6576  -16.1466  -47.1063 H         1 UNK         0.0600 
    168 H168        1.0078  -15.5406  -47.0998 H         1 UNK         0.0600 
    169 H169        3.1450  -16.1383  -44.1938 H         1 UNK         0.3000 
    170 H170        4.3273  -18.8155  -42.4695 H         1 UNK         0.0600 
    171 H171        5.2930  -19.8576  -44.5010 H         1 UNK         0.0600 
    172 H172        5.7654  -18.2803  -45.1214 H         1 UNK         0.0600 
    173 H173        6.5140  -18.9192  -43.6575 H         1 UNK         0.0600 
    174 H174        5.4120  -16.3058  -43.6568 H         1 UNK         0.3000 
    175 H175        4.6440  -14.4463  -40.7289 H         1 UNK         0.0600 
    176 H176        7.3913  -15.2592  -41.8111 H         1 UNK         0.0600 
    177 H177        7.0458  -13.8911  -40.7520 H         1 UNK         0.0600 
    178 H178        6.8325  -15.5315  -40.1650 H         1 UNK         0.0600 
    179 H179        5.9646  -13.4210  -42.8865 H         1 UNK         0.3000 
    180 H180        4.5788  -11.7479  -44.0006 H         1 UNK         0.0600 
    181 H181        5.8758  -13.3116  -45.4374 H         1 UNK         0.0600 
    182 H182        4.3964  -13.9684  -46.1222 H         1 UNK         0.0600 
    183 H183        4.8538  -12.2976  -46.4410 H         1 UNK         0.0600 
    184 H184        2.3282  -12.6729  -45.6498 H         1 UNK         0.3000 
    185 H185        0.0870  -12.6338  -44.4092 H         1 UNK         0.0600 
    186 H186       -0.3830  -11.1682  -42.4509 H         1 UNK         0.0600 
    187 H187       -0.3268   -9.7475  -43.4876 H         1 UNK         0.0600 
    188 H188       -1.5854  -10.9631  -43.7105 H         1 UNK         0.0600 
    189 H189       -0.5035  -10.2804  -45.8745 H         1 UNK         0.3000 
    190 H190       -2.1650  -21.3186  -44.4663 H         1 UNK         0.3000 
    191 H191       -4.8645  -22.1180  -44.9763 H         1 UNK         0.0600 
    192 H192       -4.8153  -22.8161  -42.5683 H         1 UNK         0.0600 
    193 H193       -4.2001  -21.1905  -42.8001 H         1 UNK         0.0600 
    194 H194       -3.0822  -22.5264  -42.5167 H         1 UNK         0.0600 
    195 H195       -1.8473  -23.9704  -44.4318 H         1 UNK         0.3000 
    196 H196       -2.9138  -26.5789  -44.5906 H         1 UNK         0.0600 
    197 H197       -0.5579  -27.2265  -45.0711 H         1 UNK         0.0600 
    198 H198       -0.6160  -26.0280  -43.7869 H         1 UNK         0.0600 
    199 H199       -0.1464  -25.5522  -45.4188 H         1 UNK         0.0600 
    200 H200       -2.2475  -24.2610  -47.1430 H         1 UNK         0.3000 
    201 H201       -2.7442  -26.2243  -49.3127 H         1 UNK         0.0600 
    202 H202       -0.7655  -24.7406  -49.5183 H         1 UNK         0.0600 
    203 H203       -1.7873  -23.3180  -49.3660 H         1 UNK         0.0600 
    204 H204       -1.9407  -24.3799  -50.7687 H         1 UNK         0.0600 
    205 H205       -4.7772  -24.9202  -47.2884 H         1 UNK         0.3000 
    206 H206       -6.9111  -24.3708  -47.2357 H         1 UNK         0.0600 
    207 H207       -7.1859  -26.3468  -48.7415 H         1 UNK         0.0600 
    208 H208       -8.4116  -25.1262  -49.0452 H         1 UNK         0.0600 
    209 H209       -7.0610  -25.3014  -50.1550 H         1 UNK         0.0600 
    210 H210       -5.3330  -22.2569  -47.4157 H         1 UNK         0.3000 
    211 H211       -5.2117  -20.0708  -47.7005 H         1 UNK         0.0600 
    212 H212       -7.9797  -20.0802  -49.0130 H         1 UNK         0.0600 
    213 H213       -7.1148  -18.6882  -48.3823 H         1 UNK         0.0600 
    214 H214       -7.6809  -19.9340  -47.2811 H         1 UNK         0.0600 
    215 H215       -3.9775  -21.7901  -49.3264 H         1 UNK         0.3000 
    216 H216       -2.7690  -22.1126  -51.1319 H         1 UNK         0.0600 
    217 H217       -3.2808  -19.1780  -51.8034 H         1 UNK         0.0600 
    218 H218       -2.0127  -20.1832  -52.4890 H         1 UNK         0.0600 
    219 H219       -1.9931  -19.8105  -50.7774 H         1 UNK         0.0600 
    220 H220       -5.9072  -22.2337  -51.3854 H         1 UNK         0.3000 
    221 H221       -6.4168  -21.9945  -54.2021 H         1 UNK         0.0600 
    222 H222       -7.9697  -23.5521  -52.0710 H         1 UNK         0.0600 
    223 H223       -8.1965  -21.8411  -52.4362 H         1 UNK         0.0600 
    224 H224       -8.5666  -23.0590  -53.6488 H         1 UNK         0.0600 
    225 H225       -5.2576  -24.6554  -52.1251 H         1 UNK         0.3000 
    226 H226       -5.5947  -26.7323  -54.1304 H         1 UNK         0.0600 
    227 H227       -5.5432  -27.1773  -51.6474 H         1 UNK         0.0600 
    228 H228       -4.3517  -28.1196  -52.5324 H         1 UNK         0.0600 
    229 H229       -3.8427  -26.7098  -51.6168 H         1 UNK         0.0600 
    230 H230       -3.0784  -24.4387  -53.2387 H         1 UNK         0.3000 
    231 H231       -1.0212  -25.5688  -55.0083 H         1 UNK         0.0600 
    232 H232       -1.1386  -22.9704  -53.3755 H         1 UNK         0.0600 
    233 H233       -0.3895  -24.4811  -52.8580 H         1 UNK         0.0600 
    234 H234        0.2783  -23.5886  -54.2144 H         1 UNK         0.0600 
    235 H235       -3.6787  -23.3954  -55.2538 H         1 UNK         0.3000 
    236 H236       -4.5034  -21.9375  -56.6741 H         1 UNK         0.0600 
    237 H237       -4.3380  -23.8152  -58.3262 H         1 UNK         0.0600 
    238 H238       -4.1750  -22.2490  -59.1026 H         1 UNK         0.0600 
    239 H239       -2.7480  -23.2392  -58.8257 H         1 UNK         0.0600 
    240 H240       -2.3280  -21.1459  -55.0773 H         1 UNK         0.3000 
    241 H241       -0.6850  -19.7245  -54.7009 H         1 UNK         0.0600 
    242 H242       -0.0846  -21.9150  -56.8772 H         1 UNK         0.3800 
    243 H243        1.4509  -21.3282  -57.4592 H         1 UNK         0.3800 
    244 H244       -2.1408  -18.1062  -56.8308 H         1 UNK         0.0800 
    245 H245       -0.6891  -17.4764  -56.1269 H         1 UNK         0.0800 
    246 H246       -0.2259  -17.1740  -53.6335 H         1 UNK         0.0800 
    247 H247       -0.9265  -15.7202  -54.3006 H         1 UNK         0.0800 
@<TRIPOS>BOND
     1    1    2 1    
     2    1  127 1    
     3    1  128 1    
     4    1  129 1    
     5    2    3 2    
     6    2    4 am   BACKBONE|DICT|INTERRES
     7    4    5 1    
     8    4  130 1    
     9    5    6 1    
    10    5   65 1    
    11    5  131 1    
    12    6    7 1    
    13    6  132 1    
    14    6  133 1    
    15    7    8 1    
    16    8    9 1    
    17    8  134 1    
    18    8  135 1    
    19    9   10 ar   
    20    9   14 ar   
    21   10   11 ar   
    22   10  136 1    
    23   11   12 ar   
    24   11  126 1    
    25   12   13 ar   
    26   12  137 1    
    27   13   14 ar   
    28   13   15 1    
    29   14  138 1    
    30   15   16 1    
    31   15  139 1    
    32   15  140 1    
    33   16   17 1    
    34   17   18 1    
    35   17  141 1    
    36   17  142 1    
    37   18   19 1    
    38   18   67 1    
    39   18  143 1    
    40   19   20 am   BACKBONE|DICT|INTERRES
    41   19  144 1    
    42   20   21 2    
    43   20   22 1    
    44   22   23 1    
    45   22   24 1    
    46   22  145 1    
    47   23  146 1    
    48   23  147 1    
    49   23  148 1    
    50   24   25 am   BACKBONE|DICT|INTERRES
    51   24  149 1    
    52   25   26 2    
    53   25   27 1    
    54   27   28 1    
    55   27   29 1    
    56   27  150 1    
    57   28  151 1    
    58   28  152 1    
    59   28  153 1    
    60   29   30 am   BACKBONE|DICT|INTERRES
    61   29  154 1    
    62   30   31 2    
    63   30   32 1    
    64   32   33 1    
    65   32   34 1    
    66   32  155 1    
    67   33  156 1    
    68   33  157 1    
    69   33  158 1    
    70   34   35 am   BACKBONE|DICT|INTERRES
    71   34  159 1    
    72   35   36 2    
    73   35   37 1    
    74   37   38 1    
    75   37   39 1    
    76   37  160 1    
    77   38  161 1    
    78   38  162 1    
    79   38  163 1    
    80   39   40 am   BACKBONE|DICT|INTERRES
    81   39  164 1    
    82   40   41 2    
    83   40   42 1    
    84   42   43 1    
    85   42   44 1    
    86   42  165 1    
    87   43  166 1    
    88   43  167 1    
    89   43  168 1    
    90   44   45 am   BACKBONE|DICT|INTERRES
    91   44  169 1    
    92   45   46 2    
    93   45   47 1    
    94   47   48 1    
    95   47   49 1    
    96   47  170 1    
    97   48  171 1    
    98   48  172 1    
    99   48  173 1    
   100   49   50 am   BACKBONE|DICT|INTERRES
   101   49  174 1    
   102   50   51 2    
   103   50   52 1    
   104   52   53 1    
   105   52   54 1    
   106   52  175 1    
   107   53  176 1    
   108   53  177 1    
   109   53  178 1    
   110   54   55 am   BACKBONE|DICT|INTERRES
   111   54  179 1    
   112   55   56 2    
   113   55   57 1    
   114   57   58 1    
   115   57   59 1    
   116   57  180 1    
   117   58  181 1    
   118   58  182 1    
   119   58  183 1    
   120   59   60 am   BACKBONE|DICT|INTERRES
   121   59  184 1    
   122   60   61 2    
   123   60   62 1    
   124   62   63 1    
   125   62   64 1    
   126   62  185 1    
   127   63  186 1    
   128   63  187 1    
   129   63  188 1    
   130   64   65 am   BACKBONE|DICT|INTERRES
   131   64  189 1    
   132   65   66 2    
   133   67   68 2    
   134   67   69 am   BACKBONE|DICT|INTERRES
   135   69   70 1    
   136   69  190 1    
   137   70   71 1    
   138   70   72 1    
   139   70  191 1    
   140   71  192 1    
   141   71  193 1    
   142   71  194 1    
   143   72   73 2    
   144   72   74 am   BACKBONE|DICT|INTERRES
   145   74   75 1    
   146   74  195 1    
   147   75   76 1    
   148   75   77 1    
   149   75  196 1    
   150   76  197 1    
   151   76  198 1    
   152   76  199 1    
   153   77   78 2    
   154   77   79 am   BACKBONE|DICT|INTERRES
   155   79   80 1    
   156   79  200 1    
   157   80   81 1    
   158   80   82 1    
   159   80  201 1    
   160   81  202 1    
   161   81  203 1    
   162   81  204 1    
   163   82   83 2    
   164   82   84 am   BACKBONE|DICT|INTERRES
   165   84   85 1    
   166   84  205 1    
   167   85   86 1    
   168   85   87 1    
   169   85  206 1    
   170   86  207 1    
   171   86  208 1    
   172   86  209 1    
   173   87   88 2    
   174   87   89 am   BACKBONE|DICT|INTERRES
   175   89   90 1    
   176   89  210 1    
   177   90   91 1    
   178   90   92 1    
   179   90  211 1    
   180   91  212 1    
   181   91  213 1    
   182   91  214 1    
   183   92   93 2    
   184   92   94 am   BACKBONE|DICT|INTERRES
   185   94   95 1    
   186   94  215 1    
   187   95   96 1    
   188   95   97 1    
   189   95  216 1    
   190   96  217 1    
   191   96  218 1    
   192   96  219 1    
   193   97   98 2    
   194   97   99 am   BACKBONE|DICT|INTERRES
   195   99  100 1    
   196   99  220 1    
   197  100  101 1    
   198  100  102 1    
   199  100  221 1    
   200  101  222 1    
   201  101  223 1    
   202  101  224 1    
   203  102  103 2    
   204  102  104 am   BACKBONE|DICT|INTERRES
   205  104  105 1    
   206  104  225 1    
   207  105  106 1    
   208  105  107 1    
   209  105  226 1    
   210  106  227 1    
   211  106  228 1    
   212  106  229 1    
   213  107  108 2    
   214  107  109 am   BACKBONE|DICT|INTERRES
   215  109  110 1    
   216  109  230 1    
   217  110  111 1    
   218  110  112 1    
   219  110  231 1    
   220  111  232 1    
   221  111  233 1    
   222  111  234 1    
   223  112  113 2    
   224  112  114 am   BACKBONE|DICT|INTERRES
   225  114  115 1    
   226  114  235 1    
   227  115  116 1    
   228  115  117 1    
   229  115  236 1    
   230  116  237 1    
   231  116  238 1    
   232  116  239 1    
   233  117  118 2    
   234  117  119 am   BACKBONE|DICT|INTERRES
   235  119  120 1    
   236  119  240 1    
   237  120  121 1    
   238  120  124 1    
   239  120  241 1    
   240  121  122 am   BACKBONE|DICT|INTERRES
   241  121  123 2    
   242  122  242 1    
   243  122  243 1    
   244  124  125 1    
   245  124  244 1    
   246  124  245 1    
   247  125  126 1    
   248  126  246 1    
   249  126  247 1    
@<TRIPOS>SUBSTRUCTURE
     1 UNK         1 GROUP             0       ****    0 ROOT    
