@<TRIPOS>MOLECULE
3R540
247   249    1
SMALL
USER_CHARGES


@<TRIPOS>ATOM
      1 CA         -0.3555  -13.4923  -49.4480 C.3       0 UNK        -0.1800 
      2 C           0.7452  -13.1879  -48.4405 C.2       0 UNK         0.5000 
      3 O           0.5275  -13.3244  -47.2388 O.2       0 UNK        -0.5000 
      4 N           1.9204  -12.7713  -48.9325 N.am      1 UNK        -0.5000 
      5 CA          3.1256  -12.4274  -48.1577 C.3       1 UNK         0.1400 
      6 C6          3.7488  -13.6212  -47.3822 C.3       23 UNK        -0.0398 
      7 S7          4.0855  -15.0646  -48.4476 S.3       23 UNK        -0.2404 
      8 C8          2.9313  -16.2743  -47.7345 C.3       23 UNK        -0.0205 
      9 C9          2.5408  -17.3408  -48.7415 C.ar      23 UNK        -0.0193 
     10 C10         1.6696  -17.0231  -49.7856 C.ar      23 UNK        -0.1150 
     11 C11         1.2812  -17.9966  -50.7080 C.ar      23 UNK        -0.0193 
     12 C12         1.7615  -19.3027  -50.5747 C.ar      23 UNK        -0.1150 
     13 C13         2.6365  -19.6323  -49.5344 C.ar      23 UNK        -0.0193 
     14 C14         3.0259  -18.6457  -48.6230 C.ar      23 UNK        -0.1150 
     15 C15         3.1764  -21.0488  -49.4021 C.3       23 UNK        -0.0205 
     16 S16         2.5284  -21.8944  -47.9273 S.3       23 UNK        -0.2404 
     17 C17         0.7586  -22.0143  -48.3399 C.3       23 UNK        -0.0398 
     18 CA          0.0296  -23.0095  -47.4093 C.3       11 UNK         0.1400 
     19 N          -0.1072  -22.5112  -46.0370 N.am      11 UNK        -0.5000 
     20 C          -0.5341  -23.2503  -45.0032 C.2       10 UNK         0.5000 
     21 O          -0.8102  -24.4462  -45.0901 O.2       10 UNK        -0.5000 
     22 CA         -0.7507  -22.5241  -43.6633 C.3       10 UNK         0.1400 
     23 CB          0.5788  -22.3163  -42.9234 C.3       10 UNK        -0.1800 
     24 N          -1.4409  -21.2442  -43.8312 N.am      10 UNK        -0.5000 
     25 C          -2.6946  -21.1212  -44.2913 C.2       9 UNK         0.5000 
     26 O          -3.4194  -22.0813  -44.5523 O.2       9 UNK        -0.5000 
     27 CA         -3.2112  -19.6935  -44.5517 C.3       9 UNK         0.1400 
     28 CB         -3.7335  -19.0541  -43.2571 C.3       9 UNK        -0.1800 
     29 N          -2.2006  -18.8258  -45.1578 N.am      9 UNK        -0.5000 
     30 C          -1.6454  -19.0249  -46.3624 C.2       8 UNK         0.5000 
     31 O          -1.9657  -19.9397  -47.1194 O.2       8 UNK        -0.5000 
     32 CA         -0.4966  -18.0807  -46.7587 C.3       8 UNK         0.1400 
     33 CB         -1.0430  -16.7498  -47.2951 C.3       8 UNK        -0.1800 
     34 N           0.4220  -17.8400  -45.6422 N.am      8 UNK        -0.5000 
     35 C           1.1789  -18.7968  -45.0834 C.2       7 UNK         0.5000 
     36 O           1.2233  -19.9541  -45.4957 O.2       7 UNK        -0.5000 
     37 CA          1.9565  -18.4261  -43.8089 C.3       7 UNK         0.1400 
     38 CB          3.3242  -17.8098  -44.1350 C.3       7 UNK        -0.1800 
     39 N           1.1913  -17.5235  -42.9497 N.am      7 UNK        -0.5000 
     40 C           0.1380  -17.9147  -42.2164 C.2       6 UNK         0.5000 
     41 O          -0.2520  -19.0804  -42.1585 O.2       6 UNK        -0.5000 
     42 CA         -0.6368  -16.8224  -41.4533 C.3       6 UNK         0.1400 
     43 CB         -0.0369  -16.6134  -40.0553 C.3       6 UNK        -0.1800 
     44 N          -0.6665  -15.5422  -42.1608 N.am      6 UNK        -0.5000 
     45 C          -1.2336  -15.3432  -43.3591 C.2       5 UNK         0.5000 
     46 O          -1.8727  -16.2087  -43.9560 O.2       5 UNK        -0.5000 
     47 CA         -1.0087  -13.9710  -44.0241 C.3       5 UNK         0.1400 
     48 CB         -2.2318  -13.0649  -43.8256 C.3       5 UNK        -0.1800 
     49 N           0.1863  -13.2714  -43.5441 N.am      5 UNK        -0.5000 
     50 C           1.4484  -13.6975  -43.6852 C.2       4 UNK         0.5000 
     51 O           1.7410  -14.7672  -44.2223 O.2       4 UNK        -0.5000 
     52 CA          2.5495  -12.7982  -43.0838 C.3       4 UNK         0.1400 
     53 CB          3.9701  -13.2316  -43.4859 C.3       4 UNK        -0.1800 
     54 N           2.3614  -11.3822  -43.4135 N.am      4 UNK        -0.5000 
     55 C           1.5629  -10.5380  -42.7437 C.2       3 UNK         0.5000 
     56 O           0.8612  -10.8890  -41.7944 O.2       3 UNK        -0.5000 
     57 CA          1.5155   -9.0685  -43.2049 C.3       3 UNK         0.1400 
     58 CB          2.4454   -8.2059  -42.3381 C.3       3 UNK        -0.1800 
     59 N           1.8736   -8.8842  -44.6103 N.am      3 UNK        -0.5000 
     60 C           1.1088   -9.2412  -45.6499 C.2       2 UNK         0.5000 
     61 O          -0.0074   -9.7491  -45.5341 O.2       2 UNK        -0.5000 
     62 CA          1.6845   -8.9994  -47.0612 C.3       2 UNK         0.1400 
     63 CB          2.8599   -7.9962  -47.1006 C.3       2 UNK        -0.1800 
     64 N           2.0637  -10.2550  -47.7141 N.am      2 UNK        -0.5000 
     65 C           2.9205  -11.1834  -47.2594 C.2       1 UNK         0.5000 
     66 O           3.5370  -11.0787  -46.1964 O.2       1 UNK        -0.5000 
     67 C          -1.3223  -23.4354  -48.0134 C.2       11 UNK         0.5000 
     68 O          -1.3668  -24.4464  -48.7125 O.2       11 UNK        -0.5000 
     69 N          -2.3994  -22.6925  -47.7294 N.am      12 UNK        -0.5000 
     70 CA         -3.7639  -23.0305  -48.1364 C.3       12 UNK         0.1400 
     71 CB         -4.7002  -21.8504  -47.8446 C.3       12 UNK        -0.1800 
     72 C          -4.2734  -24.3189  -47.4686 C.2       12 UNK         0.5000 
     73 O          -4.8448  -25.1674  -48.1529 O.2       12 UNK        -0.5000 
     74 N          -4.0178  -24.4638  -46.1605 N.am      13 UNK        -0.5000 
     75 CA         -4.3425  -25.6566  -45.3745 C.3       13 UNK         0.1400 
     76 CB         -4.1098  -25.3659  -43.8842 C.3       13 UNK        -0.1800 
     77 C          -3.5523  -26.9026  -45.8200 C.2       13 UNK         0.5000 
     78 O          -4.1142  -27.9975  -45.8612 O.2       13 UNK        -0.5000 
     79 N          -2.2756  -26.7079  -46.1764 N.am      14 UNK        -0.5000 
     80 CA         -1.3853  -27.7371  -46.7189 C.3       14 UNK         0.1400 
     81 CB          0.0671  -27.2551  -46.5728 C.3       14 UNK        -0.1800 
     82 C          -1.6762  -28.0995  -48.1906 C.2       14 UNK         0.5000 
     83 O          -1.1317  -29.0903  -48.6789 O.2       14 UNK        -0.5000 
     84 N          -2.4940  -27.2837  -48.8730 N.am      15 UNK        -0.5000 
     85 CA         -2.8239  -27.3300  -50.3022 C.3       15 UNK         0.1400 
     86 CB         -3.5609  -28.6349  -50.6681 C.3       15 UNK        -0.1800 
     87 C          -1.6138  -27.0370  -51.2181 C.2       15 UNK         0.5000 
     88 O          -1.5909  -27.4690  -52.3720 O.2       15 UNK        -0.5000 
     89 N          -0.6383  -26.2838  -50.6930 N.am      16 UNK        -0.5000 
     90 CA          0.4803  -25.7104  -51.4391 C.3       16 UNK         0.1400 
     91 CB          1.6328  -25.4050  -50.4698 C.3       16 UNK        -0.1800 
     92 C           0.0405  -24.4409  -52.1911 C.2       16 UNK         0.5000 
     93 O           0.5018  -24.2041  -53.3078 O.2       16 UNK        -0.5000 
     94 N          -0.8763  -23.6787  -51.5806 N.am      17 UNK        -0.5000 
     95 CA         -1.6698  -22.6437  -52.2356 C.3       17 UNK         0.1400 
     96 CB         -1.8286  -21.4437  -51.2897 C.3       17 UNK        -0.1800 
     97 C          -3.0381  -23.2457  -52.5947 C.2       17 UNK         0.5000 
     98 O          -3.5103  -24.1569  -51.9080 O.2       17 UNK        -0.5000 
     99 N          -3.6609  -22.7245  -53.6559 N.am      18 UNK        -0.5000 
    100 CA        -4.9365  -23.1820  -54.2112 C.3       18 UNK         0.1400 
    101 CB        -5.0051  -22.7498  -55.6868 C.3       18 UNK        -0.1800 
    102 C         -6.1536  -22.7085  -53.3857 C.2       18 UNK         0.5000 
    103 O         -7.0446  -22.0404  -53.9162 O.2       18 UNK        -0.5000 
    104 N         -6.1627  -23.0721  -52.0960 N.am      19 UNK        -0.5000 
    105 CA        -7.1684  -22.7583  -51.0799 C.3       19 UNK         0.1400 
    106 CB        -8.4752  -23.5349  -51.3553 C.3       19 UNK        -0.1800 
    107 C         -7.3658  -21.2366  -50.9219 C.2       19 UNK         0.5000 
    108 O         -6.5273  -20.5815  -50.3040 O.2       19 UNK        -0.5000 
    109 N         -8.4596  -20.7013  -51.4788 N.am      20 UNK        -0.5000 
    110 CA        -8.7843  -19.2749  -51.4739 C.3       20 UNK         0.1400 
    111 CB       -10.2599  -19.1018  -51.8660 C.3       20 UNK        -0.1800 
    112 C         -7.8790  -18.4325  -52.3956 C.2       20 UNK         0.5000 
    113 O         -7.7450  -17.2300  -52.1625 O.2       20 UNK        -0.5000 
    114 N         -7.2870  -19.0594  -53.4202 N.am      21 UNK        -0.5000 
    115 CA        -6.3479  -18.4315  -54.3456 C.3       21 UNK         0.1400 
    116 CB        -6.6202  -18.9626  -55.7614 C.3       21 UNK        -0.1800 
    117 C         -4.9002  -18.7238  -53.9177 C.2       21 UNK         0.5000 
    118 O         -4.6307  -19.7663  -53.3195 O.2       21 UNK        -0.5000 
    119 N         -3.9903  -17.8082  -54.2622 N.am      22 UNK        -0.5000 
    120 CA        -2.5527  -17.8831  -53.9472 C.3       22 UNK         0.1400 
    121 C         -1.6472  -17.7416  -55.2077 C.2       22 UNK         0.5000 
    122 N         -2.1829  -17.8043  -56.4213 N.am      22 UNK        -0.7600 
    123 O         -0.4353  -17.5863  -55.0935 O.2       22 UNK        -0.5000 
    124 C124       -2.1729  -16.8916  -52.8051 C.3       23 UNK        -0.0398 
    125 S125       -1.3837  -17.7051  -51.3745 S.3       23 UNK        -0.2404 
    126 C126        0.3650  -17.6214  -51.8594 C.3       23 UNK        -0.0205 
    127 H127       -0.0293  -13.3121  -50.4726 H         1 UNK         0.0600 
    128 H128       -1.2248  -12.8645  -49.2527 H         1 UNK         0.0600 
    129 H129       -0.6648  -14.5342  -49.3714 H         1 UNK         0.0600 
    130 H130        2.0253  -12.6905  -49.9343 H         1 UNK         0.3000 
    131 H131        3.8630  -12.1164  -48.8990 H         1 UNK         0.0600 
    132 H132        3.1061  -13.9118  -46.5501 H         1 UNK         0.0800 
    133 H133        4.7007  -13.3259  -46.9382 H         1 UNK         0.0800 
    134 H134        3.3975  -16.7260  -46.8606 H         1 UNK         0.0800 
    135 H135        2.0305  -15.7740  -47.3802 H         1 UNK         0.0800 
    136 H136        1.2981  -16.0132  -49.8826 H         1 UNK         0.1150 
    137 H137        1.4622  -20.0582  -51.2873 H         1 UNK         0.1150 
    138 H138        3.6971  -18.9011  -47.8150 H         1 UNK         0.1150 
    139 H139        2.9464  -21.6409  -50.2893 H         1 UNK         0.0800 
    140 H140        4.2644  -21.0095  -49.3350 H         1 UNK         0.0800 
    141 H141        0.3070  -21.0227  -48.2811 H         1 UNK         0.0800 
    142 H142        0.6827  -22.3266  -49.3829 H         1 UNK         0.0800 
    143 H143        0.6344  -23.9173  -47.3564 H         1 UNK         0.0600 
    144 H144        0.1627  -21.5444  -45.8763 H         1 UNK         0.3000 
    145 H145       -1.3832  -23.1608  -43.0411 H         1 UNK         0.0600 
    146 H146        0.4208  -21.8456  -41.9530 H         1 UNK         0.0600 
    147 H147        1.0767  -23.2702  -42.7455 H         1 UNK         0.0600 
    148 H148        1.2665  -21.6907  -43.4912 H         1 UNK         0.0600 
    149 H149       -0.9251  -20.4087  -43.5784 H         1 UNK         0.3000 
    150 H150       -4.0451  -19.7648  -45.2525 H         1 UNK         0.0600 
    151 H151       -4.5299  -19.6571  -42.8193 H         1 UNK         0.0600 
    152 H152       -4.1417  -18.0606  -43.4441 H         1 UNK         0.0600 
    153 H153       -2.9473  -18.9572  -42.5090 H         1 UNK         0.0600 
    154 H154       -1.9226  -18.0060  -44.6254 H         1 UNK         0.3000 
    155 H155        0.0690  -18.5608  -47.5601 H         1 UNK         0.0600 
    156 H156       -1.6711  -16.2383  -46.5668 H         1 UNK         0.0600 
    157 H157       -1.6463  -16.9137  -48.1888 H         1 UNK         0.0600 
    158 H158       -0.2365  -16.0739  -47.5704 H         1 UNK         0.0600 
    159 H159        0.4190  -16.9177  -45.2309 H         1 UNK         0.3000 
    160 H160        2.1397  -19.3517  -43.2590 H         1 UNK         0.0600 
    161 H161        3.2290  -16.8304  -44.5998 H         1 UNK         0.0600 
    162 H162        3.8883  -18.4471  -44.8174 H         1 UNK         0.0600 
    163 H163        3.9231  -17.6892  -43.2323 H         1 UNK         0.0600 
    164 H164        1.4208  -16.5390  -43.0081 H         1 UNK         0.3000 
    165 H165       -1.6668  -17.1650  -41.3367 H         1 UNK         0.0600 
    166 H166        0.9883  -16.2446  -40.1073 H         1 UNK         0.0600 
    167 H167       -0.6229  -15.8988  -39.4770 H         1 UNK         0.0600 
    168 H168       -0.0214  -17.5488  -39.4941 H         1 UNK         0.0600 
    169 H169       -0.1687  -14.7741  -41.7361 H         1 UNK         0.3000 
    170 H170       -0.8833  -14.1482  -45.0938 H         1 UNK         0.0600 
    171 H171       -3.1380  -13.5442  -44.1986 H         1 UNK         0.0600 
    172 H172       -2.3921  -12.8301  -42.7726 H         1 UNK         0.0600 
    173 H173       -2.1158  -12.1252  -44.3664 H         1 UNK         0.0600 
    174 H174        0.0396  -12.3934  -43.0613 H         1 UNK         0.3000 
    175 H175        2.4808  -12.9174  -42.0006 H         1 UNK         0.0600 
    176 H176        4.1574  -14.2719  -43.2166 H         1 UNK         0.0600 
    177 H177        4.1343  -13.1347  -44.5569 H         1 UNK         0.0600 
    178 H178        4.7222  -12.6271  -42.9790 H         1 UNK         0.0600 
    179 H179        2.8452  -11.0487  -44.2411 H         1 UNK         0.3000 
    180 H180        0.4925   -8.7134  -43.0633 H         1 UNK         0.0600 
    181 H181        2.3659   -7.1512  -42.6024 H         1 UNK         0.0600 
    182 H182        2.1889   -8.2948  -41.2815 H         1 UNK         0.0600 
    183 H183        3.4891   -8.5031  -42.4487 H         1 UNK         0.0600 
    184 H184        2.7878   -8.4992  -44.7986 H         1 UNK         0.3000 
    185 H185        0.8717   -8.5741  -47.6518 H         1 UNK         0.0600 
    186 H186        3.1503   -7.7821  -48.1292 H         1 UNK         0.0600 
    187 H187        2.5811   -7.0456  -46.6439 H         1 UNK         0.0600 
    188 H188        3.7445   -8.3687  -46.5832 H         1 UNK         0.0600 
    189 H189        1.5794  -10.4587  -48.5767 H         1 UNK         0.3000 
    190 H190       -2.2749  -21.8192  -47.2239 H         1 UNK         0.3000 
    191 H191       -3.7646  -23.2018  -49.2145 H         1 UNK         0.0600 
    192 H192       -5.7255  -22.0848  -48.1307 H         1 UNK         0.0600 
    193 H193       -4.3996  -20.9637  -48.4034 H         1 UNK         0.0600 
    194 H194       -4.7117  -21.5910  -46.7874 H         1 UNK         0.0600 
    195 H195       -3.5830  -23.6934  -45.6601 H         1 UNK         0.3000 
    196 H196       -5.4039  -25.8700  -45.5166 H         1 UNK         0.0600 
    197 H197       -4.3719  -26.2295  -43.2718 H         1 UNK         0.0600 
    198 H198       -4.7212  -24.5290  -43.5463 H         1 UNK         0.0600 
    199 H199       -3.0674  -25.1211  -43.6789 H         1 UNK         0.0600 
    200 H200       -1.8671  -25.7887  -46.0312 H         1 UNK         0.3000 
    201 H201       -1.5055  -28.6466  -46.1270 H         1 UNK         0.0600 
    202 H202        0.2482  -26.3495  -47.1525 H         1 UNK         0.0600 
    203 H203        0.7704  -28.0129  -46.9201 H         1 UNK         0.0600 
    204 H204        0.3095  -27.0408  -45.5318 H         1 UNK         0.0600 
    205 H205       -2.8748  -26.4894  -48.3751 H         1 UNK         0.3000 
    206 H206       -3.5223  -26.5082  -50.4655 H         1 UNK         0.0600 
    207 H207       -4.4045  -28.8108  -50.0007 H         1 UNK         0.0600 
    208 H208       -3.9565  -28.5869  -51.6832 H         1 UNK         0.0600 
    209 H209       -2.9032  -29.5028  -50.6165 H         1 UNK         0.0600 
    210 H210       -0.7924  -25.9112  -49.7607 H         1 UNK         0.3000 
    211 H211        0.8324  -26.4378  -52.1736 H         1 UNK         0.0600 
    212 H212        1.3361  -24.6976  -49.6962 H         1 UNK         0.0600 
    213 H213        2.4846  -24.9755  -50.9985 H         1 UNK         0.0600 
    214 H214        1.9800  -26.3123  -49.9751 H         1 UNK         0.0600 
    215 H215       -1.2380  -24.0057  -50.6916 H         1 UNK         0.3000 
    216 H216       -1.1785  -22.3039  -53.1497 H         1 UNK         0.0600 
    217 H217       -2.4120  -20.6521  -51.7610 H         1 UNK         0.0600 
    218 H218       -0.8619  -21.0179  -51.0225 H         1 UNK         0.0600 
    219 H219       -2.3412  -21.7131  -50.3684 H         1 UNK         0.0600 
    220 H220       -3.2611  -21.9114  -54.1014 H         1 UNK         0.3000 
    221 H221       -4.9522  -24.2739  -54.1912 H         1 UNK         0.0600 
    222 H222       -4.9065  -21.6697  -55.7921 H         1 UNK         0.0600 
    223 H223       -4.2079  -23.2137  -56.2679 H         1 UNK         0.0600 
    224 H224       -5.9504  -23.0452  -56.1440 H         1 UNK         0.0600 
    225 H225       -5.3458  -23.5797  -51.7679 H         1 UNK         0.3000 
    226 H226       -6.7692  -23.1181  -50.1306 H         1 UNK         0.0600 
    227 H227       -8.2973  -24.6101  -51.3311 H         1 UNK         0.0600 
    228 H228       -9.2278  -23.3182  -50.5961 H         1 UNK         0.0600 
    229 H229       -8.9056  -23.2974  -52.3285 H         1 UNK         0.0600 
    230 H230       -9.0781  -21.3064  -51.9990 H         1 UNK         0.3000 
    231 H231       -8.6563  -18.8990  -50.4566 H         1 UNK         0.0600 
    232 H232      -10.5493  -18.0502  -51.8443 H         1 UNK         0.0600 
    233 H233      -10.9169  -19.6323  -51.1764 H         1 UNK         0.0600 
    234 H234      -10.4549  -19.4752  -52.8721 H         1 UNK         0.0600 
    235 H235       -7.3701  -20.0687  -53.4951 H         1 UNK         0.3000 
    236 H236       -6.4945  -17.3493  -54.3562 H         1 UNK         0.0600 
    237 H237       -6.5560  -20.0492  -55.8049 H         1 UNK         0.0600 
    238 H238       -7.6170  -18.6782  -56.0989 H         1 UNK         0.0600 
    239 H239       -5.9069  -18.5590  -56.4809 H         1 UNK         0.0600 
    240 H240       -4.2835  -16.9831  -54.7663 H         1 UNK         0.3000 
    241 H241       -2.3310  -18.8960  -53.6079 H         1 UNK         0.0600 
    242 H242       -3.1680  -17.9700  -56.5486 H         1 UNK         0.3800 
    243 H243       -1.5840  -17.7155  -57.2275 H         1 UNK         0.3800 
    244 H244       -3.0648  -16.3981  -52.4161 H         1 UNK         0.0800 
    245 H245       -1.5409  -16.0744  -53.1570 H         1 UNK         0.0800 
    246 H246        0.5368  -18.2875  -52.7058 H         1 UNK         0.0800 
    247 H247        0.6060  -16.6146  -52.2042 H         1 UNK         0.0800 
@<TRIPOS>BOND
     1    1    2 1    
     2    1  127 1    
     3    1  128 1    
     4    1  129 1    
     5    2    3 2    
     6    2    4 am   BACKBONE|DICT|INTERRES
     7    4    5 1    
     8    4  130 1    
     9    5    6 1    
    10    5   65 1    
    11    5  131 1    
    12    6    7 1    
    13    6  132 1    
    14    6  133 1    
    15    7    8 1    
    16    8    9 1    
    17    8  134 1    
    18    8  135 1    
    19    9   10 ar   
    20    9   14 ar   
    21   10   11 ar   
    22   10  136 1    
    23   11   12 ar   
    24   11  126 1    
    25   12   13 ar   
    26   12  137 1    
    27   13   14 ar   
    28   13   15 1    
    29   14  138 1    
    30   15   16 1    
    31   15  139 1    
    32   15  140 1    
    33   16   17 1    
    34   17   18 1    
    35   17  141 1    
    36   17  142 1    
    37   18   19 1    
    38   18   67 1    
    39   18  143 1    
    40   19   20 am   BACKBONE|DICT|INTERRES
    41   19  144 1    
    42   20   21 2    
    43   20   22 1    
    44   22   23 1    
    45   22   24 1    
    46   22  145 1    
    47   23  146 1    
    48   23  147 1    
    49   23  148 1    
    50   24   25 am   BACKBONE|DICT|INTERRES
    51   24  149 1    
    52   25   26 2    
    53   25   27 1    
    54   27   28 1    
    55   27   29 1    
    56   27  150 1    
    57   28  151 1    
    58   28  152 1    
    59   28  153 1    
    60   29   30 am   BACKBONE|DICT|INTERRES
    61   29  154 1    
    62   30   31 2    
    63   30   32 1    
    64   32   33 1    
    65   32   34 1    
    66   32  155 1    
    67   33  156 1    
    68   33  157 1    
    69   33  158 1    
    70   34   35 am   BACKBONE|DICT|INTERRES
    71   34  159 1    
    72   35   36 2    
    73   35   37 1    
    74   37   38 1    
    75   37   39 1    
    76   37  160 1    
    77   38  161 1    
    78   38  162 1    
    79   38  163 1    
    80   39   40 am   BACKBONE|DICT|INTERRES
    81   39  164 1    
    82   40   41 2    
    83   40   42 1    
    84   42   43 1    
    85   42   44 1    
    86   42  165 1    
    87   43  166 1    
    88   43  167 1    
    89   43  168 1    
    90   44   45 am   BACKBONE|DICT|INTERRES
    91   44  169 1    
    92   45   46 2    
    93   45   47 1    
    94   47   48 1    
    95   47   49 1    
    96   47  170 1    
    97   48  171 1    
    98   48  172 1    
    99   48  173 1    
   100   49   50 am   BACKBONE|DICT|INTERRES
   101   49  174 1    
   102   50   51 2    
   103   50   52 1    
   104   52   53 1    
   105   52   54 1    
   106   52  175 1    
   107   53  176 1    
   108   53  177 1    
   109   53  178 1    
   110   54   55 am   BACKBONE|DICT|INTERRES
   111   54  179 1    
   112   55   56 2    
   113   55   57 1    
   114   57   58 1    
   115   57   59 1    
   116   57  180 1    
   117   58  181 1    
   118   58  182 1    
   119   58  183 1    
   120   59   60 am   BACKBONE|DICT|INTERRES
   121   59  184 1    
   122   60   61 2    
   123   60   62 1    
   124   62   63 1    
   125   62   64 1    
   126   62  185 1    
   127   63  186 1    
   128   63  187 1    
   129   63  188 1    
   130   64   65 am   BACKBONE|DICT|INTERRES
   131   64  189 1    
   132   65   66 2    
   133   67   68 2    
   134   67   69 am   BACKBONE|DICT|INTERRES
   135   69   70 1    
   136   69  190 1    
   137   70   71 1    
   138   70   72 1    
   139   70  191 1    
   140   71  192 1    
   141   71  193 1    
   142   71  194 1    
   143   72   73 2    
   144   72   74 am   BACKBONE|DICT|INTERRES
   145   74   75 1    
   146   74  195 1    
   147   75   76 1    
   148   75   77 1    
   149   75  196 1    
   150   76  197 1    
   151   76  198 1    
   152   76  199 1    
   153   77   78 2    
   154   77   79 am   BACKBONE|DICT|INTERRES
   155   79   80 1    
   156   79  200 1    
   157   80   81 1    
   158   80   82 1    
   159   80  201 1    
   160   81  202 1    
   161   81  203 1    
   162   81  204 1    
   163   82   83 2    
   164   82   84 am   BACKBONE|DICT|INTERRES
   165   84   85 1    
   166   84  205 1    
   167   85   86 1    
   168   85   87 1    
   169   85  206 1    
   170   86  207 1    
   171   86  208 1    
   172   86  209 1    
   173   87   88 2    
   174   87   89 am   BACKBONE|DICT|INTERRES
   175   89   90 1    
   176   89  210 1    
   177   90   91 1    
   178   90   92 1    
   179   90  211 1    
   180   91  212 1    
   181   91  213 1    
   182   91  214 1    
   183   92   93 2    
   184   92   94 am   BACKBONE|DICT|INTERRES
   185   94   95 1    
   186   94  215 1    
   187   95   96 1    
   188   95   97 1    
   189   95  216 1    
   190   96  217 1    
   191   96  218 1    
   192   96  219 1    
   193   97   98 2    
   194   97   99 am   BACKBONE|DICT|INTERRES
   195   99  100 1    
   196   99  220 1    
   197  100  101 1    
   198  100  102 1    
   199  100  221 1    
   200  101  222 1    
   201  101  223 1    
   202  101  224 1    
   203  102  103 2    
   204  102  104 am   BACKBONE|DICT|INTERRES
   205  104  105 1    
   206  104  225 1    
   207  105  106 1    
   208  105  107 1    
   209  105  226 1    
   210  106  227 1    
   211  106  228 1    
   212  106  229 1    
   213  107  108 2    
   214  107  109 am   BACKBONE|DICT|INTERRES
   215  109  110 1    
   216  109  230 1    
   217  110  111 1    
   218  110  112 1    
   219  110  231 1    
   220  111  232 1    
   221  111  233 1    
   222  111  234 1    
   223  112  113 2    
   224  112  114 am   BACKBONE|DICT|INTERRES
   225  114  115 1    
   226  114  235 1    
   227  115  116 1    
   228  115  117 1    
   229  115  236 1    
   230  116  237 1    
   231  116  238 1    
   232  116  239 1    
   233  117  118 2    
   234  117  119 am   BACKBONE|DICT|INTERRES
   235  119  120 1    
   236  119  240 1    
   237  120  121 1    
   238  120  124 1    
   239  120  241 1    
   240  121  122 am   BACKBONE|DICT|INTERRES
   241  121  123 2    
   242  122  242 1    
   243  122  243 1    
   244  124  125 1    
   245  124  244 1    
   246  124  245 1    
   247  125  126 1    
   248  126  246 1    
   249  126  247 1    
@<TRIPOS>SUBSTRUCTURE
     1 UNK         1 GROUP             0       ****    0 ROOT    
