@<TRIPOS>MOLECULE
3R540
247   249    1
SMALL
USER_CHARGES


@<TRIPOS>ATOM
      1 CA          6.9241  -15.0331  -46.5012 C.3       0 UNK        -0.1800 
      2 C           6.0813  -13.8193  -46.8657 C.2       0 UNK         0.5000 
      3 O           6.5679  -12.9189  -47.5492 O.2       0 UNK        -0.5000 
      4 N           4.8256  -13.7943  -46.4008 N.am      1 UNK        -0.5000 
      5 CA          3.8098  -12.7606  -46.6541 C.3       1 UNK         0.1400 
      6 C6          3.3503  -12.6995  -48.1357 C.3       23 UNK        -0.0398 
      7 S7          2.6138  -14.2792  -48.6762 S.3       23 UNK        -0.2404 
      8 C8          0.9086  -13.7639  -49.0601 C.3       23 UNK        -0.0205 
      9 C9          0.0333  -14.9401  -49.4713 C.ar      23 UNK        -0.0193 
     10 C10         0.4002  -15.7513  -50.5480 C.ar      23 UNK        -0.1150 
     11 C11        -0.3865  -16.8442  -50.9197 C.ar      23 UNK        -0.0193 
     12 C12        -1.5689  -17.1110  -50.2219 C.ar      23 UNK        -0.1150 
     13 C13        -1.9621  -16.2931  -49.1570 C.ar      23 UNK        -0.0193 
     14 C14        -1.1538  -15.2126  -48.7864 C.ar      23 UNK        -0.1150 
     15 C15        -3.2750  -16.5426  -48.4256 C.3       23 UNK        -0.0205 
     16 S16        -3.0208  -16.8926  -46.6557 S.3       23 UNK        -0.2404 
     17 C17        -3.2033  -18.7038  -46.5439 C.3       23 UNK        -0.0398 
     18 CA         -2.2819  -19.5478  -47.4592 C.3       11 UNK         0.1400 
     19 N          -0.8560  -19.2094  -47.3327 N.am      11 UNK        -0.5000 
     20 C           0.1221  -19.7073  -48.1078 C.2       10 UNK         0.5000 
     21 O          -0.0804  -20.4857  -49.0408 O.2       10 UNK        -0.5000 
     22 CA          1.5697  -19.3284  -47.7482 C.3       10 UNK         0.1400 
     23 CB          1.9684  -17.9828  -48.3674 C.3       10 UNK        -0.1800 
     24 N           1.7544  -19.2751  -46.2991 N.am      10 UNK        -0.5000 
     25 C           2.0787  -20.3319  -45.5417 C.2       9 UNK         0.5000 
     26 O           2.3443  -21.4419  -46.0031 O.2       9 UNK        -0.5000 
     27 CA          2.1051  -20.1334  -44.0117 C.3       9 UNK         0.1400 
     28 CB          3.5329  -19.8162  -43.5419 C.3       9 UNK        -0.1800 
     29 N           1.2030  -19.0868  -43.5291 N.am      9 UNK        -0.5000 
     30 C          -0.1315  -19.0976  -43.6545 C.2       8 UNK         0.5000 
     31 O          -0.7645  -20.0328  -44.1425 O.2       8 UNK        -0.5000 
     32 CA         -0.8786  -17.8194  -43.2261 C.3       8 UNK         0.1400 
     33 CB         -1.2242  -17.8736  -41.7322 C.3       8 UNK        -0.1800 
     34 N          -0.1450  -16.5836  -43.5193 N.am      8 UNK        -0.5000 
     35 C           0.2810  -16.2173  -44.7380 C.2       7 UNK         0.5000 
     36 O           0.1338  -16.9055  -45.7455 O.2       7 UNK        -0.5000 
     37 CA          1.0646  -14.9024  -44.8368 C.3       7 UNK         0.1400 
     38 CB          0.1318  -13.6829  -44.7907 C.3       7 UNK        -0.1800 
     39 N           2.0545  -14.8189  -43.7648 N.am      7 UNK        -0.5000 
     40 C           3.2619  -15.3977  -43.8210 C.2       6 UNK         0.5000 
     41 O           3.7184  -15.9232  -44.8356 O.2       6 UNK        -0.5000 
     42 CA          4.1159  -15.3818  -42.5417 C.3       6 UNK         0.1400 
     43 CB          5.1052  -14.2073  -42.5716 C.3       6 UNK        -0.1800 
     44 N           3.3081  -15.3186  -41.3230 N.am      6 UNK        -0.5000 
     45 C           2.5716  -16.3427  -40.8670 C.2       5 UNK         0.5000 
     46 O           2.5068  -17.4361  -41.4283 O.2       5 UNK        -0.5000 
     47 CA          1.7334  -16.1006  -39.5982 C.3       5 UNK         0.1400 
     48 CB          2.5453  -16.4611  -38.3456 C.3       5 UNK        -0.1800 
     49 N           1.2279  -14.7343  -39.4638 N.am      5 UNK        -0.5000 
     50 C           0.4555  -14.0869  -40.3473 C.2       4 UNK         0.5000 
     51 O           0.0962  -14.5697  -41.4228 O.2       4 UNK        -0.5000 
     52 CA          0.0372  -12.6452  -39.9856 C.3       4 UNK         0.1400 
     53 CB          0.2757  -12.2832  -38.5025 C.3       4 UNK        -0.1800 
     54 N           0.6572  -11.6222  -40.8364 N.am      4 UNK        -0.5000 
     55 C           1.9522  -11.5020  -41.1617 C.2       3 UNK         0.5000 
     56 O           2.8223  -12.3384  -40.9003 O.2       3 UNK        -0.5000 
     57 CA          2.3512  -10.1943  -41.8591 C.3       3 UNK         0.1400 
     58 CB          2.6052   -9.1005  -40.8012 C.3       3 UNK        -0.1800 
     59 N           3.5490  -10.4471  -42.6531 N.am      3 UNK        -0.5000 
     60 C           4.1637   -9.5936  -43.4805 C.2       2 UNK         0.5000 
     61 O           3.8028   -8.4322  -43.6735 O.2       2 UNK        -0.5000 
     62 CA          5.3643  -10.1602  -44.2603 C.3       2 UNK         0.1400 
     63 CB          6.5437  -10.4763  -43.3256 C.3       2 UNK        -0.1800 
     64 N           4.9966  -11.3624  -45.0093 N.am      2 UNK        -0.5000 
     65 C           4.1792  -11.3760  -46.0730 C.2       1 UNK         0.5000 
     66 O           3.7038  -10.3546  -46.5716 O.2       1 UNK        -0.5000 
     67 C          -2.5640  -21.0463  -47.2114 C.2       11 UNK         0.5000 
     68 O          -3.5086  -21.5873  -47.7879 O.2       11 UNK        -0.5000 
     69 N          -1.7234  -21.6946  -46.3893 N.am      12 UNK        -0.5000 
     70 CA         -1.7553  -23.1163  -46.0297 C.3       12 UNK         0.1400 
     71 CB         -0.5925  -23.4155  -45.0721 C.3       12 UNK        -0.1800 
     72 C          -1.7346  -24.0985  -47.2194 C.2       12 UNK         0.5000 
     73 O          -2.1341  -25.2505  -47.0477 O.2       12 UNK        -0.5000 
     74 N          -1.3402  -23.6258  -48.4127 N.am      13 UNK        -0.5000 
     75 CA         -1.4732  -24.3233  -49.6952 C.3       13 UNK         0.1400 
     76 CB         -0.9565  -23.4107  -50.8171 C.3       13 UNK        -0.1800 
     77 C          -2.9138  -24.7793  -50.0077 C.2       13 UNK         0.5000 
     78 O          -3.0911  -25.7946  -50.6816 O.2       13 UNK        -0.5000 
     79 N          -3.9160  -24.0701  -49.4639 N.am      14 UNK        -0.5000 
     80 CA         -5.3407  -24.4066  -49.5310 C.3       14 UNK         0.1400 
     81 CB         -6.1554  -23.2850  -48.8715 C.3       14 UNK        -0.1800 
     82 C          -5.7124  -25.7745  -48.9260 C.2       14 UNK         0.5000 
     83 O          -6.7688  -26.3036  -49.2683 O.2       14 UNK        -0.5000 
     84 N          -4.8381  -26.3581  -48.0927 N.am      15 UNK        -0.5000 
     85 CA         -4.9691  -27.7303  -47.5968 C.3       15 UNK         0.1400 
     86 CB         -3.9061  -27.9807  -46.5169 C.3       15 UNK        -0.1800 
     87 C          -4.8678  -28.7969  -48.7094 C.2       15 UNK         0.5000 
     88 O          -5.4017  -29.8932  -48.5345 O.2       15 UNK        -0.5000 
     89 N          -4.2004  -28.4610  -49.8229 N.am      16 UNK        -0.5000 
     90 CA         -4.0512  -29.3149  -51.0003 C.3       16 UNK         0.1400 
     91 CB         -2.5543  -29.5306  -51.2755 C.3       16 UNK        -0.1800 
     92 C          -4.7403  -28.7023  -52.2310 C.2       16 UNK         0.5000 
     93 O          -5.4166  -29.4223  -52.9662 O.2       16 UNK        -0.5000 
     94 N          -4.5500  -27.3937  -52.4471 N.am      17 UNK        -0.5000 
     95 CA         -5.0017  -26.6763  -53.6408 C.3       17 UNK         0.1400 
     96 CB         -4.0978  -25.4504  -53.8452 C.3       17 UNK        -0.1800 
     97 C          -6.4766  -26.2397  -53.5911 C.2       17 UNK         0.5000 
     98 O          -7.0309  -25.9019  -54.6378 O.2       17 UNK        -0.5000 
     99 N          -7.0822  -26.2196  -52.3940 N.am      18 UNK        -0.5000 
    100 CA        -8.4311  -25.7162  -52.1146 C.3       18 UNK         0.1400 
    101 CB        -9.4949  -26.6844  -52.6807 C.3       18 UNK        -0.1800 
    102 C         -8.5858  -24.2504  -52.5773 C.2       18 UNK         0.5000 
    103 O         -7.7996  -23.4001  -52.1564 O.2       18 UNK        -0.5000 
    104 N         -9.5607  -23.9818  -53.4544 N.am      19 UNK        -0.5000 
    105 CA        -9.8374  -22.6653  -54.0316 C.3       19 UNK         0.1400 
    106 CB       -11.2099  -22.7113  -54.7214 C.3       19 UNK        -0.1800 
    107 C         -8.7580  -22.1604  -55.0128 C.2       19 UNK         0.5000 
    108 O         -8.7317  -20.9635  -55.3010 O.2       19 UNK        -0.5000 
    109 N         -7.8926  -23.0557  -55.5125 N.am      20 UNK        -0.5000 
    110 CA        -6.8170  -22.7284  -56.4535 C.3       20 UNK         0.1400 
    111 CB        -6.5127  -23.9597  -57.3229 C.3       20 UNK        -0.1800 
    112 C         -5.5366  -22.2096  -55.7671 C.2       20 UNK         0.5000 
    113 O         -4.5741  -21.8912  -56.4692 O.2       20 UNK        -0.5000 
    114 N         -5.5245  -22.1418  -54.4261 N.am      21 UNK        -0.5000 
    115 CA        -4.4111  -21.6546  -53.6094 C.3       21 UNK         0.1400 
    116 CB        -4.8034  -21.7089  -52.1278 C.3       21 UNK        -0.1800 
    117 C         -3.9716  -20.2328  -54.0021 C.2       21 UNK         0.5000 
    118 O         -4.7804  -19.3037  -53.9542 O.2       21 UNK        -0.5000 
    119 N         -2.7011  -20.1099  -54.4003 N.am      22 UNK        -0.5000 
    120 CA        -2.0746  -18.8903  -54.9334 C.3       22 UNK         0.1400 
    121 C         -2.5585  -18.4661  -56.3563 C.2       22 UNK         0.5000 
    122 N         -3.3005  -19.2916  -57.0863 N.am      22 UNK        -0.7600 
    123 O         -2.2295  -17.3810  -56.8278 O.2       22 UNK        -0.5000 
    124 C124       -2.0641  -17.7151  -53.9066 C.3       23 UNK        -0.0398 
    125 S125       -0.3893  -17.0301  -53.6800 S.3       23 UNK        -0.2404 
    126 C126        0.0665  -17.7357  -52.0650 C.3       23 UNK        -0.0205 
    127 H127        7.2637  -15.5387  -47.4050 H         1 UNK         0.0600 
    128 H128        6.3632  -15.7508  -45.9015 H         1 UNK         0.0600 
    129 H129        7.8001  -14.7245  -45.9308 H         1 UNK         0.0600 
    130 H130        4.4864  -14.6031  -45.8842 H         1 UNK         0.3000 
    131 H131        2.9426  -13.0593  -46.0678 H         1 UNK         0.0600 
    132 H132        2.6163  -11.9061  -48.2849 H         1 UNK         0.0800 
    133 H133        4.1879  -12.4601  -48.7918 H         1 UNK         0.0800 
    134 H134        0.4872  -13.2598  -48.1889 H         1 UNK         0.0800 
    135 H135        0.9244  -13.0339  -49.8704 H         1 UNK         0.0800 
    136 H136        1.3138  -15.5423  -51.0868 H         1 UNK         0.1150 
    137 H137       -2.1829  -17.9518  -50.5108 H         1 UNK         0.1150 
    138 H138       -1.4549  -14.5846  -47.9599 H         1 UNK         0.1150 
    139 H139       -3.8912  -15.6468  -48.5131 H         1 UNK         0.0800 
    140 H140       -3.8462  -17.3461  -48.8924 H         1 UNK         0.0800 
    141 H141       -3.0430  -18.9762  -45.4996 H         1 UNK         0.0800 
    142 H142       -4.2496  -18.9357  -46.7527 H         1 UNK         0.0800 
    143 H143       -2.5615  -19.3523  -48.4951 H         1 UNK         0.0600 
    144 H144       -0.6153  -18.5117  -46.6350 H         1 UNK         0.3000 
    145 H145        2.2295  -20.0900  -48.1692 H         1 UNK         0.0600 
    146 H146        2.9820  -17.6988  -48.0840 H         1 UNK         0.0600 
    147 H147        1.2998  -17.1795  -48.0594 H         1 UNK         0.0600 
    148 H148        1.9379  -18.0351  -49.4556 H         1 UNK         0.0600 
    149 H149        1.4923  -18.4048  -45.8501 H         1 UNK         0.3000 
    150 H150        1.7942  -21.0754  -43.5555 H         1 UNK         0.0600 
    151 H151        4.2377  -20.5749  -43.8847 H         1 UNK         0.0600 
    152 H152        3.5924  -19.7877  -42.4538 H         1 UNK         0.0600 
    153 H153        3.8746  -18.8522  -43.9216 H         1 UNK         0.0600 
    154 H154        1.6363  -18.3045  -43.0496 H         1 UNK         0.3000 
    155 H155       -1.8126  -17.7763  -43.7882 H         1 UNK         0.0600 
    156 H156       -1.8857  -18.7140  -41.5184 H         1 UNK         0.0600 
    157 H157       -1.7327  -16.9660  -41.4062 H         1 UNK         0.0600 
    158 H158       -0.3312  -18.0007  -41.1219 H         1 UNK         0.0600 
    159 H159        0.0003  -15.9446  -42.7426 H         1 UNK         0.3000 
    160 H160        1.5690  -14.8996  -45.8049 H         1 UNK         0.0600 
    161 H161       -0.4280  -13.6309  -43.8568 H         1 UNK         0.0600 
    162 H162       -0.5935  -13.7211  -45.6045 H         1 UNK         0.0600 
    163 H163        0.6914  -12.7536  -44.8965 H         1 UNK         0.0600 
    164 H164        1.7317  -14.4514  -42.8784 H         1 UNK         0.3000 
    165 H165        4.6934  -16.3087  -42.5198 H         1 UNK         0.0600 
    166 H166        5.7161  -14.1817  -41.6691 H         1 UNK         0.0600 
    167 H167        5.7850  -14.2923  -43.4202 H         1 UNK         0.0600 
    168 H168        4.5911  -13.2513  -42.6558 H         1 UNK         0.0600 
    169 H169        3.2611  -14.4232  -40.8484 H         1 UNK         0.3000 
    170 H170        0.8687  -16.7630  -39.6399 H         1 UNK         0.0600 
    171 H171        3.4080  -15.8049  -38.2228 H         1 UNK         0.0600 
    172 H172        1.9358  -16.3880  -37.4447 H         1 UNK         0.0600 
    173 H173        2.9169  -17.4853  -38.4021 H         1 UNK         0.0600 
    174 H174        1.4981  -14.2406  -38.6258 H         1 UNK         0.3000 
    175 H175       -1.0370  -12.5926  -40.1683 H         1 UNK         0.0600 
    176 H176        1.3372  -12.2472  -38.2536 H         1 UNK         0.0600 
    177 H177       -0.1457  -11.3049  -38.2710 H         1 UNK         0.0600 
    178 H178       -0.2044  -13.0005  -37.8354 H         1 UNK         0.0600 
    179 H179        0.0287  -10.8919  -41.1402 H         1 UNK         0.3000 
    180 H180        1.5456   -9.8863  -42.5284 H         1 UNK         0.0600 
    181 H181        2.8014   -8.1310  -41.2580 H         1 UNK         0.0600 
    182 H182        3.4562   -9.3497  -40.1660 H         1 UNK         0.0600 
    183 H183        1.7384   -8.9729  -40.1515 H         1 UNK         0.0600 
    184 H184        3.9161  -11.3818  -42.5356 H         1 UNK         0.3000 
    185 H185        5.6929   -9.3996  -44.9719 H         1 UNK         0.0600 
    186 H186        7.4167  -10.8010  -43.8921 H         1 UNK         0.0600 
    187 H187        6.8368   -9.5925  -42.7576 H         1 UNK         0.0600 
    188 H188        6.3008  -11.2609  -42.6083 H         1 UNK         0.0600 
    189 H189        5.3735  -12.2399  -44.6860 H         1 UNK         0.3000 
    190 H190       -1.0352  -21.1337  -45.8996 H         1 UNK         0.3000 
    191 H191       -2.6908  -23.2880  -45.4942 H         1 UNK         0.0600 
    192 H192       -0.6418  -22.7916  -44.1796 H         1 UNK         0.0600 
    193 H193       -0.6144  -24.4546  -44.7410 H         1 UNK         0.0600 
    194 H194        0.3722  -23.2445  -45.5500 H         1 UNK         0.0600 
    195 H195       -1.0263  -22.6651  -48.4595 H         1 UNK         0.3000 
    196 H196       -0.8470  -25.2164  -49.6542 H         1 UNK         0.0600 
    197 H197        0.0892  -23.1455  -50.6599 H         1 UNK         0.0600 
    198 H198       -1.5297  -22.4842  -50.8770 H         1 UNK         0.0600 
    199 H199       -1.0250  -23.9042  -51.7876 H         1 UNK         0.0600 
    200 H200       -3.6822  -23.2501  -48.9116 H         1 UNK         0.3000 
    201 H201       -5.6181  -24.4572  -50.5840 H         1 UNK         0.0600 
    202 H202       -5.9656  -22.3248  -49.3515 H         1 UNK         0.0600 
    203 H203       -5.9141  -23.1839  -47.8127 H         1 UNK         0.0600 
    204 H204       -7.2258  -23.4792  -48.9513 H         1 UNK         0.0600 
    205 H205       -3.9830  -25.8701  -47.8487 H         1 UNK         0.3000 
    206 H206       -5.9539  -27.8281  -47.1354 H         1 UNK         0.0600 
    207 H207       -2.8967  -27.9109  -46.9243 H         1 UNK         0.0600 
    208 H208       -3.9902  -27.2592  -45.7040 H         1 UNK         0.0600 
    209 H209       -4.0166  -28.9751  -46.0827 H         1 UNK         0.0600 
    210 H210       -3.8013  -27.5314  -49.8876 H         1 UNK         0.3000 
    211 H211       -4.5043  -30.2934  -50.8283 H         1 UNK         0.0600 
    212 H212       -2.0340  -28.5870  -51.4460 H         1 UNK         0.0600 
    213 H213       -2.4041  -30.1543  -52.1577 H         1 UNK         0.0600 
    214 H214       -2.0702  -30.0314  -50.4370 H         1 UNK         0.0600 
    215 H215       -3.9688  -26.8604  -51.8033 H         1 UNK         0.3000 
    216 H216       -4.8842  -27.3287  -54.5087 H         1 UNK         0.0600 
    217 H217       -4.3498  -24.9266  -54.7677 H         1 UNK         0.0600 
    218 H218       -3.0488  -25.7387  -53.9130 H         1 UNK         0.0600 
    219 H219       -4.1970  -24.7394  -53.0249 H         1 UNK         0.0600 
    220 H220       -6.5546  -26.5150  -51.5845 H         1 UNK         0.3000 
    221 H221       -8.5500  -25.7001  -51.0316 H         1 UNK         0.0600 
    222 H222       -9.4553  -26.7561  -53.7681 H         1 UNK         0.0600 
    223 H223       -9.3518  -27.6890  -52.2823 H         1 UNK         0.0600 
    224 H224      -10.5020  -26.3732  -52.4006 H         1 UNK         0.0600 
    225 H225      -10.1427  -24.7433  -53.7721 H         1 UNK         0.3000 
    226 H226       -9.8915  -21.9439  -53.2135 H         1 UNK         0.0600 
    227 H227      -11.9964  -22.9876  -54.0188 H         1 UNK         0.0600 
    228 H228      -11.4742  -21.7368  -55.1343 H         1 UNK         0.0600 
    229 H229      -11.2232  -23.4297  -55.5420 H         1 UNK         0.0600 
    230 H230       -7.9416  -24.0211  -55.2059 H         1 UNK         0.3000 
    231 H231       -7.1628  -21.9359  -57.1204 H         1 UNK         0.0600 
    232 H232       -5.8234  -23.7055  -58.1291 H         1 UNK         0.0600 
    233 H233       -7.4181  -24.3539  -57.7845 H         1 UNK         0.0600 
    234 H234       -6.0517  -24.7608  -56.7461 H         1 UNK         0.0600 
    235 H235       -6.3617  -22.4108  -53.9277 H         1 UNK         0.3000 
    236 H236       -3.5748  -22.3397  -53.7615 H         1 UNK         0.0600 
    237 H237       -5.6590  -21.0681  -51.9111 H         1 UNK         0.0600 
    238 H238       -5.0686  -22.7226  -51.8420 H         1 UNK         0.0600 
    239 H239       -3.9794  -21.3928  -51.4867 H         1 UNK         0.0600 
    240 H240       -2.1225  -20.9370  -54.4333 H         1 UNK         0.3000 
    241 H241       -1.0437  -19.2023  -55.1040 H         1 UNK         0.0600 
    242 H242       -3.5970  -20.1964  -56.7335 H         1 UNK         0.3800 
    243 H243       -3.5898  -19.0040  -58.0076 H         1 UNK         0.3800 
    244 H244       -2.4389  -18.0376  -52.9355 H         1 UNK         0.0800 
    245 H245       -2.7351  -16.9087  -54.2072 H         1 UNK         0.0800 
    246 H246        1.1512  -17.8465  -52.0271 H         1 UNK         0.0800 
    247 H247       -0.3401  -18.7430  -51.9588 H         1 UNK         0.0800 
@<TRIPOS>BOND
     1    1    2 1    
     2    1  127 1    
     3    1  128 1    
     4    1  129 1    
     5    2    3 2    
     6    2    4 am   BACKBONE|DICT|INTERRES
     7    4    5 1    
     8    4  130 1    
     9    5    6 1    
    10    5   65 1    
    11    5  131 1    
    12    6    7 1    
    13    6  132 1    
    14    6  133 1    
    15    7    8 1    
    16    8    9 1    
    17    8  134 1    
    18    8  135 1    
    19    9   10 ar   
    20    9   14 ar   
    21   10   11 ar   
    22   10  136 1    
    23   11   12 ar   
    24   11  126 1    
    25   12   13 ar   
    26   12  137 1    
    27   13   14 ar   
    28   13   15 1    
    29   14  138 1    
    30   15   16 1    
    31   15  139 1    
    32   15  140 1    
    33   16   17 1    
    34   17   18 1    
    35   17  141 1    
    36   17  142 1    
    37   18   19 1    
    38   18   67 1    
    39   18  143 1    
    40   19   20 am   BACKBONE|DICT|INTERRES
    41   19  144 1    
    42   20   21 2    
    43   20   22 1    
    44   22   23 1    
    45   22   24 1    
    46   22  145 1    
    47   23  146 1    
    48   23  147 1    
    49   23  148 1    
    50   24   25 am   BACKBONE|DICT|INTERRES
    51   24  149 1    
    52   25   26 2    
    53   25   27 1    
    54   27   28 1    
    55   27   29 1    
    56   27  150 1    
    57   28  151 1    
    58   28  152 1    
    59   28  153 1    
    60   29   30 am   BACKBONE|DICT|INTERRES
    61   29  154 1    
    62   30   31 2    
    63   30   32 1    
    64   32   33 1    
    65   32   34 1    
    66   32  155 1    
    67   33  156 1    
    68   33  157 1    
    69   33  158 1    
    70   34   35 am   BACKBONE|DICT|INTERRES
    71   34  159 1    
    72   35   36 2    
    73   35   37 1    
    74   37   38 1    
    75   37   39 1    
    76   37  160 1    
    77   38  161 1    
    78   38  162 1    
    79   38  163 1    
    80   39   40 am   BACKBONE|DICT|INTERRES
    81   39  164 1    
    82   40   41 2    
    83   40   42 1    
    84   42   43 1    
    85   42   44 1    
    86   42  165 1    
    87   43  166 1    
    88   43  167 1    
    89   43  168 1    
    90   44   45 am   BACKBONE|DICT|INTERRES
    91   44  169 1    
    92   45   46 2    
    93   45   47 1    
    94   47   48 1    
    95   47   49 1    
    96   47  170 1    
    97   48  171 1    
    98   48  172 1    
    99   48  173 1    
   100   49   50 am   BACKBONE|DICT|INTERRES
   101   49  174 1    
   102   50   51 2    
   103   50   52 1    
   104   52   53 1    
   105   52   54 1    
   106   52  175 1    
   107   53  176 1    
   108   53  177 1    
   109   53  178 1    
   110   54   55 am   BACKBONE|DICT|INTERRES
   111   54  179 1    
   112   55   56 2    
   113   55   57 1    
   114   57   58 1    
   115   57   59 1    
   116   57  180 1    
   117   58  181 1    
   118   58  182 1    
   119   58  183 1    
   120   59   60 am   BACKBONE|DICT|INTERRES
   121   59  184 1    
   122   60   61 2    
   123   60   62 1    
   124   62   63 1    
   125   62   64 1    
   126   62  185 1    
   127   63  186 1    
   128   63  187 1    
   129   63  188 1    
   130   64   65 am   BACKBONE|DICT|INTERRES
   131   64  189 1    
   132   65   66 2    
   133   67   68 2    
   134   67   69 am   BACKBONE|DICT|INTERRES
   135   69   70 1    
   136   69  190 1    
   137   70   71 1    
   138   70   72 1    
   139   70  191 1    
   140   71  192 1    
   141   71  193 1    
   142   71  194 1    
   143   72   73 2    
   144   72   74 am   BACKBONE|DICT|INTERRES
   145   74   75 1    
   146   74  195 1    
   147   75   76 1    
   148   75   77 1    
   149   75  196 1    
   150   76  197 1    
   151   76  198 1    
   152   76  199 1    
   153   77   78 2    
   154   77   79 am   BACKBONE|DICT|INTERRES
   155   79   80 1    
   156   79  200 1    
   157   80   81 1    
   158   80   82 1    
   159   80  201 1    
   160   81  202 1    
   161   81  203 1    
   162   81  204 1    
   163   82   83 2    
   164   82   84 am   BACKBONE|DICT|INTERRES
   165   84   85 1    
   166   84  205 1    
   167   85   86 1    
   168   85   87 1    
   169   85  206 1    
   170   86  207 1    
   171   86  208 1    
   172   86  209 1    
   173   87   88 2    
   174   87   89 am   BACKBONE|DICT|INTERRES
   175   89   90 1    
   176   89  210 1    
   177   90   91 1    
   178   90   92 1    
   179   90  211 1    
   180   91  212 1    
   181   91  213 1    
   182   91  214 1    
   183   92   93 2    
   184   92   94 am   BACKBONE|DICT|INTERRES
   185   94   95 1    
   186   94  215 1    
   187   95   96 1    
   188   95   97 1    
   189   95  216 1    
   190   96  217 1    
   191   96  218 1    
   192   96  219 1    
   193   97   98 2    
   194   97   99 am   BACKBONE|DICT|INTERRES
   195   99  100 1    
   196   99  220 1    
   197  100  101 1    
   198  100  102 1    
   199  100  221 1    
   200  101  222 1    
   201  101  223 1    
   202  101  224 1    
   203  102  103 2    
   204  102  104 am   BACKBONE|DICT|INTERRES
   205  104  105 1    
   206  104  225 1    
   207  105  106 1    
   208  105  107 1    
   209  105  226 1    
   210  106  227 1    
   211  106  228 1    
   212  106  229 1    
   213  107  108 2    
   214  107  109 am   BACKBONE|DICT|INTERRES
   215  109  110 1    
   216  109  230 1    
   217  110  111 1    
   218  110  112 1    
   219  110  231 1    
   220  111  232 1    
   221  111  233 1    
   222  111  234 1    
   223  112  113 2    
   224  112  114 am   BACKBONE|DICT|INTERRES
   225  114  115 1    
   226  114  235 1    
   227  115  116 1    
   228  115  117 1    
   229  115  236 1    
   230  116  237 1    
   231  116  238 1    
   232  116  239 1    
   233  117  118 2    
   234  117  119 am   BACKBONE|DICT|INTERRES
   235  119  120 1    
   236  119  240 1    
   237  120  121 1    
   238  120  124 1    
   239  120  241 1    
   240  121  122 am   BACKBONE|DICT|INTERRES
   241  121  123 2    
   242  122  242 1    
   243  122  243 1    
   244  124  125 1    
   245  124  244 1    
   246  124  245 1    
   247  125  126 1    
   248  126  246 1    
   249  126  247 1    
@<TRIPOS>SUBSTRUCTURE
     1 UNK         1 GROUP             0       ****    0 ROOT    
