@<TRIPOS>MOLECULE
3R540
247   249    1
SMALL
USER_CHARGES


@<TRIPOS>ATOM
      1 CA          3.5305   -9.7790  -51.9037 C.3       0 UNK        -0.1800 
      2 C           3.1450  -10.9426  -51.0011 C.2       0 UNK         0.5000 
      3 O           2.4969  -10.7330  -49.9768 O.2       0 UNK        -0.5000 
      4 N           3.5479  -12.1635  -51.3735 N.am      1 UNK        -0.5000 
      5 CA          3.2237  -13.4104  -50.6784 C.3       1 UNK         0.1400 
      6 C6          4.1624  -14.5557  -51.1397 C.3       23 UNK        -0.0398 
      7 S7          3.8414  -16.1570  -50.3185 S.3       23 UNK        -0.2404 
      8 C8          3.1154  -17.1141  -51.6893 C.3       23 UNK        -0.0205 
      9 C9          2.0481  -18.0771  -51.1971 C.ar      23 UNK        -0.0193 
     10 C10         0.6941  -17.7540  -51.3295 C.ar      23 UNK        -0.1150 
     11 C11        -0.2906  -18.6426  -50.8904 C.ar      23 UNK        -0.0193 
     12 C12         0.0834  -19.8650  -50.3294 C.ar      23 UNK        -0.1150 
     13 C13         1.4336  -20.1910  -50.1726 C.ar      23 UNK        -0.0193 
     14 C14         2.4116  -19.2948  -50.6154 C.ar      23 UNK        -0.1150 
     15 C15         1.8418  -21.5014  -49.5175 C.3       23 UNK        -0.0205 
     16 S16         1.7704  -21.3930  -47.7014 S.3       23 UNK        -0.2404 
     17 C17         0.0144  -21.7432  -47.3409 C.3       23 UNK        -0.0398 
     18 CA         -0.1161  -22.9839  -46.4305 C.3       11 UNK         0.1400 
     19 N           0.3279  -22.7105  -45.0631 N.am      11 UNK        -0.5000 
     20 C           0.9666  -23.5912  -44.2834 C.2       10 UNK         0.5000 
     21 O           1.2643  -24.7323  -44.6372 O.2       10 UNK        -0.5000 
     22 CA          1.3029  -23.1257  -42.8534 C.3       10 UNK         0.1400 
     23 CB          2.6140  -22.3262  -42.8464 C.3       10 UNK        -0.1800 
     24 N           0.2440  -22.3152  -42.2489 N.am      10 UNK        -0.5000 
     25 C          -1.0013  -22.7488  -42.0047 C.2       9 UNK         0.5000 
     26 O          -1.3882  -23.8923  -42.2463 O.2       9 UNK        -0.5000 
     27 CA         -2.0013  -21.7224  -41.4406 C.3       9 UNK         0.1400 
     28 CB         -1.9750  -21.7428  -39.9053 C.3       9 UNK        -0.1800 
     29 N          -1.7908  -20.3499  -41.9021 N.am      9 UNK        -0.5000 
     30 C          -1.6863  -19.9295  -43.1714 C.2       8 UNK         0.5000 
     31 O          -1.7356  -20.6736  -44.1527 O.2       8 UNK        -0.5000 
     32 CA         -1.4658  -18.4177  -43.3719 C.3       8 UNK         0.1400 
     33 CB         -2.1247  -17.5557  -42.2751 C.3       8 UNK        -0.1800 
     34 N          -0.0617  -18.0229  -43.5146 N.am      8 UNK        -0.5000 
     35 C           1.0150  -18.4162  -42.8130 C.2       7 UNK         0.5000 
     36 O           1.0056  -19.3149  -41.9693 O.2       7 UNK        -0.5000 
     37 CA          2.3191  -17.6283  -43.0671 C.3       7 UNK         0.1400 
     38 CB          3.5966  -18.4449  -42.7779 C.3       7 UNK        -0.1800 
     39 N           2.3705  -16.9884  -44.3863 N.am      7 UNK        -0.5000 
     40 C           2.4451  -17.5899  -45.5848 C.2       6 UNK         0.5000 
     41 O           2.5579  -18.8058  -45.7220 O.2       6 UNK        -0.5000 
     42 CA          2.3650  -16.6930  -46.8399 C.3       6 UNK         0.1400 
     43 CB          1.2123  -17.1311  -47.7588 C.3       6 UNK        -0.1800 
     44 N           2.1793  -15.2828  -46.4939 N.am      6 UNK        -0.5000 
     45 C           3.1682  -14.3980  -46.3070 C.2       5 UNK         0.5000 
     46 O           4.3520  -14.6372  -46.5429 O.2       5 UNK        -0.5000 
     47 CA          2.7803  -13.0258  -45.7195 C.3       5 UNK         0.1400 
     48 CB          2.8368  -11.9266  -46.7903 C.3       5 UNK        -0.1800 
     49 N           1.4578  -13.0288  -45.0851 N.am      5 UNK        -0.5000 
     50 C           1.2058  -13.5659  -43.8818 C.2       4 UNK         0.5000 
     51 O           2.0704  -14.0940  -43.1829 O.2       4 UNK        -0.5000 
     52 CA         -0.2584  -13.5761  -43.3996 C.3       4 UNK         0.1400 
     53 CB         -0.5754  -12.2967  -42.6120 C.3       4 UNK        -0.1800 
     54 N          -1.2348  -13.7315  -44.4798 N.am      4 UNK        -0.5000 
     55 C          -1.3108  -14.7874  -45.3005 C.2       3 UNK         0.5000 
     56 O          -0.5532  -15.7547  -45.2237 O.2       3 UNK        -0.5000 
     57 CA         -2.3721  -14.7528  -46.4202 C.3       3 UNK         0.1400 
     58 CB         -3.4020  -13.6110  -46.2779 C.3       3 UNK        -0.1800 
     59 N          -1.7669  -14.7126  -47.7553 N.am      3 UNK        -0.5000 
     60 C          -0.8545  -13.8413  -48.2043 C.2       2 UNK         0.5000 
     61 O          -0.3421  -12.9576  -47.5120 O.2       2 UNK        -0.5000 
     62 CA         -0.4587  -13.9613  -49.6814 C.3       2 UNK         0.1400 
     63 CB         -1.3343  -13.0330  -50.5433 C.3       2 UNK        -0.1800 
     64 N           0.9501  -13.6078  -49.7927 N.am      2 UNK        -0.5000 
     65 C           1.7275  -13.7444  -50.8704 C.2       1 UNK         0.5000 
     66 O           1.3241  -14.1137  -51.9746 O.2       1 UNK        -0.5000 
     67 C          -1.5470  -23.5500  -46.4457 C.2       11 UNK         0.5000 
     68 O          -1.8820  -24.2885  -47.3719 O.2       11 UNK        -0.5000 
     69 N          -2.3670  -23.2407  -45.4305 N.am      12 UNK        -0.5000 
     70 CA         -3.7017  -23.8210  -45.2534 C.3       12 UNK         0.1400 
     71 CB         -4.4674  -23.0686  -44.1581 C.3       12 UNK        -0.1800 
     72 C          -3.6462  -25.3275  -44.9478 C.2       12 UNK         0.5000 
     73 O          -4.4678  -26.0780  -45.4722 O.2       12 UNK        -0.5000 
     74 N          -2.6373  -25.7537  -44.1739 N.am      13 UNK        -0.5000 
     75 CA         -2.3268  -27.1599  -43.8982 C.3       13 UNK         0.1400 
     76 CB         -1.2048  -27.2282  -42.8514 C.3       13 UNK        -0.1800 
     77 C          -1.9375  -27.9608  -45.1588 C.2       13 UNK         0.5000 
     78 O          -2.1880  -29.1649  -45.2154 O.2       13 UNK        -0.5000 
     79 N          -1.3601  -27.2727  -46.1527 N.am      14 UNK        -0.5000 
     80 CA         -1.0202  -27.8132  -47.4700 C.3       14 UNK         0.1400 
     81 CB          0.2301  -27.0790  -47.9845 C.3       14 UNK        -0.1800 
     82 C          -2.1764  -27.6858  -48.4857 C.2       14 UNK         0.5000 
     83 O          -2.0348  -28.1637  -49.6115 O.2       14 UNK        -0.5000 
     84 N          -3.2743  -27.0189  -48.0919 N.am      15 UNK        -0.5000 
     85 CA         -4.4444  -26.6391  -48.8955 C.3       15 UNK         0.1400 
     86 CB         -5.1974  -27.8840  -49.4074 C.3       15 UNK        -0.1800 
     87 C          -4.1289  -25.6297  -50.0230 C.2       15 UNK         0.5000 
     88 O          -4.9350  -25.4605  -50.9384 O.2       15 UNK        -0.5000 
     89 N          -2.9771  -24.9539  -49.9305 N.am      16 UNK        -0.5000 
     90 CA         -2.4973  -23.9697  -50.8979 C.3       16 UNK         0.1400 
     91 CB         -0.9658  -23.9140  -50.8269 C.3       16 UNK        -0.1800 
     92 C          -3.1087  -22.5787  -50.6647 C.2       16 UNK         0.5000 
     93 O          -3.2738  -21.8237  -51.6216 O.2       16 UNK        -0.5000 
     94 N          -3.4832  -22.2763  -49.4112 N.am      17 UNK        -0.5000 
     95 CA         -4.1382  -21.0221  -49.0153 C.3       17 UNK         0.1400 
     96 CB         -4.0949  -20.8724  -47.4876 C.3       17 UNK        -0.1800 
     97 C          -5.5823  -20.8692  -49.5440 C.2       17 UNK         0.5000 
     98 O          -6.1675  -19.7962  -49.4033 O.2       17 UNK        -0.5000 
     99 N          -6.1313  -21.9291  -50.1519 N.am      18 UNK        -0.5000 
    100 CA        -7.4058  -21.9164  -50.8690 C.3       18 UNK         0.1400 
    101 CB        -7.9172  -23.3618  -50.9776 C.3       18 UNK        -0.1800 
    102 C         -7.3080  -21.2701  -52.2690 C.2       18 UNK         0.5000 
    103 O         -8.3470  -21.0090  -52.8773 O.2       18 UNK        -0.5000 
    104 N         -6.0858  -21.0382  -52.7661 N.am      19 UNK        -0.5000 
    105 CA        -5.7968  -20.4523  -54.0715 C.3       19 UNK         0.1400 
    106 CB        -5.6216  -21.5834  -55.1058 C.3       19 UNK        -0.1800 
    107 C         -4.5729  -19.5249  -53.9534 C.2       19 UNK         0.5000 
    108 O         -4.3565  -18.9396  -52.8908 O.2       19 UNK        -0.5000 
    109 N         -3.8125  -19.3772  -55.0497 N.am      20 UNK        -0.5000 
    110 CA        -2.5221  -18.6773  -55.1573 C.3       20 UNK         0.1400 
    111 CB        -1.4161  -19.5174  -54.4840 C.3       20 UNK        -0.1800 
    112 C         -2.5340  -17.2016  -54.6915 C.2       20 UNK         0.5000 
    113 O         -1.5086  -16.6891  -54.2430 O.2       20 UNK        -0.5000 
    114 N         -3.7000  -16.5514  -54.8159 N.am      21 UNK        -0.5000 
    115 CA        -4.0129  -15.1764  -54.4090 C.3       21 UNK         0.1400 
    116 CB        -3.0900  -14.1502  -55.1016 C.3       21 UNK        -0.1800 
    117 C         -4.1066  -14.9577  -52.8814 C.2       21 UNK         0.5000 
    118 O         -4.1314  -13.8051  -52.4474 O.2       21 UNK        -0.5000 
    119 N         -4.2210  -16.0359  -52.0905 N.am      22 UNK        -0.5000 
    120 CA        -4.5396  -15.9657  -50.6503 C.3       22 UNK         0.1400 
    121 C         -6.0293  -15.6194  -50.3488 C.2       22 UNK         0.5000 
    122 N         -6.9443  -15.6900  -51.3089 N.am      22 UNK        -0.7600 
    123 O         -6.3582  -15.2644  -49.2205 O.2       22 UNK        -0.5000 
    124 C124       -4.1227  -17.2563  -49.8997 C.3       23 UNK        -0.0398 
    125 S125       -2.3353  -17.3601  -49.5691 S.3       23 UNK        -0.2404 
    126 C126       -1.7597  -18.2867  -51.0161 C.3       23 UNK        -0.0205 
    127 H127        4.1096  -10.1086  -52.7667 H         1 UNK         0.0600 
    128 H128        4.1287   -9.0562  -51.3488 H         1 UNK         0.0600 
    129 H129        2.6353   -9.2746  -52.2674 H         1 UNK         0.0600 
    130 H130        4.0545  -12.2667  -52.2412 H         1 UNK         0.3000 
    131 H131        3.4081  -13.2553  -49.6128 H         1 UNK         0.0600 
    132 H132        4.1159  -14.6773  -52.2230 H         1 UNK         0.0800 
    133 H133        5.1956  -14.2830  -50.9210 H         1 UNK         0.0800 
    134 H134        2.6800  -16.4462  -52.4336 H         1 UNK         0.0800 
    135 H135        3.9064  -17.6642  -52.2009 H         1 UNK         0.0800 
    136 H136        0.4042  -16.8098  -51.7704 H         1 UNK         0.1150 
    137 H137       -0.6839  -20.5497  -50.0027 H         1 UNK         0.1150 
    138 H138        3.4583  -19.5382  -50.4986 H         1 UNK         0.1150 
    139 H139        2.8631  -21.7555  -49.8048 H         1 UNK         0.0800 
    140 H140        1.2215  -22.3198  -49.8775 H         1 UNK         0.0800 
    141 H141       -0.5200  -21.9011  -48.2762 H         1 UNK         0.0800 
    142 H142       -0.4353  -20.8639  -46.8758 H         1 UNK         0.0800 
    143 H143        0.5123  -23.7680  -46.8595 H         1 UNK         0.0600 
    144 H144        0.0763  -21.8079  -44.6802 H         1 UNK         0.3000 
    145 H145        1.4373  -24.0153  -42.2348 H         1 UNK         0.0600 
    146 H146        3.4373  -22.9215  -43.2430 H         1 UNK         0.0600 
    147 H147        2.8878  -22.0207  -41.8364 H         1 UNK         0.0600 
    148 H148        2.5343  -21.4271  -43.4587 H         1 UNK         0.0600 
    149 H149        0.4671  -21.3454  -42.0473 H         1 UNK         0.3000 
    150 H150       -2.9998  -22.0157  -41.7602 H         1 UNK         0.0600 
    151 H151       -1.0119  -21.4100  -39.5160 H         1 UNK         0.0600 
    152 H152       -2.1538  -22.7493  -39.5243 H         1 UNK         0.0600 
    153 H153       -2.7481  -21.0974  -39.4878 H         1 UNK         0.0600 
    154 H154       -1.6813  -19.6563  -41.1770 H         1 UNK         0.3000 
    155 H155       -1.9495  -18.1675  -44.3174 H         1 UNK         0.0600 
    156 H156       -1.6116  -17.6457  -41.3170 H         1 UNK         0.0600 
    157 H157       -3.1685  -17.8353  -42.1249 H         1 UNK         0.0600 
    158 H158       -2.1129  -16.5017  -42.5536 H         1 UNK         0.0600 
    159 H159        0.0794  -17.2837  -44.1970 H         1 UNK         0.3000 
    160 H160        2.2996  -16.8080  -42.3486 H         1 UNK         0.0600 
    161 H161        3.6763  -19.3225  -43.4182 H         1 UNK         0.0600 
    162 H162        3.6126  -18.7950  -41.7452 H         1 UNK         0.0600 
    163 H163        4.4909  -17.8401  -42.9268 H         1 UNK         0.0600 
    164 H164        2.2856  -15.9805  -44.3703 H         1 UNK         0.3000 
    165 H165        3.3000  -16.8208  -47.3882 H         1 UNK         0.0600 
    166 H166        1.1600  -16.5090  -48.6517 H         1 UNK         0.0600 
    167 H167        1.3530  -18.1593  -48.0911 H         1 UNK         0.0600 
    168 H168        0.2444  -17.0867  -47.2618 H         1 UNK         0.0600 
    169 H169        1.2365  -15.0194  -46.2356 H         1 UNK         0.3000 
    170 H170        3.5256  -12.7816  -44.9593 H         1 UNK         0.0600 
    171 H171        2.6423  -10.9454  -46.3574 H         1 UNK         0.0600 
    172 H172        2.1079  -12.0897  -47.5816 H         1 UNK         0.0600 
    173 H173        3.8212  -11.8842  -47.2581 H         1 UNK         0.0600 
    174 H174        0.6867  -12.6791  -45.6437 H         1 UNK         0.3000 
    175 H175       -0.3737  -14.4284  -42.7265 H         1 UNK         0.0600 
    176 H176        0.1219  -12.1647  -41.7835 H         1 UNK         0.0600 
    177 H177       -0.5085  -11.4091  -43.2424 H         1 UNK         0.0600 
    178 H178       -1.5788  -12.3330  -42.1873 H         1 UNK         0.0600 
    179 H179       -1.8711  -12.9620  -44.6283 H         1 UNK         0.3000 
    180 H180       -2.9127  -15.6979  -46.3524 H         1 UNK         0.0600 
    181 H181       -2.9443  -12.6266  -46.3828 H         1 UNK         0.0600 
    182 H182       -3.9045  -13.6485  -45.3104 H         1 UNK         0.0600 
    183 H183       -4.1763  -13.6937  -47.0412 H         1 UNK         0.0600 
    184 H184       -2.0686  -15.4489  -48.3813 H         1 UNK         0.3000 
    185 H185       -0.5847  -14.9950  -50.0076 H         1 UNK         0.0600 
    186 H186       -2.3939  -13.2145  -50.3616 H         1 UNK         0.0600 
    187 H187       -1.1400  -11.9825  -50.3238 H         1 UNK         0.0600 
    188 H188       -1.1630  -13.1921  -51.6078 H         1 UNK         0.0600 
    189 H189        1.3385  -13.2312  -48.9381 H         1 UNK         0.3000 
    190 H190       -2.0615  -22.5599  -44.7433 H         1 UNK         0.3000 
    191 H191       -4.2451  -23.7010  -46.1919 H         1 UNK         0.0600 
    192 H192       -4.4007  -21.9883  -44.2892 H         1 UNK         0.0600 
    193 H193       -5.5245  -23.3360  -44.1765 H         1 UNK         0.0600 
    194 H194       -4.0919  -23.3190  -43.1675 H         1 UNK         0.0600 
    195 H195       -2.0439  -25.0636  -43.7229 H         1 UNK         0.3000 
    196 H196       -3.2204  -27.6238  -43.4758 H         1 UNK         0.0600 
    197 H197       -0.9528  -28.2622  -42.6124 H         1 UNK         0.0600 
    198 H198       -1.5037  -26.7436  -41.9217 H         1 UNK         0.0600 
    199 H199       -0.2958  -26.7398  -43.2053 H         1 UNK         0.0600 
    200 H200       -1.1982  -26.2848  -46.0200 H         1 UNK         0.3000 
    201 H201       -0.7784  -28.8740  -47.3782 H         1 UNK         0.0600 
    202 H202        0.5694  -27.5001  -48.9317 H         1 UNK         0.0600 
    203 H203        1.0565  -27.1638  -47.2784 H         1 UNK         0.0600 
    204 H204        0.0388  -26.0186  -48.1497 H         1 UNK         0.0600 
    205 H205       -3.3002  -26.6870  -47.1356 H         1 UNK         0.3000 
    206 H206       -5.1133  -26.1145  -48.2123 H         1 UNK         0.0600 
    207 H207       -5.4121  -28.5766  -48.5936 H         1 UNK         0.0600 
    208 H208       -6.1522  -27.6066  -49.8555 H         1 UNK         0.0600 
    209 H209       -4.6273  -28.4214  -50.1655 H         1 UNK         0.0600 
    210 H210       -2.4118  -25.0831  -49.0976 H         1 UNK         0.3000 
    211 H211       -2.7783  -24.2880  -51.9042 H         1 UNK         0.0600 
    212 H212       -0.5262  -24.8596  -51.1446 H         1 UNK         0.0600 
    213 H213       -0.5677  -23.1339  -51.4776 H         1 UNK         0.0600 
    214 H214       -0.6217  -23.7157  -49.8129 H         1 UNK         0.0600 
    215 H215       -3.3202  -22.9618  -48.6865 H         1 UNK         0.3000 
    216 H216       -3.5571  -20.2036  -49.4393 H         1 UNK         0.0600 
    217 H217       -4.7181  -21.6164  -46.9940 H         1 UNK         0.0600 
    218 H218       -4.4636  -19.8916  -47.1846 H         1 UNK         0.0600 
    219 H219       -3.0790  -20.9611  -47.1042 H         1 UNK         0.0600 
    220 H220       -5.5855  -22.7752  -50.2247 H         1 UNK         0.3000 
    221 H221       -8.1304  -21.3401  -50.2901 H         1 UNK         0.0600 
    222 H222       -7.2412  -23.9837  -51.5659 H         1 UNK         0.0600 
    223 H223       -8.0235  -23.8192  -49.9938 H         1 UNK         0.0600 
    224 H224       -8.8957  -23.3960  -51.4583 H         1 UNK         0.0600 
    225 H225       -5.2689  -21.2212  -52.1931 H         1 UNK         0.3000 
    226 H226       -6.6303  -19.8193  -54.3819 H         1 UNK         0.0600 
    227 H227       -6.4862  -22.2476  -55.1102 H         1 UNK         0.0600 
    228 H228       -5.5218  -21.1916  -56.1183 H         1 UNK         0.0600 
    229 H229       -4.7404  -22.1895  -54.8900 H         1 UNK         0.0600 
    230 H230       -4.0999  -19.8703  -55.8835 H         1 UNK         0.3000 
    231 H231       -2.2890  -18.6359  -56.2222 H         1 UNK         0.0600 
    232 H232       -1.3324  -20.4973  -54.9536 H         1 UNK         0.0600 
    233 H233       -1.6181  -19.6800  -53.4266 H         1 UNK         0.0600 
    234 H234       -0.4391  -19.0395  -54.5645 H         1 UNK         0.0600 
    235 H235       -4.4757  -17.0757  -55.1953 H         1 UNK         0.3000 
    236 H236       -5.0210  -14.9935  -54.7833 H         1 UNK         0.0600 
    237 H237       -2.0769  -14.1769  -54.6996 H         1 UNK         0.0600 
    238 H238       -3.0325  -14.3298  -56.1751 H         1 UNK         0.0600 
    239 H239       -3.4634  -13.1348  -54.9643 H         1 UNK         0.0600 
    240 H240       -4.1992  -16.9646  -52.5003 H         1 UNK         0.3000 
    241 H241       -3.9663  -15.1411  -50.2229 H         1 UNK         0.0600 
    242 H242       -7.9015  -15.4558  -51.0973 H         1 UNK         0.3800 
    243 H243       -6.6952  -15.9874  -52.2376 H         1 UNK         0.3800 
    244 H244       -4.4527  -18.1367  -50.4482 H         1 UNK         0.0800 
    245 H245       -4.6087  -17.3199  -48.9240 H         1 UNK         0.0800 
    246 H246       -1.9206  -17.6821  -51.9050 H         1 UNK         0.0800 
    247 H247       -2.3529  -19.1922  -51.1440 H         1 UNK         0.0800 
@<TRIPOS>BOND
     1    1    2 1    
     2    1  127 1    
     3    1  128 1    
     4    1  129 1    
     5    2    3 2    
     6    2    4 am   BACKBONE|DICT|INTERRES
     7    4    5 1    
     8    4  130 1    
     9    5    6 1    
    10    5   65 1    
    11    5  131 1    
    12    6    7 1    
    13    6  132 1    
    14    6  133 1    
    15    7    8 1    
    16    8    9 1    
    17    8  134 1    
    18    8  135 1    
    19    9   10 ar   
    20    9   14 ar   
    21   10   11 ar   
    22   10  136 1    
    23   11   12 ar   
    24   11  126 1    
    25   12   13 ar   
    26   12  137 1    
    27   13   14 ar   
    28   13   15 1    
    29   14  138 1    
    30   15   16 1    
    31   15  139 1    
    32   15  140 1    
    33   16   17 1    
    34   17   18 1    
    35   17  141 1    
    36   17  142 1    
    37   18   19 1    
    38   18   67 1    
    39   18  143 1    
    40   19   20 am   BACKBONE|DICT|INTERRES
    41   19  144 1    
    42   20   21 2    
    43   20   22 1    
    44   22   23 1    
    45   22   24 1    
    46   22  145 1    
    47   23  146 1    
    48   23  147 1    
    49   23  148 1    
    50   24   25 am   BACKBONE|DICT|INTERRES
    51   24  149 1    
    52   25   26 2    
    53   25   27 1    
    54   27   28 1    
    55   27   29 1    
    56   27  150 1    
    57   28  151 1    
    58   28  152 1    
    59   28  153 1    
    60   29   30 am   BACKBONE|DICT|INTERRES
    61   29  154 1    
    62   30   31 2    
    63   30   32 1    
    64   32   33 1    
    65   32   34 1    
    66   32  155 1    
    67   33  156 1    
    68   33  157 1    
    69   33  158 1    
    70   34   35 am   BACKBONE|DICT|INTERRES
    71   34  159 1    
    72   35   36 2    
    73   35   37 1    
    74   37   38 1    
    75   37   39 1    
    76   37  160 1    
    77   38  161 1    
    78   38  162 1    
    79   38  163 1    
    80   39   40 am   BACKBONE|DICT|INTERRES
    81   39  164 1    
    82   40   41 2    
    83   40   42 1    
    84   42   43 1    
    85   42   44 1    
    86   42  165 1    
    87   43  166 1    
    88   43  167 1    
    89   43  168 1    
    90   44   45 am   BACKBONE|DICT|INTERRES
    91   44  169 1    
    92   45   46 2    
    93   45   47 1    
    94   47   48 1    
    95   47   49 1    
    96   47  170 1    
    97   48  171 1    
    98   48  172 1    
    99   48  173 1    
   100   49   50 am   BACKBONE|DICT|INTERRES
   101   49  174 1    
   102   50   51 2    
   103   50   52 1    
   104   52   53 1    
   105   52   54 1    
   106   52  175 1    
   107   53  176 1    
   108   53  177 1    
   109   53  178 1    
   110   54   55 am   BACKBONE|DICT|INTERRES
   111   54  179 1    
   112   55   56 2    
   113   55   57 1    
   114   57   58 1    
   115   57   59 1    
   116   57  180 1    
   117   58  181 1    
   118   58  182 1    
   119   58  183 1    
   120   59   60 am   BACKBONE|DICT|INTERRES
   121   59  184 1    
   122   60   61 2    
   123   60   62 1    
   124   62   63 1    
   125   62   64 1    
   126   62  185 1    
   127   63  186 1    
   128   63  187 1    
   129   63  188 1    
   130   64   65 am   BACKBONE|DICT|INTERRES
   131   64  189 1    
   132   65   66 2    
   133   67   68 2    
   134   67   69 am   BACKBONE|DICT|INTERRES
   135   69   70 1    
   136   69  190 1    
   137   70   71 1    
   138   70   72 1    
   139   70  191 1    
   140   71  192 1    
   141   71  193 1    
   142   71  194 1    
   143   72   73 2    
   144   72   74 am   BACKBONE|DICT|INTERRES
   145   74   75 1    
   146   74  195 1    
   147   75   76 1    
   148   75   77 1    
   149   75  196 1    
   150   76  197 1    
   151   76  198 1    
   152   76  199 1    
   153   77   78 2    
   154   77   79 am   BACKBONE|DICT|INTERRES
   155   79   80 1    
   156   79  200 1    
   157   80   81 1    
   158   80   82 1    
   159   80  201 1    
   160   81  202 1    
   161   81  203 1    
   162   81  204 1    
   163   82   83 2    
   164   82   84 am   BACKBONE|DICT|INTERRES
   165   84   85 1    
   166   84  205 1    
   167   85   86 1    
   168   85   87 1    
   169   85  206 1    
   170   86  207 1    
   171   86  208 1    
   172   86  209 1    
   173   87   88 2    
   174   87   89 am   BACKBONE|DICT|INTERRES
   175   89   90 1    
   176   89  210 1    
   177   90   91 1    
   178   90   92 1    
   179   90  211 1    
   180   91  212 1    
   181   91  213 1    
   182   91  214 1    
   183   92   93 2    
   184   92   94 am   BACKBONE|DICT|INTERRES
   185   94   95 1    
   186   94  215 1    
   187   95   96 1    
   188   95   97 1    
   189   95  216 1    
   190   96  217 1    
   191   96  218 1    
   192   96  219 1    
   193   97   98 2    
   194   97   99 am   BACKBONE|DICT|INTERRES
   195   99  100 1    
   196   99  220 1    
   197  100  101 1    
   198  100  102 1    
   199  100  221 1    
   200  101  222 1    
   201  101  223 1    
   202  101  224 1    
   203  102  103 2    
   204  102  104 am   BACKBONE|DICT|INTERRES
   205  104  105 1    
   206  104  225 1    
   207  105  106 1    
   208  105  107 1    
   209  105  226 1    
   210  106  227 1    
   211  106  228 1    
   212  106  229 1    
   213  107  108 2    
   214  107  109 am   BACKBONE|DICT|INTERRES
   215  109  110 1    
   216  109  230 1    
   217  110  111 1    
   218  110  112 1    
   219  110  231 1    
   220  111  232 1    
   221  111  233 1    
   222  111  234 1    
   223  112  113 2    
   224  112  114 am   BACKBONE|DICT|INTERRES
   225  114  115 1    
   226  114  235 1    
   227  115  116 1    
   228  115  117 1    
   229  115  236 1    
   230  116  237 1    
   231  116  238 1    
   232  116  239 1    
   233  117  118 2    
   234  117  119 am   BACKBONE|DICT|INTERRES
   235  119  120 1    
   236  119  240 1    
   237  120  121 1    
   238  120  124 1    
   239  120  241 1    
   240  121  122 am   BACKBONE|DICT|INTERRES
   241  121  123 2    
   242  122  242 1    
   243  122  243 1    
   244  124  125 1    
   245  124  244 1    
   246  124  245 1    
   247  125  126 1    
   248  126  246 1    
   249  126  247 1    
@<TRIPOS>SUBSTRUCTURE
     1 UNK         1 GROUP             0       ****    0 ROOT    
