@<TRIPOS>MOLECULE
3R540
247   249    1
SMALL
USER_CHARGES


@<TRIPOS>ATOM
      1 CA         -0.2723  -14.5911  -47.9222 C.3       0 UNK        -0.1800 
      2 C           0.8318  -15.5569  -48.3222 C.2       0 UNK         0.5000 
      3 O           0.7509  -16.7430  -47.9988 O.2       0 UNK        -0.5000 
      4 N           1.8558  -15.0443  -49.0190 N.am      1 UNK        -0.5000 
      5 CA          3.0313  -15.7418  -49.5636 C.3       1 UNK         0.1400 
      6 C6          2.6945  -16.7881  -50.6584 C.3       23 UNK        -0.0398 
      7 S7          2.0026  -16.0287  -52.1712 S.3       23 UNK        -0.2404 
      8 C8          2.3068  -17.3106  -53.4366 C.3       23 UNK        -0.0205 
      9 C9          1.3614  -18.5019  -53.3187 C.ar      23 UNK        -0.0193 
     10 C10         0.3305  -18.7016  -54.2444 C.ar      23 UNK        -0.1150 
     11 C11        -0.4921  -19.8308  -54.1562 C.ar      23 UNK        -0.0193 
     12 C12        -0.3199  -20.7242  -53.0936 C.ar      23 UNK        -0.1150 
     13 C13         0.7024  -20.5401  -52.1593 C.ar      23 UNK        -0.0193 
     14 C14         1.5584  -19.4433  -52.3071 C.ar      23 UNK        -0.1150 
     15 C15         0.9017  -21.5860  -51.0620 C.3       23 UNK        -0.0205 
     16 S16         1.9067  -21.0322  -49.6373 S.3       23 UNK        -0.2404 
     17 C17         0.6518  -20.6372  -48.3740 C.3       23 UNK        -0.0398 
     18 CA          0.6196  -21.7448  -47.2885 C.3       11 UNK         0.1400 
     19 N           0.4156  -21.2301  -45.9321 N.am      11 UNK        -0.5000 
     20 C           0.7423  -21.9130  -44.8233 C.2       10 UNK         0.5000 
     21 O           1.2475  -23.0347  -44.8368 O.2       10 UNK        -0.5000 
     22 CA          0.4046  -21.2541  -43.4737 C.3       10 UNK         0.1400 
     23 CB          1.4561  -20.1947  -43.1104 C.3       10 UNK        -0.1800 
     24 N          -0.9201  -20.6378  -43.4726 N.am      10 UNK        -0.5000 
     25 C          -2.0728  -21.2998  -43.6476 C.2       9 UNK         0.5000 
     26 O          -2.1524  -22.5238  -43.7428 O.2       9 UNK        -0.5000 
     27 CA         -3.3406  -20.4406  -43.8066 C.3       9 UNK         0.1400 
     28 CB         -4.0411  -20.2669  -42.4525 C.3       9 UNK        -0.1800 
     29 N          -3.0757  -19.1287  -44.4104 N.am      9 UNK        -0.5000 
     30 C          -2.5875  -18.9558  -45.6500 C.2       8 UNK         0.5000 
     31 O          -2.2953  -19.8973  -46.3920 O.2       8 UNK        -0.5000 
     32 CA         -2.3199  -17.5208  -46.1449 C.3       8 UNK         0.1400 
     33 CB         -2.8629  -17.3222  -47.5701 C.3       8 UNK        -0.1800 
     34 N          -2.7691  -16.4567  -45.2422 N.am      8 UNK        -0.5000 
     35 C          -4.0314  -16.0938  -44.9617 C.2       7 UNK         0.5000 
     36 O          -5.0271  -16.6174  -45.4624 O.2       7 UNK        -0.5000 
     37 CA         -4.1891  -14.9731  -43.9114 C.3       7 UNK         0.1400 
     38 CB         -5.6212  -14.8673  -43.3475 C.3       7 UNK        -0.1800 
     39 N          -3.2092  -15.0830  -42.8243 N.am      7 UNK        -0.5000 
     40 C          -3.0355  -16.1290  -41.9993 C.2       6 UNK         0.5000 
     41 O          -3.7383  -17.1375  -42.0331 O.2       6 UNK        -0.5000 
     42 CA         -1.8500  -16.0855  -41.0147 C.3       6 UNK         0.1400 
     43 CB         -0.9178  -17.2854  -41.2567 C.3       6 UNK        -0.1800 
     44 N          -1.0693  -14.8542  -41.1365 N.am      6 UNK        -0.5000 
     45 C          -1.3194  -13.7155  -40.4756 C.2       5 UNK         0.5000 
     46 O          -2.1954  -13.5993  -39.6184 O.2       5 UNK        -0.5000 
     47 CA         -0.4656  -12.4901  -40.8611 C.3       5 UNK         0.1400 
     48 CB          0.7119  -12.3301  -39.8876 C.3       5 UNK        -0.1800 
     49 N           0.0547  -12.5502  -42.2309 N.am      5 UNK        -0.5000 
     50 C          -0.6931  -12.5177  -43.3443 C.2       4 UNK         0.5000 
     51 O          -1.9186  -12.4101  -43.3397 O.2       4 UNK        -0.5000 
     52 CA          0.0470  -12.7085  -44.6809 C.3       4 UNK         0.1400 
     53 CB          0.4959  -11.3570  -45.2547 C.3       4 UNK        -0.1800 
     54 N           1.2081  -13.5934  -44.5513 N.am      4 UNK        -0.5000 
     55 C           1.1312  -14.9097  -44.3195 C.2       3 UNK         0.5000 
     56 O           0.0713  -15.5418  -44.2961 O.2       3 UNK        -0.5000 
     57 CA          2.4547  -15.6265  -44.0303 C.3       3 UNK         0.1400 
     58 CB          2.3900  -16.3846  -42.6901 C.3       3 UNK        -0.1800 
     59 N           2.7632  -16.5293  -45.1329 N.am      3 UNK        -0.5000 
     60 C           3.9602  -17.0938  -45.3466 C.2       2 UNK         0.5000 
     61 O           4.9390  -16.9290  -44.6176 O.2       2 UNK        -0.5000 
     62 CA          4.0953  -17.9729  -46.6012 C.3       2 UNK         0.1400 
     63 CB          3.5015  -19.3665  -46.3491 C.3       2 UNK        -0.1800 
     64 N           3.4404  -17.3617  -47.7561 N.am      2 UNK        -0.5000 
     65 C           3.9330  -16.3339  -48.4584 C.2       1 UNK         0.5000 
     66 O           5.0442  -15.8417  -48.2571 O.2       1 UNK        -0.5000 
     67 C          -0.4026  -22.8429  -47.6263 C.2       11 UNK         0.5000 
     68 O          -0.0309  -23.8450  -48.2345 O.2       11 UNK        -0.5000 
     69 N          -1.6538  -22.6628  -47.1771 N.am      12 UNK        -0.5000 
     70 CA         -2.7286  -23.6485  -47.3002 C.3       12 UNK         0.1400 
     71 CB         -4.0350  -23.0565  -46.7526 C.3       12 UNK        -0.1800 
     72 C          -2.3959  -24.9797  -46.5978 C.2       12 UNK         0.5000 
     73 O          -2.6699  -26.0429  -47.1521 O.2       12 UNK        -0.5000 
     74 N          -1.7751  -24.9008  -45.4139 N.am      13 UNK        -0.5000 
     75 CA         -1.2692  -26.0554  -44.6756 C.3       13 UNK         0.1400 
     76 CB         -0.9358  -25.6331  -43.2364 C.3       13 UNK        -0.1800 
     77 C          -0.0452  -26.7025  -45.3515 C.2       13 UNK         0.5000 
     78 O           0.0238  -27.9298  -45.4285 O.2       13 UNK        -0.5000 
     79 N           0.9029  -25.8734  -45.8092 N.am      14 UNK        -0.5000 
     80 CA          2.1815  -26.3179  -46.3625 C.3       14 UNK         0.1400 
     81 CB          3.1844  -25.1539  -46.3305 C.3       14 UNK        -0.1800 
     82 C           2.0901  -26.8964  -47.7855 C.2       14 UNK         0.5000 
     83 O           2.7341  -27.9109  -48.0584 O.2       14 UNK        -0.5000 
     84 N           1.3464  -26.2261  -48.6747 N.am      15 UNK        -0.5000 
     85 CA          1.4081  -26.4479  -50.1222 C.3       15 UNK         0.1400 
     86 CB          2.4096  -25.4448  -50.7240 C.3       15 UNK        -0.1800 
     87 C           0.0393  -26.3800  -50.8254 C.2       15 UNK         0.5000 
     88 O           0.0034  -26.4531  -52.0553 O.2       15 UNK        -0.5000 
     89 N          -1.0549  -26.2727  -50.0571 N.am      16 UNK        -0.5000 
     90 CA         -2.4453  -26.1728  -50.5195 C.3       16 UNK         0.1400 
     91 CB         -2.8675  -27.4506  -51.2806 C.3       16 UNK        -0.1800 
     92 C          -2.7360  -24.8709  -51.2999 C.2       16 UNK         0.5000 
     93 O          -1.9724  -23.9063  -51.2101 O.2       16 UNK        -0.5000 
     94 N          -3.8805  -24.8470  -51.9984 N.am      17 UNK        -0.5000 
     95 CA         -4.4514  -23.7717  -52.8250 C.3       17 UNK         0.1400 
     96 CB         -3.5279  -23.4220  -54.0065 C.3       17 UNK        -0.1800 
     97 C          -4.8884  -22.5050  -52.0580 C.2       17 UNK         0.5000 
     98 O          -5.9648  -21.9860  -52.3517 O.2       17 UNK        -0.5000 
     99 N          -4.0747  -22.0719  -51.0845 N.am      18 UNK        -0.5000 
    100 CA        -4.1872  -20.8803  -50.2392 C.3       18 UNK         0.1400 
    101 CB        -5.5187  -20.8462  -49.4624 C.3       18 UNK        -0.1800 
    102 C         -3.9734  -19.5880  -51.0464 C.2       18 UNK         0.5000 
    103 O         -4.8168  -19.2161  -51.8624 O.2       18 UNK        -0.5000 
    104 N         -2.8598  -18.8942  -50.7765 N.am      19 UNK        -0.5000 
    105 CA        -2.4277  -17.6781  -51.4762 C.3       19 UNK         0.1400 
    106 CB        -1.1122  -17.1884  -50.8711 C.3       19 UNK        -0.1800 
    107 C         -3.4518  -16.5248  -51.4917 C.2       19 UNK         0.5000 
    108 O         -3.4569  -15.7299  -52.4318 O.2       19 UNK        -0.5000 
    109 N         -4.3225  -16.4764  -50.4746 N.am      20 UNK        -0.5000 
    110 CA        -5.4432  -15.5423  -50.3708 C.3       20 UNK         0.1400 
    111 CB        -6.0564  -15.6531  -48.9664 C.3       20 UNK        -0.1800 
    112 C         -6.5196  -15.7551  -51.4558 C.2       20 UNK         0.5000 
    113 O         -7.1855  -14.7908  -51.8345 O.2       20 UNK        -0.5000 
    114 N         -6.6610  -16.9947  -51.9478 N.am      21 UNK        -0.5000 
    115 CA        -7.5095  -17.3346  -53.0890 C.3       21 UNK         0.1400 
    116 CB        -8.0186  -18.7768  -52.9408 C.3       21 UNK        -0.1800 
    117 C         -6.7539  -17.1545  -54.4180 C.2       21 UNK         0.5000 
    118 O         -7.3730  -16.7733  -55.4124 O.2       21 UNK        -0.5000 
    119 N         -5.4393  -17.4201  -54.4137 N.am      22 UNK        -0.5000 
    120 CA        -4.5381  -17.2238  -55.5629 C.3       22 UNK         0.1400 
    121 C         -4.3920  -15.7353  -55.9857 C.2       22 UNK         0.5000 
    122 N         -4.2392  -14.8120  -55.0445 N.am      22 UNK        -0.7600 
    123 O         -4.4161  -15.4189  -57.1719 O.2       22 UNK        -0.5000 
    124 C124       -3.1337  -17.8416  -55.3387 C.3       23 UNK        -0.0398 
    125 S125       -3.1895  -19.5958  -54.8420 S.3       23 UNK        -0.2404 
    126 C126       -1.5056  -20.1436  -55.2502 C.3       23 UNK        -0.0205 
    127 H127        0.1140  -13.5816  -47.7823 H         1 UNK         0.0600 
    128 H128       -0.7340  -14.9122  -46.9892 H         1 UNK         0.0600 
    129 H129       -1.0431  -14.5628  -48.6919 H         1 UNK         0.0600 
    130 H130        1.8379  -14.0553  -49.2239 H         1 UNK         0.3000 
    131 H131        3.6284  -14.9637  -50.0428 H         1 UNK         0.0600 
    132 H132        3.5936  -17.3385  -50.9411 H         1 UNK         0.0800 
    133 H133        1.9863  -17.5228  -50.2753 H         1 UNK         0.0800 
    134 H134        2.2024  -16.8507  -54.4202 H         1 UNK         0.0800 
    135 H135        3.3411  -17.6520  -53.3743 H         1 UNK         0.0800 
    136 H136        0.1964  -18.0032  -55.0583 H         1 UNK         0.1150 
    137 H137       -0.9561  -21.5935  -53.0164 H         1 UNK         0.1150 
    138 H138        2.3936  -19.3164  -51.6377 H         1 UNK         0.1150 
    139 H139       -0.0633  -21.9547  -50.7109 H         1 UNK         0.0800 
    140 H140        1.4026  -22.4405  -51.5163 H         1 UNK         0.0800 
    141 H141        0.9373  -19.6799  -47.9376 H         1 UNK         0.0800 
    142 H142       -0.3246  -20.4647  -48.8304 H         1 UNK         0.0800 
    143 H143        1.5989  -22.2289  -47.2732 H         1 UNK         0.0600 
    144 H144       -0.0859  -20.3583  -45.8451 H         1 UNK         0.3000 
    145 H145        0.4173  -22.0323  -42.7076 H         1 UNK         0.0600 
    146 H146        1.2697  -19.7768  -42.1209 H         1 UNK         0.0600 
    147 H147        2.4578  -20.6263  -43.0969 H         1 UNK         0.0600 
    148 H148        1.4638  -19.3720  -43.8259 H         1 UNK         0.0600 
    149 H149       -0.9572  -19.6329  -43.3989 H         1 UNK         0.3000 
    150 H150       -4.0224  -20.9729  -44.4714 H         1 UNK         0.0600 
    151 H151       -4.3250  -21.2337  -42.0349 H         1 UNK         0.0600 
    152 H152       -4.9514  -19.6751  -42.5505 H         1 UNK         0.0600 
    153 H153       -3.3953  -19.7746  -41.7250 H         1 UNK         0.0600 
    154 H154       -3.3090  -18.3173  -43.8505 H         1 UNK         0.3000 
    155 H155       -1.2346  -17.4220  -46.1916 H         1 UNK         0.0600 
    156 H156       -2.7011  -16.3045  -47.9231 H         1 UNK         0.0600 
    157 H157       -3.9288  -17.5402  -47.6339 H         1 UNK         0.0600 
    158 H158       -2.3550  -17.9980  -48.2548 H         1 UNK         0.0600 
    159 H159       -2.0188  -15.9788  -44.7546 H         1 UNK         0.3000 
    160 H160       -3.9697  -14.0391  -44.4304 H         1 UNK         0.0600 
    161 H161       -5.9360  -15.7913  -42.8616 H         1 UNK         0.0600 
    162 H162       -6.3387  -14.6548  -44.1409 H         1 UNK         0.0600 
    163 H163       -5.6979  -14.0614  -42.6177 H         1 UNK         0.0600 
    164 H164       -2.5897  -14.2870  -42.7300 H         1 UNK         0.3000 
    165 H165       -2.2546  -16.1651  -40.0037 H         1 UNK         0.0600 
    166 H166       -0.5851  -17.3300  -42.2937 H         1 UNK         0.0600 
    167 H167       -0.0353  -17.2402  -40.6184 H         1 UNK         0.0600 
    168 H168       -1.4256  -18.2255  -41.0380 H         1 UNK         0.0600 
    169 H169       -0.3476  -14.8531  -41.8419 H         1 UNK         0.3000 
    170 H170       -1.1023  -11.6067  -40.7800 H         1 UNK         0.0600 
    171 H171        0.3601  -12.2549  -38.8577 H         1 UNK         0.0600 
    172 H172        1.3958  -13.1782  -39.9396 H         1 UNK         0.0600 
    173 H173        1.2808  -11.4250  -40.1012 H         1 UNK         0.0600 
    174 H174        1.0556  -12.6357  -42.3281 H         1 UNK         0.3000 
    175 H175       -0.6589  -13.1582  -45.3808 H         1 UNK         0.0600 
    176 H176        1.2137  -10.8588  -44.6020 H         1 UNK         0.0600 
    177 H177        0.9601  -11.4794  -46.2335 H         1 UNK         0.0600 
    178 H178       -0.3543  -10.6854  -45.3814 H         1 UNK         0.0600 
    179 H179        2.1154  -13.1500  -44.5776 H         1 UNK         0.3000 
    180 H180        3.2471  -14.8781  -43.9623 H         1 UNK         0.0600 
    181 H181        1.7030  -17.2275  -42.7408 H         1 UNK         0.0600 
    182 H182        2.0549  -15.7323  -41.8827 H         1 UNK         0.0600 
    183 H183        3.3667  -16.7729  -42.4026 H         1 UNK         0.0600 
    184 H184        2.0104  -16.6930  -45.7890 H         1 UNK         0.3000 
    185 H185        5.1583  -18.0916  -46.8221 H         1 UNK         0.0600 
    186 H186        3.9947  -19.8563  -45.5086 H         1 UNK         0.0600 
    187 H187        2.4393  -19.3097  -46.1159 H         1 UNK         0.0600 
    188 H188        3.6233  -20.0124  -47.2185 H         1 UNK         0.0600 
    189 H189        2.4721  -17.6133  -47.9279 H         1 UNK         0.3000 
    190 H190       -1.8826  -21.7893  -46.7124 H         1 UNK         0.3000 
    191 H191       -2.8634  -23.8474  -48.3647 H         1 UNK         0.0600 
    192 H192       -4.2066  -22.0487  -47.1288 H         1 UNK         0.0600 
    193 H193       -4.8886  -23.6687  -47.0453 H         1 UNK         0.0600 
    194 H194       -4.0302  -23.0074  -45.6642 H         1 UNK         0.0600 
    195 H195       -1.6515  -23.9904  -44.9817 H         1 UNK         0.3000 
    196 H196       -2.0614  -26.8058  -44.6309 H         1 UNK         0.0600 
    197 H197       -0.5638  -26.4785  -42.6563 H         1 UNK         0.0600 
    198 H198       -1.8191  -25.2504  -42.7247 H         1 UNK         0.0600 
    199 H199       -0.1730  -24.8540  -43.2105 H         1 UNK         0.0600 
    200 H200        0.7938  -24.8751  -45.6674 H         1 UNK         0.3000 
    201 H201        2.5731  -27.1051  -45.7145 H         1 UNK         0.0600 
    202 H202        3.3447  -24.7994  -45.3122 H         1 UNK         0.0600 
    203 H203        2.8406  -24.3101  -46.9294 H         1 UNK         0.0600 
    204 H204        4.1546  -25.4611  -46.7229 H         1 UNK         0.0600 
    205 H205        0.8522  -25.3838  -48.3800 H         1 UNK         0.3000 
    206 H206        1.7776  -27.4545  -50.3275 H         1 UNK         0.0600 
    207 H207        3.4107  -25.5998  -50.3215 H         1 UNK         0.0600 
    208 H208        2.4795  -25.5449  -51.8077 H         1 UNK         0.0600 
    209 H209        2.1184  -24.4184  -50.5022 H         1 UNK         0.0600 
    210 H210       -0.9237  -26.1872  -49.0590 H         1 UNK         0.3000 
    211 H211       -3.0623  -26.1201  -49.6251 H         1 UNK         0.0600 
    212 H212       -2.4255  -27.4982  -52.2764 H         1 UNK         0.0600 
    213 H213       -3.9499  -27.5053  -51.3996 H         1 UNK         0.0600 
    214 H214       -2.5655  -28.3473  -50.7392 H         1 UNK         0.0600 
    215 H215       -4.4491  -25.6814  -51.9630 H         1 UNK         0.3000 
    216 H216       -5.3627  -24.1944  -53.2511 H         1 UNK         0.0600 
    217 H217       -3.3228  -24.2997  -54.6191 H         1 UNK         0.0600 
    218 H218       -2.5739  -23.0186  -53.6723 H         1 UNK         0.0600 
    219 H219       -3.9887  -22.6740  -54.6528 H         1 UNK         0.0600 
    220 H220       -3.2076  -22.5961  -50.9849 H         1 UNK         0.3000 
    221 H221       -3.3856  -20.9654  -49.5033 H         1 UNK         0.0600 
    222 H222       -6.3679  -20.6324  -50.1124 H         1 UNK         0.0600 
    223 H223       -5.7146  -21.7965  -48.9670 H         1 UNK         0.0600 
    224 H224       -5.4970  -20.0725  -48.6941 H         1 UNK         0.0600 
    225 H225       -2.2130  -19.2609  -50.0957 H         1 UNK         0.3000 
    226 H226       -2.2301  -17.9654  -52.5069 H         1 UNK         0.0600 
    227 H227       -0.7243  -16.3456  -51.4418 H         1 UNK         0.0600 
    228 H228       -1.2431  -16.8465  -49.8484 H         1 UNK         0.0600 
    229 H229       -0.3532  -17.9687  -50.8717 H         1 UNK         0.0600 
    230 H230       -4.2495  -17.1770  -49.7535 H         1 UNK         0.3000 
    231 H231       -5.0495  -14.5311  -50.4933 H         1 UNK         0.0600 
    232 H232       -6.8937  -14.9639  -48.8497 H         1 UNK         0.0600 
    233 H233       -5.3262  -15.4066  -48.1953 H         1 UNK         0.0600 
    234 H234       -6.4286  -16.6588  -48.7669 H         1 UNK         0.0600 
    235 H235       -6.0414  -17.7321  -51.6260 H         1 UNK         0.3000 
    236 H236       -8.3799  -16.6753  -53.1044 H         1 UNK         0.0600 
    237 H237       -8.5566  -18.9116  -52.0025 H         1 UNK         0.0600 
    238 H238       -8.7042  -19.0313  -53.7498 H         1 UNK         0.0600 
    239 H239       -7.2034  -19.5005  -52.9658 H         1 UNK         0.0600 
    240 H240       -5.0226  -17.7962  -53.5721 H         1 UNK         0.3000 
    241 H241       -4.9905  -17.7490  -56.4064 H         1 UNK         0.0600 
    242 H242       -4.1473  -13.8436  -55.3057 H         1 UNK         0.3800 
    243 H243       -4.1304  -15.0850  -54.0705 H         1 UNK         0.3800 
    244 H244       -2.5771  -17.2783  -54.5904 H         1 UNK         0.0800 
    245 H245       -2.5534  -17.7656  -56.2599 H         1 UNK         0.0800 
    246 H246       -1.5299  -21.2220  -55.4140 H         1 UNK         0.0800 
    247 H247       -1.1899  -19.7103  -56.2002 H         1 UNK         0.0800 
@<TRIPOS>BOND
     1    1    2 1    
     2    1  127 1    
     3    1  128 1    
     4    1  129 1    
     5    2    3 2    
     6    2    4 am   BACKBONE|DICT|INTERRES
     7    4    5 1    
     8    4  130 1    
     9    5    6 1    
    10    5   65 1    
    11    5  131 1    
    12    6    7 1    
    13    6  132 1    
    14    6  133 1    
    15    7    8 1    
    16    8    9 1    
    17    8  134 1    
    18    8  135 1    
    19    9   10 ar   
    20    9   14 ar   
    21   10   11 ar   
    22   10  136 1    
    23   11   12 ar   
    24   11  126 1    
    25   12   13 ar   
    26   12  137 1    
    27   13   14 ar   
    28   13   15 1    
    29   14  138 1    
    30   15   16 1    
    31   15  139 1    
    32   15  140 1    
    33   16   17 1    
    34   17   18 1    
    35   17  141 1    
    36   17  142 1    
    37   18   19 1    
    38   18   67 1    
    39   18  143 1    
    40   19   20 am   BACKBONE|DICT|INTERRES
    41   19  144 1    
    42   20   21 2    
    43   20   22 1    
    44   22   23 1    
    45   22   24 1    
    46   22  145 1    
    47   23  146 1    
    48   23  147 1    
    49   23  148 1    
    50   24   25 am   BACKBONE|DICT|INTERRES
    51   24  149 1    
    52   25   26 2    
    53   25   27 1    
    54   27   28 1    
    55   27   29 1    
    56   27  150 1    
    57   28  151 1    
    58   28  152 1    
    59   28  153 1    
    60   29   30 am   BACKBONE|DICT|INTERRES
    61   29  154 1    
    62   30   31 2    
    63   30   32 1    
    64   32   33 1    
    65   32   34 1    
    66   32  155 1    
    67   33  156 1    
    68   33  157 1    
    69   33  158 1    
    70   34   35 am   BACKBONE|DICT|INTERRES
    71   34  159 1    
    72   35   36 2    
    73   35   37 1    
    74   37   38 1    
    75   37   39 1    
    76   37  160 1    
    77   38  161 1    
    78   38  162 1    
    79   38  163 1    
    80   39   40 am   BACKBONE|DICT|INTERRES
    81   39  164 1    
    82   40   41 2    
    83   40   42 1    
    84   42   43 1    
    85   42   44 1    
    86   42  165 1    
    87   43  166 1    
    88   43  167 1    
    89   43  168 1    
    90   44   45 am   BACKBONE|DICT|INTERRES
    91   44  169 1    
    92   45   46 2    
    93   45   47 1    
    94   47   48 1    
    95   47   49 1    
    96   47  170 1    
    97   48  171 1    
    98   48  172 1    
    99   48  173 1    
   100   49   50 am   BACKBONE|DICT|INTERRES
   101   49  174 1    
   102   50   51 2    
   103   50   52 1    
   104   52   53 1    
   105   52   54 1    
   106   52  175 1    
   107   53  176 1    
   108   53  177 1    
   109   53  178 1    
   110   54   55 am   BACKBONE|DICT|INTERRES
   111   54  179 1    
   112   55   56 2    
   113   55   57 1    
   114   57   58 1    
   115   57   59 1    
   116   57  180 1    
   117   58  181 1    
   118   58  182 1    
   119   58  183 1    
   120   59   60 am   BACKBONE|DICT|INTERRES
   121   59  184 1    
   122   60   61 2    
   123   60   62 1    
   124   62   63 1    
   125   62   64 1    
   126   62  185 1    
   127   63  186 1    
   128   63  187 1    
   129   63  188 1    
   130   64   65 am   BACKBONE|DICT|INTERRES
   131   64  189 1    
   132   65   66 2    
   133   67   68 2    
   134   67   69 am   BACKBONE|DICT|INTERRES
   135   69   70 1    
   136   69  190 1    
   137   70   71 1    
   138   70   72 1    
   139   70  191 1    
   140   71  192 1    
   141   71  193 1    
   142   71  194 1    
   143   72   73 2    
   144   72   74 am   BACKBONE|DICT|INTERRES
   145   74   75 1    
   146   74  195 1    
   147   75   76 1    
   148   75   77 1    
   149   75  196 1    
   150   76  197 1    
   151   76  198 1    
   152   76  199 1    
   153   77   78 2    
   154   77   79 am   BACKBONE|DICT|INTERRES
   155   79   80 1    
   156   79  200 1    
   157   80   81 1    
   158   80   82 1    
   159   80  201 1    
   160   81  202 1    
   161   81  203 1    
   162   81  204 1    
   163   82   83 2    
   164   82   84 am   BACKBONE|DICT|INTERRES
   165   84   85 1    
   166   84  205 1    
   167   85   86 1    
   168   85   87 1    
   169   85  206 1    
   170   86  207 1    
   171   86  208 1    
   172   86  209 1    
   173   87   88 2    
   174   87   89 am   BACKBONE|DICT|INTERRES
   175   89   90 1    
   176   89  210 1    
   177   90   91 1    
   178   90   92 1    
   179   90  211 1    
   180   91  212 1    
   181   91  213 1    
   182   91  214 1    
   183   92   93 2    
   184   92   94 am   BACKBONE|DICT|INTERRES
   185   94   95 1    
   186   94  215 1    
   187   95   96 1    
   188   95   97 1    
   189   95  216 1    
   190   96  217 1    
   191   96  218 1    
   192   96  219 1    
   193   97   98 2    
   194   97   99 am   BACKBONE|DICT|INTERRES
   195   99  100 1    
   196   99  220 1    
   197  100  101 1    
   198  100  102 1    
   199  100  221 1    
   200  101  222 1    
   201  101  223 1    
   202  101  224 1    
   203  102  103 2    
   204  102  104 am   BACKBONE|DICT|INTERRES
   205  104  105 1    
   206  104  225 1    
   207  105  106 1    
   208  105  107 1    
   209  105  226 1    
   210  106  227 1    
   211  106  228 1    
   212  106  229 1    
   213  107  108 2    
   214  107  109 am   BACKBONE|DICT|INTERRES
   215  109  110 1    
   216  109  230 1    
   217  110  111 1    
   218  110  112 1    
   219  110  231 1    
   220  111  232 1    
   221  111  233 1    
   222  111  234 1    
   223  112  113 2    
   224  112  114 am   BACKBONE|DICT|INTERRES
   225  114  115 1    
   226  114  235 1    
   227  115  116 1    
   228  115  117 1    
   229  115  236 1    
   230  116  237 1    
   231  116  238 1    
   232  116  239 1    
   233  117  118 2    
   234  117  119 am   BACKBONE|DICT|INTERRES
   235  119  120 1    
   236  119  240 1    
   237  120  121 1    
   238  120  124 1    
   239  120  241 1    
   240  121  122 am   BACKBONE|DICT|INTERRES
   241  121  123 2    
   242  122  242 1    
   243  122  243 1    
   244  124  125 1    
   245  124  244 1    
   246  124  245 1    
   247  125  126 1    
   248  126  246 1    
   249  126  247 1    
@<TRIPOS>SUBSTRUCTURE
     1 UNK         1 GROUP             0       ****    0 ROOT    
