@<TRIPOS>MOLECULE
3R540
247   249    1
SMALL
USER_CHARGES


@<TRIPOS>ATOM
      1 CA         -5.2497  -10.1186  -51.4555 C.3       0 UNK        -0.1800 
      2 C          -3.8929  -10.7431  -51.7486 C.2       0 UNK         0.5000 
      3 O          -2.8830  -10.0396  -51.7570 O.2       0 UNK        -0.5000 
      4 N          -3.8664  -12.0598  -51.9883 N.am      1 UNK        -0.5000 
      5 CA         -2.6550  -12.8443  -52.2629 C.3       1 UNK         0.1400 
      6 C6         -2.9825  -14.1558  -53.0259 C.3       23 UNK        -0.0398 
      7 S7         -4.2156  -15.2314  -52.2020 S.3       23 UNK        -0.2404 
      8 C8         -3.3592  -16.8391  -52.1297 C.3       23 UNK        -0.0205 
      9 C9         -2.2967  -16.8733  -51.0428 C.ar      23 UNK        -0.0193 
     10 C10        -0.9494  -16.6683  -51.3553 C.ar      23 UNK        -0.1150 
     11 C11         0.0122  -16.6184  -50.3418 C.ar      23 UNK        -0.0193 
     12 C12        -0.3831  -16.8078  -49.0148 C.ar      23 UNK        -0.1150 
     13 C13        -1.7185  -17.0608  -48.6927 C.ar      23 UNK        -0.0193 
     14 C14        -2.6707  -17.0875  -49.7137 C.ar      23 UNK        -0.1150 
     15 C15        -2.1366  -17.2107  -47.2372 C.3       23 UNK        -0.0205 
     16 S16        -1.2097  -18.5162  -46.3702 S.3       23 UNK        -0.2404 
     17 C17        -2.2763  -19.9823  -46.5669 C.3       23 UNK        -0.0398 
     18 CA         -1.4805  -21.2824  -46.8389 C.3       11 UNK         0.1400 
     19 N          -0.3557  -21.4641  -45.9096 N.am      11 UNK        -0.5000 
     20 C           0.6067  -22.3939  -46.0035 C.2       10 UNK         0.5000 
     21 O           0.6523  -23.2358  -46.9021 O.2       10 UNK        -0.5000 
     22 CA          1.6541  -22.4331  -44.8756 C.3       10 UNK         0.1400 
     23 CB          2.9764  -21.7958  -45.3230 C.3       10 UNK        -0.1800 
     24 N           1.1967  -21.7767  -43.6498 N.am      10 UNK        -0.5000 
     25 C           0.2956  -22.2831  -42.7969 C.2       9 UNK         0.5000 
     26 O          -0.2724  -23.3611  -42.9789 O.2       9 UNK        -0.5000 
     27 CA         -0.0427  -21.4258  -41.5573 C.3       9 UNK         0.1400 
     28 CB         -0.5613  -22.2608  -40.3687 C.3       9 UNK        -0.1800 
     29 N           1.0577  -20.5450  -41.1502 N.am      9 UNK        -0.5000 
     30 C           2.2735  -20.8902  -40.6978 C.2       8 UNK         0.5000 
     31 O           2.6208  -22.0494  -40.4703 O.2       8 UNK        -0.5000 
     32 CA          3.2906  -19.7471  -40.4909 C.3       8 UNK         0.1400 
     33 CB          4.3654  -19.7848  -41.5893 C.3       8 UNK        -0.1800 
     34 N           2.6709  -18.4201  -40.4899 N.am      8 UNK        -0.5000 
     35 C           1.9861  -17.8943  -39.4647 C.2       7 UNK         0.5000 
     36 O           1.8733  -18.4372  -38.3655 O.2       7 UNK        -0.5000 
     37 CA          1.2768  -16.5538  -39.7295 C.3       7 UNK         0.1400 
     38 CB          2.1885  -15.3706  -39.3704 C.3       7 UNK        -0.1800 
     39 N           0.8390  -16.4331  -41.1226 N.am      7 UNK        -0.5000 
     40 C          -0.2237  -17.0718  -41.6346 C.2       6 UNK         0.5000 
     41 O          -0.9639  -17.7998  -40.9736 O.2       6 UNK        -0.5000 
     42 CA         -0.4847  -16.9062  -43.1424 C.3       6 UNK         0.1400 
     43 CB         -1.3710  -15.6795  -43.4035 C.3       6 UNK        -0.1800 
     44 N           0.7459  -16.7921  -43.9252 N.am      6 UNK        -0.5000 
     45 C           1.6365  -17.7822  -44.0918 C.2       5 UNK         0.5000 
     46 O           1.4878  -18.9137  -43.6303 O.2       5 UNK        -0.5000 
     47 CA          2.9301  -17.4554  -44.8664 C.3       5 UNK         0.1400 
     48 CB          2.7535  -17.8036  -46.3500 C.3       5 UNK        -0.1800 
     49 N           3.3498  -16.0568  -44.7745 N.am      5 UNK        -0.5000 
     50 C           3.5309  -15.3479  -43.6522 C.2       4 UNK         0.5000 
     51 O           3.5070  -15.8415  -42.5244 O.2       4 UNK        -0.5000 
     52 CA          3.6853  -13.8196  -43.8149 C.3       4 UNK         0.1400 
     53 CB          5.1570  -13.4119  -43.6522 C.3       4 UNK        -0.1800 
     54 N           3.1752  -13.2749  -45.0843 N.am      4 UNK        -0.5000 
     55 C           1.9276  -13.4099  -45.5603 C.2       3 UNK         0.5000 
     56 O           1.0426  -14.0423  -44.9759 O.2       3 UNK        -0.5000 
     57 CA          1.6356  -12.7806  -46.9343 C.3       3 UNK         0.1400 
     58 CB          2.6753  -13.1930  -47.9962 C.3       3 UNK        -0.1800 
     59 N           0.3130  -13.2128  -47.3704 N.am      3 UNK        -0.5000 
     60 C          -0.5123  -12.5493  -48.1837 C.2       2 UNK         0.5000 
     61 O          -0.2815  -11.4265  -48.6395 O.2       2 UNK        -0.5000 
     62 CA         -1.8373  -13.2701  -48.5007 C.3       2 UNK         0.1400 
     63 CB         -2.8896  -12.9729  -47.4214 C.3       2 UNK        -0.1800 
     64 N          -2.4065  -12.9631  -49.8133 N.am      2 UNK        -0.5000 
     65 C          -1.8007  -13.1106  -51.0021 C.2       1 UNK         0.5000 
     66 O          -0.6258  -13.4514  -51.1426 O.2       1 UNK        -0.5000 
     67 C          -2.4392  -22.4958  -46.8726 C.2       11 UNK         0.5000 
     68 O          -3.2250  -22.6209  -47.8132 O.2       11 UNK        -0.5000 
     69 N          -2.3419  -23.3934  -45.8793 N.am      12 UNK        -0.5000 
     70 CA         -3.0029  -24.6987  -45.8473 C.3       12 UNK         0.1400 
     71 CB         -2.6894  -25.3901  -44.5132 C.3       12 UNK        -0.1800 
     72 C          -2.6041  -25.6012  -47.0319 C.2       12 UNK         0.5000 
     73 O          -3.4531  -26.3305  -47.5446 O.2       12 UNK        -0.5000 
     74 N          -1.3473  -25.4851  -47.4912 N.am      13 UNK        -0.5000 
     75 CA         -0.8243  -26.1765  -48.6736 C.3       13 UNK         0.1400 
     76 CB          0.7090  -26.0840  -48.6791 C.3       13 UNK        -0.1800 
     77 C          -1.4023  -25.6361  -49.9976 C.2       13 UNK         0.5000 
     78 O          -1.3464  -26.3335  -51.0098 O.2       13 UNK        -0.5000 
     79 N          -1.9779  -24.4263  -49.9618 N.am      14 UNK        -0.5000 
     80 CA         -2.7022  -23.7918  -51.0612 C.3       14 UNK         0.1400 
     81 CB         -2.3656  -22.2916  -51.0726 C.3       14 UNK        -0.1800 
     82 C          -4.2204  -24.0396  -50.9590 C.2       14 UNK         0.5000 
     83 O          -5.0035  -23.2011  -51.4078 O.2       14 UNK        -0.5000 
     84 N          -4.6100  -25.1718  -50.3530 N.am      15 UNK        -0.5000 
     85 CA         -5.9844  -25.6181  -50.1058 C.3       15 UNK         0.1400 
     86 CB         -6.6859  -25.9835  -51.4305 C.3       15 UNK        -0.1800 
     87 C          -6.7760  -24.6151  -49.2424 C.2       15 UNK         0.5000 
     88 O          -7.9211  -24.2894  -49.5573 O.2       15 UNK        -0.5000 
     89 N          -6.1181  -24.1386  -48.1750 N.am      16 UNK        -0.5000 
     90 CA         -6.5783  -23.1200  -47.2279 C.3       16 UNK         0.1400 
     91 CB         -7.8125  -23.6052  -46.4388 C.3       16 UNK        -0.1800 
     92 C          -6.7797  -21.7552  -47.9134 C.2       16 UNK         0.5000 
     93 O          -7.8817  -21.2041  -47.8954 O.2       16 UNK        -0.5000 
     94 N          -5.6866  -21.2460  -48.5025 N.am      17 UNK        -0.5000 
     95 CA         -5.5570  -19.9327  -49.1492 C.3       17 UNK         0.1400 
     96 CB         -5.8114  -18.8044  -48.1223 C.3       17 UNK        -0.1800 
     97 C          -6.4098  -19.7590  -50.4262 C.2       17 UNK         0.5000 
     98 O          -6.7005  -18.6250  -50.8107 O.2       17 UNK        -0.5000 
     99 N          -6.8013  -20.8690  -51.0636 N.am      18 UNK        -0.5000 
    100 CA        -7.6130  -20.8733  -52.2790 C.3       18 UNK         0.1400 
    101 CB        -8.4320  -22.1710  -52.3351 C.3       18 UNK        -0.1800 
    102 C         -6.7510  -20.7176  -53.5426 C.2       18 UNK         0.5000 
    103 O         -7.1286  -19.9726  -54.4484 O.2       18 UNK        -0.5000 
    104 N         -5.6183  -21.4283  -53.5839 N.am      19 UNK        -0.5000 
    105 CA        -4.6560  -21.4027  -54.6829 C.3       19 UNK         0.1400 
    106 CB        -4.0110  -22.7945  -54.7984 C.3       19 UNK        -0.1800 
    107 C         -3.5815  -20.3230  -54.4629 C.2       19 UNK         0.5000 
    108 O         -3.4309  -19.8033  -53.3569 O.2       19 UNK        -0.5000 
    109 N         -2.8074  -20.0445  -55.5180 N.am      20 UNK        -0.5000 
    110 CA        -1.6732  -19.1136  -55.5058 C.3       20 UNK         0.1400 
    111 CB        -1.4625  -18.5881  -56.9356 C.3       20 UNK        -0.1800 
    112 C         -0.3699  -19.7321  -54.9500 C.2       20 UNK         0.5000 
    113 O          0.6552  -19.0506  -54.9236 O.2       20 UNK        -0.5000 
    114 N         -0.4165  -21.0100  -54.5434 N.am      21 UNK        -0.5000 
    115 CA         0.7255  -21.8206  -54.1084 C.3       21 UNK         0.1400 
    116 CB         0.2629  -23.2769  -53.9449 C.3       21 UNK        -0.1800 
    117 C          1.4312  -21.3322  -52.8263 C.2       21 UNK         0.5000 
    118 O          2.5945  -21.6802  -52.6219 O.2       21 UNK        -0.5000 
    119 N          0.7352  -20.5389  -51.9992 N.am      22 UNK        -0.5000 
    120 CA         1.2651  -19.9003  -50.7800 C.3       22 UNK         0.1400 
    121 C          1.5492  -20.8721  -49.5899 C.2       22 UNK         0.5000 
    122 N          1.0181  -22.0887  -49.5901 N.am      22 UNK        -0.7600 
    123 O          2.2255  -20.5179  -48.6305 O.2       22 UNK        -0.5000 
    124 C124        2.4414  -18.9334  -51.1120 C.3       23 UNK        -0.0398 
    125 S125        2.6262  -17.5233  -49.9691 S.3       23 UNK        -0.2404 
    126 C126        1.4658  -16.3052  -50.6707 C.3       23 UNK        -0.0205 
    127 H127       -6.0511  -10.8574  -51.4845 H         1 UNK         0.0600 
    128 H128       -5.2459   -9.6598  -50.4668 H         1 UNK         0.0600 
    129 H129       -5.4736   -9.3455  -52.1905 H         1 UNK         0.0600 
    130 H130       -4.7269  -12.5902  -51.9728 H         1 UNK         0.3000 
    131 H131       -2.0249  -12.2472  -52.9259 H         1 UNK         0.0600 
    132 H132       -2.0691  -14.7166  -53.2273 H         1 UNK         0.0800 
    133 H133       -3.3820  -13.9029  -54.0088 H         1 UNK         0.0800 
    134 H134       -2.9278  -17.0701  -53.1034 H         1 UNK         0.0800 
    135 H135       -4.0988  -17.6170  -51.9332 H         1 UNK         0.0800 
    136 H136       -0.6548  -16.5042  -52.3818 H         1 UNK         0.1150 
    137 H137        0.3516  -16.7503  -48.2263 H         1 UNK         0.1150 
    138 H138       -3.7120  -17.2363  -49.4783 H         1 UNK         0.1150 
    139 H139       -1.9457  -16.2635  -46.7330 H         1 UNK         0.0800 
    140 H140       -3.2083  -17.3898  -47.1450 H         1 UNK         0.0800 
    141 H141       -2.8803  -20.0760  -45.6625 H         1 UNK         0.0800 
    142 H142       -2.9710  -19.8032  -47.3882 H         1 UNK         0.0800 
    143 H143       -1.0521  -21.1997  -47.8393 H         1 UNK         0.0600 
    144 H144       -0.2911  -20.7926  -45.1583 H         1 UNK         0.3000 
    145 H145        1.8462  -23.4845  -44.6519 H         1 UNK         0.0600 
    146 H146        3.7528  -21.9308  -44.5699 H         1 UNK         0.0600 
    147 H147        3.3363  -22.2461  -46.2493 H         1 UNK         0.0600 
    148 H148        2.8663  -20.7276  -45.4998 H         1 UNK         0.0600 
    149 H149        1.5438  -20.8370  -43.4782 H         1 UNK         0.3000 
    150 H150       -0.8518  -20.7629  -41.8673 H         1 UNK         0.0600 
    151 H151       -1.4787  -22.7880  -40.6328 H         1 UNK         0.0600 
    152 H152       -0.7882  -21.6268  -39.5115 H         1 UNK         0.0600 
    153 H153        0.1638  -23.0102  -40.0507 H         1 UNK         0.0600 
    154 H154        0.9052  -19.5630  -41.3333 H         1 UNK         0.3000 
    155 H155        3.7790  -19.9077  -39.5275 H         1 UNK         0.0600 
    156 H156        4.9064  -20.7317  -41.5733 H         1 UNK         0.0600 
    157 H157        5.0987  -18.9895  -41.4539 H         1 UNK         0.0600 
    158 H158        3.9304  -19.6758  -42.5828 H         1 UNK         0.0600 
    159 H159        2.7357  -17.8859  -41.3459 H         1 UNK         0.3000 
    160 H160        0.3969  -16.5082  -39.0840 H         1 UNK         0.0600 
    161 H161        3.1107  -15.3762  -39.9516 H         1 UNK         0.0600 
    162 H162        1.6872  -14.4183  -39.5442 H         1 UNK         0.0600 
    163 H163        2.4681  -15.4030  -38.3166 H         1 UNK         0.0600 
    164 H164        1.4401  -15.9046  -41.7419 H         1 UNK         0.3000 
    165 H165       -1.0215  -17.7940  -43.4816 H         1 UNK         0.0600 
    166 H166       -1.5987  -15.5749  -44.4636 H         1 UNK         0.0600 
    167 H167       -2.3203  -15.7633  -42.8731 H         1 UNK         0.0600 
    168 H168       -0.8894  -14.7581  -43.0738 H         1 UNK         0.0600 
    169 H169        0.9352  -15.8821  -44.3351 H         1 UNK         0.3000 
    170 H170        3.7264  -18.0759  -44.4521 H         1 UNK         0.0600 
    171 H171        2.2940  -18.7822  -46.4867 H         1 UNK         0.0600 
    172 H172        2.1119  -17.0803  -46.8515 H         1 UNK         0.0600 
    173 H173        3.7110  -17.8180  -46.8706 H         1 UNK         0.0600 
    174 H174        3.3966  -15.5535  -45.6471 H         1 UNK         0.3000 
    175 H175        3.1114  -13.3568  -43.0097 H         1 UNK         0.0600 
    176 H176        5.7771  -13.8183  -44.4522 H         1 UNK         0.0600 
    177 H177        5.2698  -12.3277  -43.6559 H         1 UNK         0.0600 
    178 H178        5.5617  -13.7750  -42.7064 H         1 UNK         0.0600 
    179 H179        3.8407  -12.7481  -45.6315 H         1 UNK         0.3000 
    180 H180        1.6445  -11.6959  -46.8108 H         1 UNK         0.0600 
    181 H181        3.6693  -12.8169  -47.7535 H         1 UNK         0.0600 
    182 H182        2.7438  -14.2778  -48.0900 H         1 UNK         0.0600 
    183 H183        2.4167  -12.7931  -48.9770 H         1 UNK         0.0600 
    184 H184        0.0056  -14.0743  -46.9388 H         1 UNK         0.3000 
    185 H185       -1.6389  -14.3403  -48.4954 H         1 UNK         0.0600 
    186 H186       -2.5153  -13.2226  -46.4275 H         1 UNK         0.0600 
    187 H187       -3.1669  -11.9181  -47.4127 H         1 UNK         0.0600 
    188 H188       -3.7950  -13.5589  -47.5806 H         1 UNK         0.0600 
    189 H189       -3.3648  -12.6494  -49.8205 H         1 UNK         0.3000 
    190 H190       -1.6754  -23.2147  -45.1405 H         1 UNK         0.3000 
    191 H191       -4.0798  -24.5344  -45.9000 H         1 UNK         0.0600 
    192 H192       -3.1899  -26.3569  -44.4460 H         1 UNK         0.0600 
    193 H193       -3.0275  -24.7895  -43.6684 H         1 UNK         0.0600 
    194 H194       -1.6192  -25.5635  -44.3916 H         1 UNK         0.0600 
    195 H195       -0.7176  -24.8253  -47.0473 H         1 UNK         0.3000 
    196 H196       -1.1011  -27.2303  -48.6001 H         1 UNK         0.0600 
    197 H197        1.1313  -26.6735  -49.4939 H         1 UNK         0.0600 
    198 H198        1.1326  -26.4643  -47.7495 H         1 UNK         0.0600 
    199 H199        1.0516  -25.0576  -48.8096 H         1 UNK         0.0600 
    200 H200       -2.0355  -23.9481  -49.0723 H         1 UNK         0.3000 
    201 H201       -2.3784  -24.2195  -52.0111 H         1 UNK         0.0600 
    202 H202       -1.2926  -22.1312  -51.1204 H         1 UNK         0.0600 
    203 H203       -2.7437  -21.7750  -50.1916 H         1 UNK         0.0600 
    204 H204       -2.8006  -21.8048  -51.9412 H         1 UNK         0.0600 
    205 H205       -3.8883  -25.7764  -49.9858 H         1 UNK         0.3000 
    206 H206       -5.9097  -26.5310  -49.5130 H         1 UNK         0.0600 
    207 H207       -6.1282  -26.7490  -51.9698 H         1 UNK         0.0600 
    208 H208       -7.6857  -26.3794  -51.2493 H         1 UNK         0.0600 
    209 H209       -6.7883  -25.1224  -52.0895 H         1 UNK         0.0600 
    210 H210       -5.1659  -24.4519  -48.0492 H         1 UNK         0.3000 
    211 H211       -5.7731  -22.9789  -46.5063 H         1 UNK         0.0600 
    212 H212       -8.6856  -23.7340  -47.0788 H         1 UNK         0.0600 
    213 H213       -8.0825  -22.8876  -45.6633 H         1 UNK         0.0600 
    214 H214       -7.6150  -24.5570  -45.9457 H         1 UNK         0.0600 
    215 H215       -4.8333  -21.7968  -48.4578 H         1 UNK         0.3000 
    216 H216       -4.5185  -19.8574  -49.4750 H         1 UNK         0.0600 
    217 H217       -5.6089  -17.8214  -48.5448 H         1 UNK         0.0600 
    218 H218       -5.1829  -18.9171  -47.2400 H         1 UNK         0.0600 
    219 H219       -6.8487  -18.7887  -47.7879 H         1 UNK         0.0600 
    220 H220       -6.4673  -21.7669  -50.7349 H         1 UNK         0.3000 
    221 H221       -8.3168  -20.0388  -52.2459 H         1 UNK         0.0600 
    222 H222       -7.7886  -23.0497  -52.3680 H         1 UNK         0.0600 
    223 H223       -9.0796  -22.2659  -51.4632 H         1 UNK         0.0600 
    224 H224       -9.0684  -22.1947  -53.2204 H         1 UNK         0.0600 
    225 H225       -5.3699  -21.9935  -52.7755 H         1 UNK         0.3000 
    226 H226       -5.1751  -21.1852  -55.6187 H         1 UNK         0.0600 
    227 H227       -4.7686  -23.5689  -54.9207 H         1 UNK         0.0600 
    228 H228       -3.3483  -22.8549  -55.6624 H         1 UNK         0.0600 
    229 H229       -3.4226  -23.0441  -53.9166 H         1 UNK         0.0600 
    230 H230       -2.9826  -20.5180  -56.3932 H         1 UNK         0.3000 
    231 H231       -1.9187  -18.2619  -54.8696 H         1 UNK         0.0600 
    232 H232       -1.1920  -19.3903  -57.6232 H         1 UNK         0.0600 
    233 H233       -2.3646  -18.1085  -57.3162 H         1 UNK         0.0600 
    234 H234       -0.6654  -17.8442  -56.9690 H         1 UNK         0.0600 
    235 H235       -1.3038  -21.4839  -54.6061 H         1 UNK         0.3000 
    236 H236        1.4676  -21.7904  -54.9087 H         1 UNK         0.0600 
    237 H237       -0.5014  -23.3716  -53.1752 H         1 UNK         0.0600 
    238 H238       -0.1468  -23.6694  -54.8757 H         1 UNK         0.0600 
    239 H239        1.0945  -23.9232  -53.6606 H         1 UNK         0.0600 
    240 H240       -0.2138  -20.3017  -52.2488 H         1 UNK         0.3000 
    241 H241        0.4327  -19.2964  -50.4230 H         1 UNK         0.0600 
    242 H242        1.1491  -22.6697  -48.7707 H         1 UNK         0.3800 
    243 H243        0.4904  -22.4234  -50.3766 H         1 UNK         0.3800 
    244 H244        2.3176  -18.5216  -52.1148 H         1 UNK         0.0800 
    245 H245        3.3849  -19.4805  -51.1380 H         1 UNK         0.0800 
    246 H246        1.7008  -15.3219  -50.2610 H         1 UNK         0.0800 
    247 H247        1.6196  -16.2306  -51.7481 H         1 UNK         0.0800 
@<TRIPOS>BOND
     1    1    2 1    
     2    1  127 1    
     3    1  128 1    
     4    1  129 1    
     5    2    3 2    
     6    2    4 am   BACKBONE|DICT|INTERRES
     7    4    5 1    
     8    4  130 1    
     9    5    6 1    
    10    5   65 1    
    11    5  131 1    
    12    6    7 1    
    13    6  132 1    
    14    6  133 1    
    15    7    8 1    
    16    8    9 1    
    17    8  134 1    
    18    8  135 1    
    19    9   10 ar   
    20    9   14 ar   
    21   10   11 ar   
    22   10  136 1    
    23   11   12 ar   
    24   11  126 1    
    25   12   13 ar   
    26   12  137 1    
    27   13   14 ar   
    28   13   15 1    
    29   14  138 1    
    30   15   16 1    
    31   15  139 1    
    32   15  140 1    
    33   16   17 1    
    34   17   18 1    
    35   17  141 1    
    36   17  142 1    
    37   18   19 1    
    38   18   67 1    
    39   18  143 1    
    40   19   20 am   BACKBONE|DICT|INTERRES
    41   19  144 1    
    42   20   21 2    
    43   20   22 1    
    44   22   23 1    
    45   22   24 1    
    46   22  145 1    
    47   23  146 1    
    48   23  147 1    
    49   23  148 1    
    50   24   25 am   BACKBONE|DICT|INTERRES
    51   24  149 1    
    52   25   26 2    
    53   25   27 1    
    54   27   28 1    
    55   27   29 1    
    56   27  150 1    
    57   28  151 1    
    58   28  152 1    
    59   28  153 1    
    60   29   30 am   BACKBONE|DICT|INTERRES
    61   29  154 1    
    62   30   31 2    
    63   30   32 1    
    64   32   33 1    
    65   32   34 1    
    66   32  155 1    
    67   33  156 1    
    68   33  157 1    
    69   33  158 1    
    70   34   35 am   BACKBONE|DICT|INTERRES
    71   34  159 1    
    72   35   36 2    
    73   35   37 1    
    74   37   38 1    
    75   37   39 1    
    76   37  160 1    
    77   38  161 1    
    78   38  162 1    
    79   38  163 1    
    80   39   40 am   BACKBONE|DICT|INTERRES
    81   39  164 1    
    82   40   41 2    
    83   40   42 1    
    84   42   43 1    
    85   42   44 1    
    86   42  165 1    
    87   43  166 1    
    88   43  167 1    
    89   43  168 1    
    90   44   45 am   BACKBONE|DICT|INTERRES
    91   44  169 1    
    92   45   46 2    
    93   45   47 1    
    94   47   48 1    
    95   47   49 1    
    96   47  170 1    
    97   48  171 1    
    98   48  172 1    
    99   48  173 1    
   100   49   50 am   BACKBONE|DICT|INTERRES
   101   49  174 1    
   102   50   51 2    
   103   50   52 1    
   104   52   53 1    
   105   52   54 1    
   106   52  175 1    
   107   53  176 1    
   108   53  177 1    
   109   53  178 1    
   110   54   55 am   BACKBONE|DICT|INTERRES
   111   54  179 1    
   112   55   56 2    
   113   55   57 1    
   114   57   58 1    
   115   57   59 1    
   116   57  180 1    
   117   58  181 1    
   118   58  182 1    
   119   58  183 1    
   120   59   60 am   BACKBONE|DICT|INTERRES
   121   59  184 1    
   122   60   61 2    
   123   60   62 1    
   124   62   63 1    
   125   62   64 1    
   126   62  185 1    
   127   63  186 1    
   128   63  187 1    
   129   63  188 1    
   130   64   65 am   BACKBONE|DICT|INTERRES
   131   64  189 1    
   132   65   66 2    
   133   67   68 2    
   134   67   69 am   BACKBONE|DICT|INTERRES
   135   69   70 1    
   136   69  190 1    
   137   70   71 1    
   138   70   72 1    
   139   70  191 1    
   140   71  192 1    
   141   71  193 1    
   142   71  194 1    
   143   72   73 2    
   144   72   74 am   BACKBONE|DICT|INTERRES
   145   74   75 1    
   146   74  195 1    
   147   75   76 1    
   148   75   77 1    
   149   75  196 1    
   150   76  197 1    
   151   76  198 1    
   152   76  199 1    
   153   77   78 2    
   154   77   79 am   BACKBONE|DICT|INTERRES
   155   79   80 1    
   156   79  200 1    
   157   80   81 1    
   158   80   82 1    
   159   80  201 1    
   160   81  202 1    
   161   81  203 1    
   162   81  204 1    
   163   82   83 2    
   164   82   84 am   BACKBONE|DICT|INTERRES
   165   84   85 1    
   166   84  205 1    
   167   85   86 1    
   168   85   87 1    
   169   85  206 1    
   170   86  207 1    
   171   86  208 1    
   172   86  209 1    
   173   87   88 2    
   174   87   89 am   BACKBONE|DICT|INTERRES
   175   89   90 1    
   176   89  210 1    
   177   90   91 1    
   178   90   92 1    
   179   90  211 1    
   180   91  212 1    
   181   91  213 1    
   182   91  214 1    
   183   92   93 2    
   184   92   94 am   BACKBONE|DICT|INTERRES
   185   94   95 1    
   186   94  215 1    
   187   95   96 1    
   188   95   97 1    
   189   95  216 1    
   190   96  217 1    
   191   96  218 1    
   192   96  219 1    
   193   97   98 2    
   194   97   99 am   BACKBONE|DICT|INTERRES
   195   99  100 1    
   196   99  220 1    
   197  100  101 1    
   198  100  102 1    
   199  100  221 1    
   200  101  222 1    
   201  101  223 1    
   202  101  224 1    
   203  102  103 2    
   204  102  104 am   BACKBONE|DICT|INTERRES
   205  104  105 1    
   206  104  225 1    
   207  105  106 1    
   208  105  107 1    
   209  105  226 1    
   210  106  227 1    
   211  106  228 1    
   212  106  229 1    
   213  107  108 2    
   214  107  109 am   BACKBONE|DICT|INTERRES
   215  109  110 1    
   216  109  230 1    
   217  110  111 1    
   218  110  112 1    
   219  110  231 1    
   220  111  232 1    
   221  111  233 1    
   222  111  234 1    
   223  112  113 2    
   224  112  114 am   BACKBONE|DICT|INTERRES
   225  114  115 1    
   226  114  235 1    
   227  115  116 1    
   228  115  117 1    
   229  115  236 1    
   230  116  237 1    
   231  116  238 1    
   232  116  239 1    
   233  117  118 2    
   234  117  119 am   BACKBONE|DICT|INTERRES
   235  119  120 1    
   236  119  240 1    
   237  120  121 1    
   238  120  124 1    
   239  120  241 1    
   240  121  122 am   BACKBONE|DICT|INTERRES
   241  121  123 2    
   242  122  242 1    
   243  122  243 1    
   244  124  125 1    
   245  124  244 1    
   246  124  245 1    
   247  125  126 1    
   248  126  246 1    
   249  126  247 1    
@<TRIPOS>SUBSTRUCTURE
     1 UNK         1 GROUP             0       ****    0 ROOT    
