@<TRIPOS>MOLECULE
3R540
247   249    1
SMALL
USER_CHARGES


@<TRIPOS>ATOM
      1 CA         -2.8113  -13.4597  -49.2511 C.3       0 UNK        -0.1800 
      2 C          -1.9502  -14.0241  -48.1322 C.2       0 UNK         0.5000 
      3 O          -1.8525  -13.4157  -47.0668 O.2       0 UNK        -0.5000 
      4 N          -1.3357  -15.1934  -48.3530 N.am      1 UNK        -0.5000 
      5 CA         -0.3819  -15.8530  -47.4453 C.3       1 UNK         0.1400 
      6 C6          0.3707  -17.0196  -48.1341 C.3       23 UNK        -0.0398 
      7 S7          1.4253  -16.3850  -49.4820 S.3       23 UNK        -0.2404 
      8 C8          2.9197  -17.4315  -49.3851 C.3       23 UNK        -0.0205 
      9 C9          2.9383  -18.5648  -50.4087 C.ar      23 UNK        -0.0193 
     10 C10         2.6134  -18.3219  -51.7481 C.ar      23 UNK        -0.1150 
     11 C11         2.6750  -19.3478  -52.6927 C.ar      23 UNK        -0.0193 
     12 C12         3.0928  -20.6198  -52.2987 C.ar      23 UNK        -0.1150 
     13 C13         3.4271  -20.8882  -50.9690 C.ar      23 UNK        -0.0193 
     14 C14         3.3400  -19.8501  -50.0267 C.ar      23 UNK        -0.1150 
     15 C15         3.8499  -22.3185  -50.6242 C.3       23 UNK        -0.0205 
     16 S16         4.3786  -22.5935  -48.8995 S.3       23 UNK        -0.2404 
     17 C17         3.4548  -24.0975  -48.4147 C.3       23 UNK        -0.0398 
     18 CA          2.3083  -23.9057  -47.3760 C.3       11 UNK         0.1400 
     19 N           2.6827  -23.0885  -46.2135 N.am      11 UNK        -0.5000 
     20 C           2.6225  -21.7584  -46.0559 C.2       10 UNK         0.5000 
     21 O           2.1189  -20.9832  -46.8705 O.2       10 UNK        -0.5000 
     22 CA          3.2423  -21.2157  -44.7531 C.3       10 UNK         0.1400 
     23 CB          3.3295  -19.6807  -44.7208 C.3       10 UNK        -0.1800 
     24 N           2.5231  -21.6887  -43.5693 N.am      10 UNK        -0.5000 
     25 C           2.6923  -22.8956  -43.0113 C.2       9 UNK         0.5000 
     26 O           3.4664  -23.7451  -43.4567 O.2       9 UNK        -0.5000 
     27 CA          1.8558  -23.2227  -41.7627 C.3       9 UNK         0.1400 
     28 CB          2.4947  -22.6173  -40.5049 C.3       9 UNK        -0.1800 
     29 N           0.4695  -22.7732  -41.8590 N.am      9 UNK        -0.5000 
     30 C          -0.4581  -23.2801  -42.6783 C.2       8 UNK         0.5000 
     31 O          -0.2301  -24.1809  -43.4853 O.2       8 UNK        -0.5000 
     32 CA         -1.8855  -22.6987  -42.5902 C.3       8 UNK         0.1400 
     33 CB         -2.7410  -23.4733  -41.5710 C.3       8 UNK        -0.1800 
     34 N          -1.9623  -21.2478  -42.3656 N.am      8 UNK        -0.5000 
     35 C          -1.5777  -20.5437  -41.2929 C.2       7 UNK         0.5000 
     36 O          -1.1282  -21.0409  -40.2580 O.2       7 UNK        -0.5000 
     37 CA         -1.6646  -19.0128  -41.4218 C.3       7 UNK         0.1400 
     38 CB         -2.7973  -18.4613  -40.5434 C.3       7 UNK        -0.1800 
     39 N          -0.4084  -18.3489  -41.0664 N.am      7 UNK        -0.5000 
     40 C           0.7940  -18.6122  -41.5976 C.2       6 UNK         0.5000 
     41 O           1.0001  -19.4759  -42.4533 O.2       6 UNK        -0.5000 
     42 CA          1.9735  -17.7699  -41.0788 C.3       6 UNK         0.1400 
     43 CB          3.0718  -18.6638  -40.4822 C.3       6 UNK        -0.1800 
     44 N           2.5504  -16.9548  -42.1463 N.am      6 UNK        -0.5000 
     45 C           1.9403  -15.9055  -42.7104 C.2       5 UNK         0.5000 
     46 O           0.8438  -15.4772  -42.3383 O.2       5 UNK        -0.5000 
     47 CA          2.7003  -15.1930  -43.8444 C.3       5 UNK         0.1400 
     48 CB          3.1916  -16.1536  -44.9446 C.3       5 UNK        -0.1800 
     49 N           1.8270  -14.1848  -44.4319 N.am      5 UNK        -0.5000 
     50 C           2.2050  -12.9873  -44.8886 C.2       4 UNK         0.5000 
     51 O           3.3787  -12.6163  -44.9353 O.2       4 UNK        -0.5000 
     52 CA          1.0952  -12.0351  -45.3780 C.3       4 UNK         0.1400 
     53 CB          1.1440  -11.8879  -46.9076 C.3       4 UNK        -0.1800 
     54 N          -0.2543  -12.4502  -44.9847 N.am      4 UNK        -0.5000 
     55 C          -0.7753  -12.3026  -43.7582 C.2       3 UNK         0.5000 
     56 O          -0.1598  -11.8075  -42.8137 O.2       3 UNK        -0.5000 
     57 CA         -2.2200  -12.7858  -43.5471 C.3       3 UNK         0.1400 
     58 CB         -3.2168  -11.7092  -44.0044 C.3       3 UNK        -0.1800 
     59 N          -2.4847  -14.0228  -44.2828 N.am      3 UNK        -0.5000 
     60 C          -2.7949  -15.2004  -43.7212 C.2       2 UNK         0.5000 
     61 O          -2.9327  -15.3651  -42.5093 O.2       2 UNK        -0.5000 
     62 CA         -3.0056  -16.4044  -44.6659 C.3       2 UNK         0.1400 
     63 CB         -4.5046  -16.6428  -44.9043 C.3       2 UNK        -0.1800 
     64 N          -2.3208  -16.2586  -45.9535 N.am      2 UNK        -0.5000 
     65 C          -0.9876  -16.2843  -46.0921 C.2       1 UNK         0.5000 
     66 O          -0.2286  -16.5866  -45.1763 O.2       1 UNK        -0.5000 
     67 C           0.9346  -23.5456  -47.9853 C.2       11 UNK         0.5000 
     68 O          -0.0843  -24.0531  -47.5120 O.2       11 UNK        -0.5000 
     69 N           0.9123  -22.6697  -49.0006 N.am      12 UNK        -0.5000 
     70 CA         -0.3076  -22.2121  -49.6740 C.3       12 UNK         0.1400 
     71 CB          0.0464  -21.4830  -50.9754 C.3       12 UNK        -0.1800 
     72 C          -1.2149  -21.3324  -48.7946 C.2       12 UNK         0.5000 
     73 O          -2.3727  -21.1293  -49.1595 O.2       12 UNK        -0.5000 
     74 N          -0.7148  -20.8658  -47.6394 N.am      13 UNK        -0.5000 
     75 CA         -1.4602  -20.1428  -46.6050 C.3       13 UNK         0.1400 
     76 CB         -0.5232  -19.8331  -45.4327 C.3       13 UNK        -0.1800 
     77 C          -2.7122  -20.8734  -46.0845 C.2       13 UNK         0.5000 
     78 O          -3.6390  -20.2090  -45.6251 O.2       13 UNK        -0.5000 
     79 N          -2.7478  -22.2089  -46.2019 N.am      14 UNK        -0.5000 
     80 CA         -3.9211  -23.0448  -45.9238 C.3       14 UNK         0.1400 
     81 CB         -3.4965  -24.5202  -45.9656 C.3       14 UNK        -0.1800 
     82 C          -5.1020  -22.7915  -46.8859 C.2       14 UNK         0.5000 
     83 O          -6.2487  -23.0414  -46.5147 O.2       14 UNK        -0.5000 
     84 N          -4.8012  -22.2791  -48.0852 N.am      15 UNK        -0.5000 
     85 CA         -5.7534  -21.8439  -49.1061 C.3       15 UNK         0.1400 
     86 CB         -5.4691  -22.6425  -50.3876 C.3       15 UNK        -0.1800 
     87 C          -5.6328  -20.3254  -49.3545 C.2       15 UNK         0.5000 
     88 O          -6.0683  -19.8392  -50.4014 O.2       15 UNK        -0.5000 
     89 N          -4.9867  -19.6113  -48.4178 N.am      16 UNK        -0.5000 
     90 CA         -4.6570  -18.1817  -48.4269 C.3       16 UNK         0.1400 
     91 CB         -5.9391  -17.3436  -48.2532 C.3       16 UNK        -0.1800 
     92 C          -3.8201  -17.7108  -49.6362 C.2       16 UNK         0.5000 
     93 O          -3.7647  -16.5088  -49.8911 O.2       16 UNK        -0.5000 
     94 N          -3.1955  -18.6511  -50.3625 N.am      17 UNK        -0.5000 
     95 CA         -2.5558  -18.4734  -51.6710 C.3       17 UNK         0.1400 
     96 CB         -1.2321  -17.6980  -51.5241 C.3       17 UNK        -0.1800 
     97 C          -3.5108  -17.8665  -52.7247 C.2       17 UNK         0.5000 
     98 O          -3.0904  -17.0429  -53.5392 O.2       17 UNK        -0.5000 
     99 N          -4.7912  -18.2610  -52.6642 N.am      18 UNK        -0.5000 
    100 CA        -5.8621  -17.7034  -53.4865 C.3       18 UNK         0.1400 
    101 CB        -6.5346  -16.5428  -52.7335 C.3       18 UNK        -0.1800 
    102 C         -6.8932  -18.7648  -53.8928 C.2       18 UNK         0.5000 
    103 O         -7.2966  -18.7925  -55.0561 O.2       18 UNK        -0.5000 
    104 N         -7.3116  -19.6152  -52.9449 N.am      19 UNK        -0.5000 
    105 CA        -8.3493  -20.6284  -53.1604 C.3       19 UNK         0.1400 
    106 CB        -9.0071  -20.9658  -51.8125 C.3       19 UNK        -0.1800 
    107 C         -7.8291  -21.9039  -53.8518 C.2       19 UNK         0.5000 
    108 O         -8.6340  -22.6763  -54.3743 O.2       19 UNK        -0.5000 
    109 N         -6.5078  -22.1065  -53.8449 N.am      20 UNK        -0.5000 
    110 CA        -5.8013  -23.2336  -54.4426 C.3       20 UNK         0.1400 
    111 CB        -5.9619  -24.4946  -53.5686 C.3       20 UNK        -0.1800 
    112 C         -4.3237  -22.8491  -54.6154 C.2       20 UNK         0.5000 
    113 O         -3.9238  -21.7469  -54.2222 O.2       20 UNK        -0.5000 
    114 N         -3.5429  -23.7681  -55.2013 N.am      21 UNK        -0.5000 
    115 CA        -2.1169  -23.6393  -55.5159 C.3       21 UNK         0.1400 
    116 CB        -1.2749  -23.5984  -54.2171 C.3       21 UNK        -0.1800 
    117 C         -1.8738  -22.4545  -56.4736 C.2       21 UNK         0.5000 
    118 O         -2.3916  -22.4692  -57.5919 O.2       21 UNK        -0.5000 
    119 N         -1.1231  -21.4499  -56.0154 N.am      22 UNK        -0.5000 
    120 CA        -0.9131  -20.1595  -56.6863 C.3       22 UNK         0.1400 
    121 C         -2.1387  -19.1957  -56.6573 C.2       22 UNK         0.5000 
    122 N         -3.2178  -19.4924  -55.9425 N.am      22 UNK        -0.7600 
    123 O         -2.1188  -18.1640  -57.3233 O.2       22 UNK        -0.5000 
    124 C124        0.3847  -19.4718  -56.1847 C.3       23 UNK        -0.0398 
    125 S125        0.4972  -19.3807  -54.3637 S.3       23 UNK        -0.2404 
    126 C126        2.2772  -19.0951  -54.1364 C.3       23 UNK        -0.0205 
    127 H127       -2.5750  -12.4082  -49.4131 H         1 UNK         0.0600 
    128 H128       -3.8659  -13.5394  -48.9879 H         1 UNK         0.0600 
    129 H129       -2.6514  -13.9917  -50.1893 H         1 UNK         0.0600 
    130 H130       -1.4892  -15.6561  -49.2386 H         1 UNK         0.3000 
    131 H131        0.3656  -15.1025  -47.1817 H         1 UNK         0.0600 
    132 H132       -0.3264  -17.7564  -48.5348 H         1 UNK         0.0800 
    133 H133        1.0000  -17.5496  -47.4173 H         1 UNK         0.0800 
    134 H134        3.0451  -17.8170  -48.3723 H         1 UNK         0.0800 
    135 H135        3.7876  -16.7989  -49.5739 H         1 UNK         0.0800 
    136 H136        2.3030  -17.3337  -52.0569 H         1 UNK         0.1150 
    137 H137        3.1387  -21.4133  -53.0317 H         1 UNK         0.1150 
    138 H138        3.5901  -20.0254  -48.9909 H         1 UNK         0.1150 
    139 H139        3.0285  -22.9882  -50.8796 H         1 UNK         0.0800 
    140 H140        4.6801  -22.6022  -51.2726 H         1 UNK         0.0800 
    141 H141        4.1957  -24.7676  -47.9767 H         1 UNK         0.0800 
    142 H142        3.0970  -24.6289  -49.2979 H         1 UNK         0.0800 
    143 H143        2.1462  -24.8968  -46.9484 H         1 UNK         0.0600 
    144 H144        3.0632  -23.6079  -45.4292 H         1 UNK         0.3000 
    145 H145        4.2682  -21.5881  -44.7145 H         1 UNK         0.0600 
    146 H146        3.8713  -19.3006  -45.5877 H         1 UNK         0.0600 
    147 H147        2.3448  -19.2166  -44.7207 H         1 UNK         0.0600 
    148 H148        3.8572  -19.3387  -43.8310 H         1 UNK         0.0600 
    149 H149        1.8628  -21.0347  -43.1547 H         1 UNK         0.3000 
    150 H150        1.8479  -24.3086  -41.6475 H         1 UNK         0.0600 
    151 H151        3.5354  -22.9279  -40.4036 H         1 UNK         0.0600 
    152 H152        1.9700  -22.9361  -39.6041 H         1 UNK         0.0600 
    153 H153        2.4759  -21.5285  -40.5342 H         1 UNK         0.0600 
    154 H154        0.1726  -22.0473  -41.2135 H         1 UNK         0.3000 
    155 H155       -2.3317  -22.8624  -43.5682 H         1 UNK         0.0600 
    156 H156       -3.7693  -23.1120  -41.5641 H         1 UNK         0.0600 
    157 H157       -2.3476  -23.3885  -40.5578 H         1 UNK         0.0600 
    158 H158       -2.7717  -24.5351  -41.8186 H         1 UNK         0.0600 
    159 H159       -2.3121  -20.7255  -43.1557 H         1 UNK         0.3000 
    160 H160       -1.8811  -18.7560  -42.4592 H         1 UNK         0.0600 
    161 H161       -2.6230  -18.6673  -39.4865 H         1 UNK         0.0600 
    162 H162       -3.7541  -18.9106  -40.8127 H         1 UNK         0.0600 
    163 H163       -2.9017  -17.3829  -40.6617 H         1 UNK         0.0600 
    164 H164       -0.4775  -17.6187  -40.3734 H         1 UNK         0.3000 
    165 H165        1.6181  -17.1027  -40.2905 H         1 UNK         0.0600 
    166 H166        3.4854  -19.3477  -41.2246 H         1 UNK         0.0600 
    167 H167        3.8922  -18.0674  -40.0827 H         1 UNK         0.0600 
    168 H168        2.6791  -19.2641  -39.6609 H         1 UNK         0.0600 
    169 H169        3.4389  -17.2613  -42.5122 H         1 UNK         0.3000 
    170 H170        3.5634  -14.7036  -43.3887 H         1 UNK         0.0600 
    171 H171        3.9607  -16.8262  -44.5659 H         1 UNK         0.0600 
    172 H172        2.3814  -16.7653  -45.3403 H         1 UNK         0.0600 
    173 H173        3.6315  -15.6075  -45.7792 H         1 UNK         0.0600 
    174 H174        0.8401  -14.3943  -44.3494 H         1 UNK         0.3000 
    175 H175        1.2938  -11.0547  -44.9401 H         1 UNK         0.0600 
    176 H176        0.9828  -12.8404  -47.4119 H         1 UNK         0.0600 
    177 H177        0.3853  -11.1897  -47.2615 H         1 UNK         0.0600 
    178 H178        2.1126  -11.5064  -47.2328 H         1 UNK         0.0600 
    179 H179       -0.8407  -12.8202  -45.7299 H         1 UNK         0.3000 
    180 H180       -2.3562  -12.9381  -42.4745 H         1 UNK         0.0600 
    181 H181       -3.1346  -11.5116  -45.0742 H         1 UNK         0.0600 
    182 H182       -3.0443  -10.7680  -43.4807 H         1 UNK         0.0600 
    183 H183       -4.2434  -12.0126  -43.7986 H         1 UNK         0.0600 
    184 H184       -2.3869  -13.9702  -45.2915 H         1 UNK         0.3000 
    185 H185       -2.6024  -17.2841  -44.1619 H         1 UNK         0.0600 
    186 H186       -4.6794  -17.6015  -45.3902 H         1 UNK         0.0600 
    187 H187       -5.0526  -16.6659  -43.9613 H         1 UNK         0.0600 
    188 H188       -4.9468  -15.8594  -45.5208 H         1 UNK         0.0600 
    189 H189       -2.8762  -15.9540  -46.7390 H         1 UNK         0.3000 
    190 H190        1.7779  -22.2182  -49.2641 H         1 UNK         0.3000 
    191 H191       -0.8885  -23.0977  -49.9398 H         1 UNK         0.0600 
    192 H192        0.5610  -20.5422  -50.7810 H         1 UNK         0.0600 
    193 H193       -0.8519  -21.2489  -51.5464 H         1 UNK         0.0600 
    194 H194        0.6781  -22.0966  -51.6168 H         1 UNK         0.0600 
    195 H195        0.2664  -21.0438  -47.4382 H         1 UNK         0.3000 
    196 H196       -1.7931  -19.2002  -47.0417 H         1 UNK         0.0600 
    197 H197       -1.0306  -19.2564  -44.6600 H         1 UNK         0.0600 
    198 H198        0.3259  -19.2382  -45.7634 H         1 UNK         0.0600 
    199 H199       -0.1374  -20.7411  -44.9676 H         1 UNK         0.0600 
    200 H200       -1.9393  -22.6815  -46.5865 H         1 UNK         0.3000 
    201 H201       -4.2736  -22.8148  -44.9165 H         1 UNK         0.0600 
    202 H202       -2.7119  -24.7282  -45.2376 H         1 UNK         0.0600 
    203 H203       -3.1199  -24.8009  -46.9502 H         1 UNK         0.0600 
    204 H204       -4.3363  -25.1766  -45.7343 H         1 UNK         0.0600 
    205 H205       -3.8287  -22.0852  -48.3054 H         1 UNK         0.3000 
    206 H206       -6.7797  -22.0402  -48.7904 H         1 UNK         0.0600 
    207 H207       -5.5061  -23.7151  -50.1975 H         1 UNK         0.0600 
    208 H208       -6.2100  -22.4277  -51.1545 H         1 UNK         0.0600 
    209 H209       -4.4870  -22.4083  -50.8014 H         1 UNK         0.0600 
    210 H210       -4.6778  -20.1107  -47.5938 H         1 UNK         0.3000 
    211 H211       -4.0244  -18.0165  -47.5562 H         1 UNK         0.0600 
    212 H212       -6.5920  -17.4236  -49.1230 H         1 UNK         0.0600 
    213 H213       -5.7064  -16.2872  -48.1147 H         1 UNK         0.0600 
    214 H214       -6.5047  -17.6653  -47.3787 H         1 UNK         0.0600 
    215 H215       -3.2270  -19.6074  -50.0217 H         1 UNK         0.3000 
    216 H216       -2.3147  -19.4712  -52.0385 H         1 UNK         0.0600 
    217 H217       -0.5342  -18.2419  -50.8889 H         1 UNK         0.0600 
    218 H218       -1.3827  -16.7067  -51.0983 H         1 UNK         0.0600 
    219 H219       -0.7415  -17.5598  -52.4866 H         1 UNK         0.0600 
    220 H220       -5.0648  -18.9211  -51.9450 H         1 UNK         0.3000 
    221 H221       -5.4436  -17.3087  -54.4148 H         1 UNK         0.0600 
    222 H222       -6.9481  -16.8703  -51.7787 H         1 UNK         0.0600 
    223 H223       -5.8233  -15.7421  -52.5296 H         1 UNK         0.0600 
    224 H224       -7.3495  -16.1144  -53.3183 H         1 UNK         0.0600 
    225 H225       -6.9322  -19.5574  -52.0028 H         1 UNK         0.3000 
    226 H226       -9.1221  -20.2060  -53.8063 H         1 UNK         0.0600 
    227 H227       -9.4387  -20.0766  -51.3527 H         1 UNK         0.0600 
    228 H228       -9.8141  -21.6882  -51.9410 H         1 UNK         0.0600 
    229 H229       -8.2957  -21.3929  -51.1069 H         1 UNK         0.0600 
    230 H230       -5.8981  -21.3974  -53.4575 H         1 UNK         0.3000 
    231 H231       -6.2173  -23.4206  -55.4346 H         1 UNK         0.0600 
    232 H232       -5.5414  -25.3716  -54.0611 H         1 UNK         0.0600 
    233 H233       -7.0099  -24.7166  -53.3685 H         1 UNK         0.0600 
    234 H234       -5.4544  -24.3869  -52.6106 H         1 UNK         0.0600 
    235 H235       -3.9733  -24.6257  -55.5169 H         1 UNK         0.3000 
    236 H236       -1.8335  -24.5387  -56.0643 H         1 UNK         0.0600 
    237 H237       -0.2074  -23.5727  -54.4398 H         1 UNK         0.0600 
    238 H238       -1.5061  -22.7327  -53.5957 H         1 UNK         0.0600 
    239 H239       -1.4522  -24.4885  -53.6134 H         1 UNK         0.0600 
    240 H240       -0.7605  -21.5052  -55.0746 H         1 UNK         0.3000 
    241 H241       -0.7589  -20.3761  -57.7451 H         1 UNK         0.0600 
    242 H242       -3.2692  -20.3347  -55.3783 H         1 UNK         0.3800 
    243 H243       -3.9920  -18.8503  -55.9505 H         1 UNK         0.3800 
    244 H244        1.2414  -20.0386  -56.5511 H         1 UNK         0.0800 
    245 H245        0.4942  -18.4694  -56.6024 H         1 UNK         0.0800 
    246 H246        2.5221  -18.0723  -54.4264 H         1 UNK         0.0800 
    247 H247        2.8475  -19.7511  -54.7957 H         1 UNK         0.0800 
@<TRIPOS>BOND
     1    1    2 1    
     2    1  127 1    
     3    1  128 1    
     4    1  129 1    
     5    2    3 2    
     6    2    4 am   BACKBONE|DICT|INTERRES
     7    4    5 1    
     8    4  130 1    
     9    5    6 1    
    10    5   65 1    
    11    5  131 1    
    12    6    7 1    
    13    6  132 1    
    14    6  133 1    
    15    7    8 1    
    16    8    9 1    
    17    8  134 1    
    18    8  135 1    
    19    9   10 ar   
    20    9   14 ar   
    21   10   11 ar   
    22   10  136 1    
    23   11   12 ar   
    24   11  126 1    
    25   12   13 ar   
    26   12  137 1    
    27   13   14 ar   
    28   13   15 1    
    29   14  138 1    
    30   15   16 1    
    31   15  139 1    
    32   15  140 1    
    33   16   17 1    
    34   17   18 1    
    35   17  141 1    
    36   17  142 1    
    37   18   19 1    
    38   18   67 1    
    39   18  143 1    
    40   19   20 am   BACKBONE|DICT|INTERRES
    41   19  144 1    
    42   20   21 2    
    43   20   22 1    
    44   22   23 1    
    45   22   24 1    
    46   22  145 1    
    47   23  146 1    
    48   23  147 1    
    49   23  148 1    
    50   24   25 am   BACKBONE|DICT|INTERRES
    51   24  149 1    
    52   25   26 2    
    53   25   27 1    
    54   27   28 1    
    55   27   29 1    
    56   27  150 1    
    57   28  151 1    
    58   28  152 1    
    59   28  153 1    
    60   29   30 am   BACKBONE|DICT|INTERRES
    61   29  154 1    
    62   30   31 2    
    63   30   32 1    
    64   32   33 1    
    65   32   34 1    
    66   32  155 1    
    67   33  156 1    
    68   33  157 1    
    69   33  158 1    
    70   34   35 am   BACKBONE|DICT|INTERRES
    71   34  159 1    
    72   35   36 2    
    73   35   37 1    
    74   37   38 1    
    75   37   39 1    
    76   37  160 1    
    77   38  161 1    
    78   38  162 1    
    79   38  163 1    
    80   39   40 am   BACKBONE|DICT|INTERRES
    81   39  164 1    
    82   40   41 2    
    83   40   42 1    
    84   42   43 1    
    85   42   44 1    
    86   42  165 1    
    87   43  166 1    
    88   43  167 1    
    89   43  168 1    
    90   44   45 am   BACKBONE|DICT|INTERRES
    91   44  169 1    
    92   45   46 2    
    93   45   47 1    
    94   47   48 1    
    95   47   49 1    
    96   47  170 1    
    97   48  171 1    
    98   48  172 1    
    99   48  173 1    
   100   49   50 am   BACKBONE|DICT|INTERRES
   101   49  174 1    
   102   50   51 2    
   103   50   52 1    
   104   52   53 1    
   105   52   54 1    
   106   52  175 1    
   107   53  176 1    
   108   53  177 1    
   109   53  178 1    
   110   54   55 am   BACKBONE|DICT|INTERRES
   111   54  179 1    
   112   55   56 2    
   113   55   57 1    
   114   57   58 1    
   115   57   59 1    
   116   57  180 1    
   117   58  181 1    
   118   58  182 1    
   119   58  183 1    
   120   59   60 am   BACKBONE|DICT|INTERRES
   121   59  184 1    
   122   60   61 2    
   123   60   62 1    
   124   62   63 1    
   125   62   64 1    
   126   62  185 1    
   127   63  186 1    
   128   63  187 1    
   129   63  188 1    
   130   64   65 am   BACKBONE|DICT|INTERRES
   131   64  189 1    
   132   65   66 2    
   133   67   68 2    
   134   67   69 am   BACKBONE|DICT|INTERRES
   135   69   70 1    
   136   69  190 1    
   137   70   71 1    
   138   70   72 1    
   139   70  191 1    
   140   71  192 1    
   141   71  193 1    
   142   71  194 1    
   143   72   73 2    
   144   72   74 am   BACKBONE|DICT|INTERRES
   145   74   75 1    
   146   74  195 1    
   147   75   76 1    
   148   75   77 1    
   149   75  196 1    
   150   76  197 1    
   151   76  198 1    
   152   76  199 1    
   153   77   78 2    
   154   77   79 am   BACKBONE|DICT|INTERRES
   155   79   80 1    
   156   79  200 1    
   157   80   81 1    
   158   80   82 1    
   159   80  201 1    
   160   81  202 1    
   161   81  203 1    
   162   81  204 1    
   163   82   83 2    
   164   82   84 am   BACKBONE|DICT|INTERRES
   165   84   85 1    
   166   84  205 1    
   167   85   86 1    
   168   85   87 1    
   169   85  206 1    
   170   86  207 1    
   171   86  208 1    
   172   86  209 1    
   173   87   88 2    
   174   87   89 am   BACKBONE|DICT|INTERRES
   175   89   90 1    
   176   89  210 1    
   177   90   91 1    
   178   90   92 1    
   179   90  211 1    
   180   91  212 1    
   181   91  213 1    
   182   91  214 1    
   183   92   93 2    
   184   92   94 am   BACKBONE|DICT|INTERRES
   185   94   95 1    
   186   94  215 1    
   187   95   96 1    
   188   95   97 1    
   189   95  216 1    
   190   96  217 1    
   191   96  218 1    
   192   96  219 1    
   193   97   98 2    
   194   97   99 am   BACKBONE|DICT|INTERRES
   195   99  100 1    
   196   99  220 1    
   197  100  101 1    
   198  100  102 1    
   199  100  221 1    
   200  101  222 1    
   201  101  223 1    
   202  101  224 1    
   203  102  103 2    
   204  102  104 am   BACKBONE|DICT|INTERRES
   205  104  105 1    
   206  104  225 1    
   207  105  106 1    
   208  105  107 1    
   209  105  226 1    
   210  106  227 1    
   211  106  228 1    
   212  106  229 1    
   213  107  108 2    
   214  107  109 am   BACKBONE|DICT|INTERRES
   215  109  110 1    
   216  109  230 1    
   217  110  111 1    
   218  110  112 1    
   219  110  231 1    
   220  111  232 1    
   221  111  233 1    
   222  111  234 1    
   223  112  113 2    
   224  112  114 am   BACKBONE|DICT|INTERRES
   225  114  115 1    
   226  114  235 1    
   227  115  116 1    
   228  115  117 1    
   229  115  236 1    
   230  116  237 1    
   231  116  238 1    
   232  116  239 1    
   233  117  118 2    
   234  117  119 am   BACKBONE|DICT|INTERRES
   235  119  120 1    
   236  119  240 1    
   237  120  121 1    
   238  120  124 1    
   239  120  241 1    
   240  121  122 am   BACKBONE|DICT|INTERRES
   241  121  123 2    
   242  122  242 1    
   243  122  243 1    
   244  124  125 1    
   245  124  244 1    
   246  124  245 1    
   247  125  126 1    
   248  126  246 1    
   249  126  247 1    
@<TRIPOS>SUBSTRUCTURE
     1 UNK         1 GROUP             0       ****    0 ROOT    
