@<TRIPOS>MOLECULE
3R540
247   249    1
SMALL
USER_CHARGES


@<TRIPOS>ATOM
      1 CA          7.0018  -17.0525  -46.8107 C.3       0 UNK        -0.1800 
      2 C           5.7571  -16.3825  -47.3744 C.2       0 UNK         0.5000 
      3 O           4.6499  -16.6494  -46.9075 O.2       0 UNK        -0.5000 
      4 N           5.9347  -15.4915  -48.3579 N.am      1 UNK        -0.5000 
      5 CA          4.8800  -14.7558  -49.0729 C.3       1 UNK         0.1400 
      6 C6          5.3617  -14.2583  -50.4650 C.3       23 UNK        -0.0398 
      7 S7          6.2579  -15.5065  -51.4529 S.3       23 UNK        -0.2404 
      8 C8          4.9346  -16.2090  -52.4867 C.3       23 UNK        -0.0205 
      9 C9          4.0380  -17.1802  -51.7292 C.ar      23 UNK        -0.0193 
     10 C10         2.6491  -17.0194  -51.7543 C.ar      23 UNK        -0.1150 
     11 C11         1.8171  -17.9498  -51.1250 C.ar      23 UNK        -0.0193 
     12 C12         2.3802  -19.0398  -50.4584 C.ar      23 UNK        -0.1150 
     13 C13         3.7661  -19.2026  -50.4092 C.ar      23 UNK        -0.0193 
     14 C14         4.5892  -18.2738  -51.0515 C.ar      23 UNK        -0.1150 
     15 C15         4.3694  -20.4101  -49.7097 C.3       23 UNK        -0.0205 
     16 S16         4.8151  -20.0834  -47.9726 S.3       23 UNK        -0.2404 
     17 C17         3.2061  -19.8606  -47.1318 C.3       23 UNK        -0.0398 
     18 CA          2.6088  -21.1945  -46.6126 C.3       11 UNK         0.1400 
     19 N           1.8649  -21.0281  -45.3605 N.am      11 UNK        -0.5000 
     20 C           1.5352  -22.0382  -44.5415 C.2       10 UNK         0.5000 
     21 O           1.8973  -23.2029  -44.7124 O.2       10 UNK        -0.5000 
     22 CA          0.6318  -21.7019  -43.3404 C.3       10 UNK         0.1400 
     23 CB          1.4637  -21.2043  -42.1489 C.3       10 UNK        -0.1800 
     24 N          -0.4031  -20.7219  -43.6726 N.am      10 UNK        -0.5000 
     25 C          -1.4265  -20.9643  -44.5047 C.2       9 UNK         0.5000 
     26 O          -1.6418  -22.0619  -45.0169 O.2       9 UNK        -0.5000 
     27 CA         -2.3590  -19.7853  -44.8383 C.3       9 UNK         0.1400 
     28 CB         -3.4935  -19.6908  -43.8076 C.3       9 UNK        -0.1800 
     29 N          -1.6656  -18.4987  -44.9261 N.am      9 UNK        -0.5000 
     30 C          -0.7200  -18.1973  -45.8288 C.2       8 UNK         0.5000 
     31 O          -0.3321  -18.9763  -46.6980 O.2       8 UNK        -0.5000 
     32 CA         -0.0455  -16.8204  -45.6915 C.3       8 UNK         0.1400 
     33 CB         -0.9871  -15.6952  -46.1451 C.3       8 UNK        -0.1800 
     34 N           0.3943  -16.5606  -44.3217 N.am      8 UNK        -0.5000 
     35 C           1.2787  -17.3068  -43.6454 C.2       7 UNK         0.5000 
     36 O           1.8789  -18.2665  -44.1300 O.2       7 UNK        -0.5000 
     37 CA          1.4770  -16.9600  -42.1596 C.3       7 UNK         0.1400 
     38 CB          2.4805  -15.8139  -41.9775 C.3       7 UNK        -0.1800 
     39 N           0.2167  -16.6081  -41.5066 N.am      7 UNK        -0.5000 
     40 C          -0.7521  -17.4861  -41.2156 C.2       6 UNK         0.5000 
     41 O          -0.6761  -18.6917  -41.4498 O.2       6 UNK        -0.5000 
     42 CA         -2.0341  -16.9100  -40.5885 C.3       6 UNK         0.1400 
     43 CB         -1.8426  -16.6650  -39.0842 C.3       6 UNK        -0.1800 
     44 N          -2.4680  -15.6694  -41.2334 N.am      6 UNK        -0.5000 
     45 C          -2.9121  -15.5958  -42.4955 C.2       5 UNK         0.5000 
     46 O          -3.0022  -16.5661  -43.2457 O.2       5 UNK        -0.5000 
     47 CA         -3.2895  -14.2006  -43.0226 C.3       5 UNK         0.1400 
     48 CB         -4.7353  -13.8535  -42.6372 C.3       5 UNK        -0.1800 
     49 N          -2.3981  -13.1250  -42.5808 N.am      5 UNK        -0.5000 
     50 C          -1.0799  -13.0719  -42.8110 C.2       4 UNK         0.5000 
     51 O          -0.4256  -13.9905  -43.3088 O.2       4 UNK        -0.5000 
     52 CA         -0.3653  -11.7718  -42.4104 C.3       4 UNK         0.1400 
     53 CB          0.5946  -12.0175  -41.2362 C.3       4 UNK        -0.1800 
     54 N           0.3848  -11.2326  -43.5426 N.am      4 UNK        -0.5000 
     55 C          -0.1632  -10.6783  -44.6346 C.2       3 UNK         0.5000 
     56 O          -1.3722  -10.4837  -44.7672 O.2       3 UNK        -0.5000 
     57 CA          0.7981  -10.2624  -45.7661 C.3       3 UNK         0.1400 
     58 CB          1.1269   -8.7646  -45.6677 C.3       3 UNK        -0.1800 
     59 N           2.0468  -11.0269  -45.7425 N.am      3 UNK        -0.5000 
     60 C           2.1853  -12.2597  -46.2460 C.2       2 UNK         0.5000 
     61 O           1.3046  -12.8534  -46.8712 O.2       2 UNK        -0.5000 
     62 CA          3.5215  -12.9562  -45.9372 C.3       2 UNK         0.1400 
     63 CB          3.4195  -13.7178  -44.6087 C.3       2 UNK        -0.1800 
     64 N           3.9381  -13.8989  -46.9705 N.am      2 UNK        -0.5000 
     65 C           4.3202  -13.5912  -48.2141 C.2       1 UNK         0.5000 
     66 O           4.3024  -12.4408  -48.6574 O.2       1 UNK        -0.5000 
     67 C           1.7436  -21.8916  -47.6840 C.2       11 UNK         0.5000 
     68 O           2.2185  -22.8172  -48.3446 O.2       11 UNK        -0.5000 
     69 N           0.4824  -21.4577  -47.8213 N.am      12 UNK        -0.5000 
     70 CA         -0.5222  -21.9922  -48.7427 C.3       12 UNK         0.1400 
     71 CB         -1.6429  -20.9501  -48.9160 C.3       12 UNK        -0.1800 
     72 C          -1.0598  -23.3741  -48.3095 C.2       12 UNK         0.5000 
     73 O          -2.2534  -23.5302  -48.0496 O.2       12 UNK        -0.5000 
     74 N          -0.1648  -24.3656  -48.2550 N.am      13 UNK        -0.5000 
     75 CA         -0.4674  -25.7786  -48.0316 C.3       13 UNK         0.1400 
     76 CB          0.8599  -26.5268  -47.8268 C.3       13 UNK        -0.1800 
     77 C          -1.2742  -26.3968  -49.1938 C.2       13 UNK         0.5000 
     78 O          -1.3876  -25.7881  -50.2595 O.2       13 UNK        -0.5000 
     79 N          -1.8014  -27.6082  -48.9671 N.am      14 UNK        -0.5000 
     80 CA         -2.6209  -28.3991  -49.8935 C.3       14 UNK         0.1400 
     81 CB         -1.8373  -28.7667  -51.1724 C.3       14 UNK        -0.1800 
     82 C          -3.9693  -27.7134  -50.1869 C.2       14 UNK         0.5000 
     83 O          -4.1961  -27.2178  -51.2929 O.2       14 UNK        -0.5000 
     84 N          -4.8312  -27.6908  -49.1593 N.am      15 UNK        -0.5000 
     85 CA         -6.2099  -27.1876  -49.1741 C.3       15 UNK         0.1400 
     86 CB         -7.1031  -28.0902  -50.0523 C.3       15 UNK        -0.1800 
     87 C          -6.2946  -25.7007  -49.5680 C.2       15 UNK         0.5000 
     88 O          -7.0068  -25.3495  -50.5095 O.2       15 UNK        -0.5000 
     89 N          -5.5338  -24.8595  -48.8519 N.am      16 UNK        -0.5000 
     90 CA         -5.4207  -23.4091  -49.0511 C.3       16 UNK         0.1400 
     91 CB         -6.7605  -22.7116  -48.7315 C.3       16 UNK        -0.1800 
     92 C          -4.8709  -23.0546  -50.4495 C.2       16 UNK         0.5000 
     93 O          -5.4004  -22.1579  -51.1087 O.2       16 UNK        -0.5000 
     94 N          -3.8434  -23.7999  -50.8868 N.am      17 UNK        -0.5000 
     95 CA         -3.2264  -23.7656  -52.2167 C.3       17 UNK         0.1400 
     96 CB         -2.4357  -22.4559  -52.4201 C.3       17 UNK        -0.1800 
     97 C          -4.2509  -24.0490  -53.3330 C.2       17 UNK         0.5000 
     98 O          -4.3825  -23.2602  -54.2688 O.2       17 UNK        -0.5000 
     99 N          -4.9871  -25.1599  -53.1806 N.am      18 UNK        -0.5000 
    100 CA        -6.0990  -25.6054  -54.0275 C.3       18 UNK         0.1400 
    101 CB        -5.5834  -26.0554  -55.4101 C.3       18 UNK        -0.1800 
    102 C         -7.2325  -24.5588  -54.1088 C.2       18 UNK         0.5000 
    103 O         -7.6932  -24.2170  -55.1996 O.2       18 UNK        -0.5000 
    104 N         -7.6406  -24.0628  -52.9326 N.am      19 UNK        -0.5000 
    105 CA        -8.6805  -23.0599  -52.6849 C.3       19 UNK         0.1400 
    106 CB       -10.0644  -23.5874  -53.1176 C.3       19 UNK        -0.1800 
    107 C         -8.3734  -21.6548  -53.2496 C.2       19 UNK         0.5000 
    108 O         -9.2962  -20.8542  -53.4129 O.2       19 UNK        -0.5000 
    109 N         -7.0935  -21.3545  -53.5113 N.am      20 UNK        -0.5000 
    110 CA        -6.6297  -20.0300  -53.9322 C.3       20 UNK         0.1400 
    111 CB        -5.2612  -20.1593  -54.6152 C.3       20 UNK        -0.1800 
    112 C         -6.5459  -19.0305  -52.7633 C.2       20 UNK         0.5000 
    113 O         -6.5820  -17.8224  -53.0022 O.2       20 UNK        -0.5000 
    114 N         -6.4032  -19.5437  -51.5304 N.am      21 UNK        -0.5000 
    115 CA        -6.3146  -18.8077  -50.2625 C.3       21 UNK         0.1400 
    116 CB        -7.6657  -18.1435  -49.9283 C.3       21 UNK        -0.1800 
    117 C         -5.1274  -17.8234  -50.2122 C.2       21 UNK         0.5000 
    118 O         -5.2206  -16.7672  -49.5853 O.2       21 UNK        -0.5000 
    119 N         -4.0363  -18.1945  -50.8952 N.am      22 UNK        -0.5000 
    120 CA        -2.8296  -17.3841  -51.1205 C.3       22 UNK         0.1400 
    121 C         -3.0323  -16.1715  -52.0847 C.2       22 UNK         0.5000 
    122 N         -4.1468  -16.0618  -52.8002 N.am      22 UNK        -0.7600 
    123 O         -2.1519  -15.3274  -52.2202 O.2       22 UNK        -0.5000 
    124 C124       -2.1195  -17.0002  -49.7841 C.3       23 UNK        -0.0398 
    125 S125       -0.2941  -16.8252  -49.7687 S.3       23 UNK        -0.2404 
    126 C126        0.3081  -17.7994  -51.1796 C.3       23 UNK        -0.0205 
    127 H127        7.0965  -16.8321  -45.7475 H         1 UNK         0.0600 
    128 H128        7.9079  -16.7119  -47.3119 H         1 UNK         0.0600 
    129 H129        6.9340  -18.1335  -46.9303 H         1 UNK         0.0600 
    130 H130        6.8724  -15.3084  -48.6851 H         1 UNK         0.3000 
    131 H131        4.0510  -15.4462  -49.2439 H         1 UNK         0.0600 
    132 H132        4.5176  -13.8791  -51.0434 H         1 UNK         0.0800 
    133 H133        6.0461  -13.4159  -50.3485 H         1 UNK         0.0800 
    134 H134        4.3545  -15.4004  -52.9340 H         1 UNK         0.0800 
    135 H135        5.3946  -16.7470  -53.3165 H         1 UNK         0.0800 
    136 H136        2.2111  -16.1823  -52.2797 H         1 UNK         0.1150 
    137 H137        1.7356  -19.7640  -49.9807 H         1 UNK         0.1150 
    138 H138        5.6617  -18.4084  -51.0348 H         1 UNK         0.1150 
    139 H139        3.6928  -21.2607  -49.7740 H         1 UNK         0.0800 
    140 H140        5.2721  -20.7174  -50.2397 H         1 UNK         0.0800 
    141 H141        2.5057  -19.3012  -47.7520 H         1 UNK         0.0800 
    142 H142        3.4114  -19.2014  -46.2868 H         1 UNK         0.0800 
    143 H143        3.4396  -21.8667  -46.3859 H         1 UNK         0.0600 
    144 H144        1.5672  -20.0877  -45.1231 H         1 UNK         0.3000 
    145 H145        0.1323  -22.6240  -43.0356 H         1 UNK         0.0600 
    146 H146        0.8361  -21.0306  -41.2748 H         1 UNK         0.0600 
    147 H147        2.2172  -21.9404  -41.8662 H         1 UNK         0.0600 
    148 H148        1.9848  -20.2753  -42.3778 H         1 UNK         0.0600 
    149 H149       -0.3317  -19.8118  -43.2328 H         1 UNK         0.3000 
    150 H150       -2.8068  -19.9853  -45.8132 H         1 UNK         0.0600 
    151 H151       -4.0308  -20.6366  -43.7278 H         1 UNK         0.0600 
    152 H152       -4.2195  -18.9283  -44.0899 H         1 UNK         0.0600 
    153 H153       -3.1145  -19.4420  -42.8155 H         1 UNK         0.0600 
    154 H154       -1.9524  -17.7892  -44.2565 H         1 UNK         0.3000 
    155 H155        0.8370  -16.8102  -46.3350 H         1 UNK         0.0600 
    156 H156       -1.3026  -15.8387  -47.1770 H         1 UNK         0.0600 
    157 H157       -0.4963  -14.7240  -46.0874 H         1 UNK         0.0600 
    158 H158       -1.8875  -15.6495  -45.5345 H         1 UNK         0.0600 
    159 H159       -0.0164  -15.7524  -43.8609 H         1 UNK         0.3000 
    160 H160        1.8855  -17.8445  -41.6663 H         1 UNK         0.0600 
    161 H161        2.0851  -14.8742  -42.3607 H         1 UNK         0.0600 
    162 H162        3.4145  -16.0221  -42.5011 H         1 UNK         0.0600 
    163 H163        2.7226  -15.6677  -40.9248 H         1 UNK         0.0600 
    164 H164        0.0491  -15.6272  -41.3381 H         1 UNK         0.3000 
    165 H165       -2.8260  -17.6518  -40.7138 H         1 UNK         0.0600 
    166 H166       -2.7713  -16.3364  -38.6174 H         1 UNK         0.0600 
    167 H167       -1.5310  -17.5792  -38.5771 H         1 UNK         0.0600 
    168 H168       -1.0828  -15.9068  -38.8909 H         1 UNK         0.0600 
    169 H169       -2.4193  -14.8222  -40.6871 H         1 UNK         0.3000 
    170 H170       -3.2332  -14.2386  -44.1121 H         1 UNK         0.0600 
    171 H171       -5.4258  -14.6292  -42.9715 H         1 UNK         0.0600 
    172 H172       -4.8519  -13.7533  -41.5573 H         1 UNK         0.0600 
    173 H173       -5.0531  -12.9181  -43.0982 H         1 UNK         0.0600 
    174 H174       -2.8470  -12.3244  -42.1599 H         1 UNK         0.3000 
    175 H175       -1.1059  -11.0314  -42.1005 H         1 UNK         0.0600 
    176 H176        1.3858  -12.7200  -41.4993 H         1 UNK         0.0600 
    177 H177        1.0664  -11.0892  -40.9134 H         1 UNK         0.0600 
    178 H178        0.0636  -12.4274  -40.3761 H         1 UNK         0.0600 
    179 H179        1.3811  -11.3827  -43.5325 H         1 UNK         0.3000 
    180 H180        0.2888  -10.4366  -46.7166 H         1 UNK         0.0600 
    181 H181        1.6387   -8.5236  -44.7351 H         1 UNK         0.0600 
    182 H182        0.2183   -8.1622  -45.7085 H         1 UNK         0.0600 
    183 H183        1.7637   -8.4458  -46.4931 H         1 UNK         0.0600 
    184 H184        2.8248  -10.6014  -45.2589 H         1 UNK         0.3000 
    185 H185        4.3005  -12.1964  -45.8468 H         1 UNK         0.0600 
    186 H186        3.1460  -13.0521  -43.7894 H         1 UNK         0.0600 
    187 H187        2.6628  -14.5016  -44.6648 H         1 UNK         0.0600 
    188 H188        4.3682  -14.1856  -44.3447 H         1 UNK         0.0600 
    189 H189        3.9862  -14.8787  -46.7050 H         1 UNK         0.3000 
    190 H190        0.1778  -20.6702  -47.2525 H         1 UNK         0.3000 
    191 H191       -0.0485  -22.1268  -49.7171 H         1 UNK         0.0600 
    192 H192       -2.3928  -21.2874  -49.6314 H         1 UNK         0.0600 
    193 H193       -2.1552  -20.7546  -47.9744 H         1 UNK         0.0600 
    194 H194       -1.2460  -20.0039  -49.2824 H         1 UNK         0.0600 
    195 H195        0.8020  -24.1291  -48.4551 H         1 UNK         0.3000 
    196 H196       -1.0642  -25.8577  -47.1208 H         1 UNK         0.0600 
    197 H197        0.6926  -27.5797  -47.5972 H         1 UNK         0.0600 
    198 H198        1.4264  -26.1025  -46.9972 H         1 UNK         0.0600 
    199 H199        1.4873  -26.4804  -48.7180 H         1 UNK         0.0600 
    200 H200       -1.6522  -28.0281  -48.0600 H         1 UNK         0.3000 
    201 H201       -2.8490  -29.3355  -49.3819 H         1 UNK         0.0600 
    202 H202       -0.9028  -29.2725  -50.9297 H         1 UNK         0.0600 
    203 H203       -1.5973  -27.8931  -51.7787 H         1 UNK         0.0600 
    204 H204       -2.4197  -29.4425  -51.7996 H         1 UNK         0.0600 
    205 H205       -4.5294  -28.0929  -48.2827 H         1 UNK         0.3000 
    206 H206       -6.5807  -27.2561  -48.1504 H         1 UNK         0.0600 
    207 H207       -7.0547  -29.1292  -49.7265 H         1 UNK         0.0600 
    208 H208       -8.1473  -27.7808  -49.9939 H         1 UNK         0.0600 
    209 H209       -6.8112  -28.0546  -51.1025 H         1 UNK         0.0600 
    210 H210       -4.9532  -25.2450  -48.1204 H         1 UNK         0.3000 
    211 H211       -4.6959  -23.0430  -48.3259 H         1 UNK         0.0600 
    212 H212       -7.5316  -22.9483  -49.4641 H         1 UNK         0.0600 
    213 H213       -6.6440  -21.6294  -48.7195 H         1 UNK         0.0600 
    214 H214       -7.1318  -23.0043  -47.7495 H         1 UNK         0.0600 
    215 H215       -3.4759  -24.5105  -50.2680 H         1 UNK         0.3000 
    216 H216       -2.5119  -24.5876  -52.2580 H         1 UNK         0.0600 
    217 H217       -1.9750  -22.4249  -53.4080 H         1 UNK         0.0600 
    218 H218       -1.6315  -22.3709  -51.6906 H         1 UNK         0.0600 
    219 H219       -3.0694  -21.5748  -52.3256 H         1 UNK         0.0600 
    220 H220       -4.7841  -25.7611  -52.3847 H         1 UNK         0.3000 
    221 H221       -6.5250  -26.4801  -53.5337 H         1 UNK         0.0600 
    222 H222       -5.1696  -25.2232  -55.9804 H         1 UNK         0.0600 
    223 H223       -4.8067  -26.8138  -55.3120 H         1 UNK         0.0600 
    224 H224       -6.3883  -26.4902  -56.0035 H         1 UNK         0.0600 
    225 H225       -7.2177  -24.4475  -52.0889 H         1 UNK         0.3000 
    226 H226       -8.7085  -22.9360  -51.6020 H         1 UNK         0.0600 
    227 H227      -10.2634  -24.5694  -52.6883 H         1 UNK         0.0600 
    228 H228      -10.8609  -22.9225  -52.7818 H         1 UNK         0.0600 
    229 H229      -10.1455  -23.6712  -54.2016 H         1 UNK         0.0600 
    230 H230       -6.3828  -22.0531  -53.3328 H         1 UNK         0.3000 
    231 H231       -7.3339  -19.6270  -54.6631 H         1 UNK         0.0600 
    232 H232       -4.5041  -20.5368  -53.9283 H         1 UNK         0.0600 
    233 H233       -4.9153  -19.1935  -54.9859 H         1 UNK         0.0600 
    234 H234       -5.3083  -20.8373  -55.4676 H         1 UNK         0.0600 
    235 H235       -6.2794  -20.5517  -51.4546 H         1 UNK         0.3000 
    236 H236       -6.1115  -19.5490  -49.4907 H         1 UNK         0.0600 
    237 H237       -8.4779  -18.8701  -49.9551 H         1 UNK         0.0600 
    238 H238       -7.6531  -17.7095  -48.9279 H         1 UNK         0.0600 
    239 H239       -7.9075  -17.3440  -50.6292 H         1 UNK         0.0600 
    240 H240       -4.0708  -19.0768  -51.3846 H         1 UNK         0.3000 
    241 H241       -2.1981  -18.0680  -51.6795 H         1 UNK         0.0600 
    242 H242       -4.2495  -15.2776  -53.4243 H         1 UNK         0.3800 
    243 H243       -4.9038  -16.7316  -52.7185 H         1 UNK         0.3800 
    244 H244       -2.5493  -16.0811  -49.3828 H         1 UNK         0.0800 
    245 H245       -2.3347  -17.7602  -49.0317 H         1 UNK         0.0800 
    246 H246       -0.1482  -18.7900  -51.1679 H         1 UNK         0.0800 
    247 H247        0.0146  -17.3188  -52.1141 H         1 UNK         0.0800 
@<TRIPOS>BOND
     1    1    2 1    
     2    1  127 1    
     3    1  128 1    
     4    1  129 1    
     5    2    3 2    
     6    2    4 am   BACKBONE|DICT|INTERRES
     7    4    5 1    
     8    4  130 1    
     9    5    6 1    
    10    5   65 1    
    11    5  131 1    
    12    6    7 1    
    13    6  132 1    
    14    6  133 1    
    15    7    8 1    
    16    8    9 1    
    17    8  134 1    
    18    8  135 1    
    19    9   10 ar   
    20    9   14 ar   
    21   10   11 ar   
    22   10  136 1    
    23   11   12 ar   
    24   11  126 1    
    25   12   13 ar   
    26   12  137 1    
    27   13   14 ar   
    28   13   15 1    
    29   14  138 1    
    30   15   16 1    
    31   15  139 1    
    32   15  140 1    
    33   16   17 1    
    34   17   18 1    
    35   17  141 1    
    36   17  142 1    
    37   18   19 1    
    38   18   67 1    
    39   18  143 1    
    40   19   20 am   BACKBONE|DICT|INTERRES
    41   19  144 1    
    42   20   21 2    
    43   20   22 1    
    44   22   23 1    
    45   22   24 1    
    46   22  145 1    
    47   23  146 1    
    48   23  147 1    
    49   23  148 1    
    50   24   25 am   BACKBONE|DICT|INTERRES
    51   24  149 1    
    52   25   26 2    
    53   25   27 1    
    54   27   28 1    
    55   27   29 1    
    56   27  150 1    
    57   28  151 1    
    58   28  152 1    
    59   28  153 1    
    60   29   30 am   BACKBONE|DICT|INTERRES
    61   29  154 1    
    62   30   31 2    
    63   30   32 1    
    64   32   33 1    
    65   32   34 1    
    66   32  155 1    
    67   33  156 1    
    68   33  157 1    
    69   33  158 1    
    70   34   35 am   BACKBONE|DICT|INTERRES
    71   34  159 1    
    72   35   36 2    
    73   35   37 1    
    74   37   38 1    
    75   37   39 1    
    76   37  160 1    
    77   38  161 1    
    78   38  162 1    
    79   38  163 1    
    80   39   40 am   BACKBONE|DICT|INTERRES
    81   39  164 1    
    82   40   41 2    
    83   40   42 1    
    84   42   43 1    
    85   42   44 1    
    86   42  165 1    
    87   43  166 1    
    88   43  167 1    
    89   43  168 1    
    90   44   45 am   BACKBONE|DICT|INTERRES
    91   44  169 1    
    92   45   46 2    
    93   45   47 1    
    94   47   48 1    
    95   47   49 1    
    96   47  170 1    
    97   48  171 1    
    98   48  172 1    
    99   48  173 1    
   100   49   50 am   BACKBONE|DICT|INTERRES
   101   49  174 1    
   102   50   51 2    
   103   50   52 1    
   104   52   53 1    
   105   52   54 1    
   106   52  175 1    
   107   53  176 1    
   108   53  177 1    
   109   53  178 1    
   110   54   55 am   BACKBONE|DICT|INTERRES
   111   54  179 1    
   112   55   56 2    
   113   55   57 1    
   114   57   58 1    
   115   57   59 1    
   116   57  180 1    
   117   58  181 1    
   118   58  182 1    
   119   58  183 1    
   120   59   60 am   BACKBONE|DICT|INTERRES
   121   59  184 1    
   122   60   61 2    
   123   60   62 1    
   124   62   63 1    
   125   62   64 1    
   126   62  185 1    
   127   63  186 1    
   128   63  187 1    
   129   63  188 1    
   130   64   65 am   BACKBONE|DICT|INTERRES
   131   64  189 1    
   132   65   66 2    
   133   67   68 2    
   134   67   69 am   BACKBONE|DICT|INTERRES
   135   69   70 1    
   136   69  190 1    
   137   70   71 1    
   138   70   72 1    
   139   70  191 1    
   140   71  192 1    
   141   71  193 1    
   142   71  194 1    
   143   72   73 2    
   144   72   74 am   BACKBONE|DICT|INTERRES
   145   74   75 1    
   146   74  195 1    
   147   75   76 1    
   148   75   77 1    
   149   75  196 1    
   150   76  197 1    
   151   76  198 1    
   152   76  199 1    
   153   77   78 2    
   154   77   79 am   BACKBONE|DICT|INTERRES
   155   79   80 1    
   156   79  200 1    
   157   80   81 1    
   158   80   82 1    
   159   80  201 1    
   160   81  202 1    
   161   81  203 1    
   162   81  204 1    
   163   82   83 2    
   164   82   84 am   BACKBONE|DICT|INTERRES
   165   84   85 1    
   166   84  205 1    
   167   85   86 1    
   168   85   87 1    
   169   85  206 1    
   170   86  207 1    
   171   86  208 1    
   172   86  209 1    
   173   87   88 2    
   174   87   89 am   BACKBONE|DICT|INTERRES
   175   89   90 1    
   176   89  210 1    
   177   90   91 1    
   178   90   92 1    
   179   90  211 1    
   180   91  212 1    
   181   91  213 1    
   182   91  214 1    
   183   92   93 2    
   184   92   94 am   BACKBONE|DICT|INTERRES
   185   94   95 1    
   186   94  215 1    
   187   95   96 1    
   188   95   97 1    
   189   95  216 1    
   190   96  217 1    
   191   96  218 1    
   192   96  219 1    
   193   97   98 2    
   194   97   99 am   BACKBONE|DICT|INTERRES
   195   99  100 1    
   196   99  220 1    
   197  100  101 1    
   198  100  102 1    
   199  100  221 1    
   200  101  222 1    
   201  101  223 1    
   202  101  224 1    
   203  102  103 2    
   204  102  104 am   BACKBONE|DICT|INTERRES
   205  104  105 1    
   206  104  225 1    
   207  105  106 1    
   208  105  107 1    
   209  105  226 1    
   210  106  227 1    
   211  106  228 1    
   212  106  229 1    
   213  107  108 2    
   214  107  109 am   BACKBONE|DICT|INTERRES
   215  109  110 1    
   216  109  230 1    
   217  110  111 1    
   218  110  112 1    
   219  110  231 1    
   220  111  232 1    
   221  111  233 1    
   222  111  234 1    
   223  112  113 2    
   224  112  114 am   BACKBONE|DICT|INTERRES
   225  114  115 1    
   226  114  235 1    
   227  115  116 1    
   228  115  117 1    
   229  115  236 1    
   230  116  237 1    
   231  116  238 1    
   232  116  239 1    
   233  117  118 2    
   234  117  119 am   BACKBONE|DICT|INTERRES
   235  119  120 1    
   236  119  240 1    
   237  120  121 1    
   238  120  124 1    
   239  120  241 1    
   240  121  122 am   BACKBONE|DICT|INTERRES
   241  121  123 2    
   242  122  242 1    
   243  122  243 1    
   244  124  125 1    
   245  124  244 1    
   246  124  245 1    
   247  125  126 1    
   248  126  246 1    
   249  126  247 1    
@<TRIPOS>SUBSTRUCTURE
     1 UNK         1 GROUP             0       ****    0 ROOT    
