@<TRIPOS>MOLECULE
3R540
247   249    1
SMALL
USER_CHARGES


@<TRIPOS>ATOM
      1 CA          4.1412   -9.7267  -47.1136 C.3       0 UNK        -0.1800 
      2 C           3.6419  -11.0956  -46.6774 C.2       0 UNK         0.5000 
      3 O           4.2049  -11.6989  -45.7647 O.2       0 UNK        -0.5000 
      4 N           2.5737  -11.5770  -47.3256 N.am      1 UNK        -0.5000 
      5 CA          1.9873  -12.9139  -47.1451 C.3       1 UNK         0.1400 
      6 C6          0.9888  -13.2314  -48.2897 C.3       23 UNK        -0.0398 
      7 S7          0.9624  -14.9964  -48.7376 S.3       23 UNK        -0.2404 
      8 C8         -0.4286  -15.0217  -49.9155 C.3       23 UNK        -0.0205 
      9 C9         -0.9027  -16.4387  -50.2115 C.ar      23 UNK        -0.0193 
     10 C10        -2.2229  -16.8147  -49.9448 C.ar      23 UNK        -0.1150 
     11 C11        -2.6625  -18.1144  -50.2149 C.ar      23 UNK        -0.0193 
     12 C12        -1.7693  -19.0439  -50.7554 C.ar      23 UNK        -0.1150 
     13 C13        -0.4409  -18.6856  -51.0130 C.ar      23 UNK        -0.0193 
     14 C14        -0.0218  -17.3784  -50.7524 C.ar      23 UNK        -0.1150 
     15 C15         0.5623  -19.6958  -51.5591 C.3       23 UNK        -0.0205 
     16 S16         0.5269  -21.3137  -50.7166 S.3       23 UNK        -0.2404 
     17 C17         0.5995  -20.8539  -48.9465 C.3       23 UNK        -0.0398 
     18 CA          0.2654  -22.0336  -48.0043 C.3       11 UNK         0.1400 
     19 N           0.4937  -21.6923  -46.6013 N.am      11 UNK        -0.5000 
     20 C           0.4999  -22.5742  -45.5922 C.2       10 UNK         0.5000 
     21 O           0.3595  -23.7887  -45.7416 O.2       10 UNK        -0.5000 
     22 CA          0.6336  -21.9920  -44.1732 C.3       10 UNK         0.1400 
     23 CB          2.0855  -21.5891  -43.8754 C.3       10 UNK        -0.1800 
     24 N          -0.2480  -20.8440  -43.9573 N.am      10 UNK        -0.5000 
     25 C          -1.5869  -20.8983  -44.0076 C.2       9 UNK         0.5000 
     26 O          -2.2258  -21.9314  -44.2034 O.2       9 UNK        -0.5000 
     27 CA         -2.3381  -19.5671  -43.8533 C.3       9 UNK         0.1400 
     28 CB         -2.4675  -19.1820  -42.3724 C.3       9 UNK        -0.1800 
     29 N          -1.6933  -18.4838  -44.5935 N.am      9 UNK        -0.5000 
     30 C          -1.6492  -18.4046  -45.9311 C.2       8 UNK         0.5000 
     31 O          -2.1439  -19.2390  -46.6861 O.2       8 UNK        -0.5000 
     32 CA         -0.8906  -17.2060  -46.5200 C.3       8 UNK         0.1400 
     33 CB         -1.7393  -15.9296  -46.3915 C.3       8 UNK        -0.1800 
     34 N           0.4087  -16.9961  -45.8851 N.am      8 UNK        -0.5000 
     35 C           1.4065  -17.8902  -45.8458 C.2       7 UNK         0.5000 
     36 O           1.3678  -18.9913  -46.3934 O.2       7 UNK        -0.5000 
     37 CA          2.6281  -17.5190  -44.9862 C.3       7 UNK         0.1400 
     38 CB          3.6635  -16.7374  -45.8076 C.3       7 UNK        -0.1800 
     39 N           2.2665  -16.7544  -43.7905 N.am      7 UNK        -0.5000 
     40 C           1.4679  -17.1956  -42.8099 C.2       6 UNK         0.5000 
     41 O           0.9722  -18.3249  -42.7934 O.2       6 UNK        -0.5000 
     42 CA          1.1938  -16.2048  -41.6625 C.3       6 UNK         0.1400 
     43 CB          0.1955  -16.7498  -40.6262 C.3       6 UNK        -0.1800 
     44 N           2.4377  -15.8511  -40.9798 N.am      6 UNK        -0.5000 
     45 C           3.2685  -14.8784  -41.3667 C.2       5 UNK         0.5000 
     46 O           3.0729  -14.1612  -42.3511 O.2       5 UNK        -0.5000 
     47 CA          4.5457  -14.6855  -40.5351 C.3       5 UNK         0.1400 
     48 CB          5.7522  -15.3149  -41.2484 C.3       5 UNK        -0.1800 
     49 N           4.7884  -13.2585  -40.3464 N.am      5 UNK        -0.5000 
     50 C           4.1370  -12.4986  -39.4567 C.2       4 UNK         0.5000 
     51 O           3.3751  -12.9419  -38.5967 O.2       4 UNK        -0.5000 
     52 CA          4.3215  -10.9867  -39.6057 C.3       4 UNK         0.1400 
     53 CB          5.7888  -10.5563  -39.4120 C.3       4 UNK        -0.1800 
     54 N           3.8247  -10.5930  -40.9212 N.am      4 UNK        -0.5000 
     55 C           3.4389   -9.3588  -41.2606 C.2       3 UNK         0.5000 
     56 O           3.5022   -8.3892  -40.5034 O.2       3 UNK        -0.5000 
     57 CA          2.8845   -9.1691  -42.6847 C.3       3 UNK         0.1400 
     58 CB          3.9917   -8.6795  -43.6293 C.3       3 UNK        -0.1800 
     59 N           2.2686  -10.3764  -43.2463 N.am      3 UNK        -0.5000 
     60 C           1.0634  -10.8466  -42.8877 C.2       2 UNK         0.5000 
     61 O           0.3741  -10.3323  -42.0058 O.2       2 UNK        -0.5000 
     62 CA          0.5305  -12.0652  -43.6660 C.3       2 UNK         0.1400 
     63 CB         -1.0071  -12.1610  -43.6727 C.3       2 UNK        -0.1800 
     64 N           1.0299  -12.0533  -45.0404 N.am      2 UNK        -0.5000 
     65 C           1.3566  -13.1409  -45.7474 C.2       1 UNK         0.5000 
     66 O           1.1881  -14.2878  -45.3317 O.2       1 UNK        -0.5000 
     67 C          -1.1581  -22.5877  -48.2228 C.2       11 UNK         0.5000 
     68 O          -1.2944  -23.6322  -48.8574 O.2       11 UNK        -0.5000 
     69 N          -2.1839  -21.9292  -47.6598 N.am      12 UNK        -0.5000 
     70 CA         -3.5771  -22.3768  -47.7252 C.3       12 UNK         0.1400 
     71 CB         -4.5057  -21.3492  -47.0630 C.3       12 UNK        -0.1800 
     72 C          -3.7920  -23.7691  -47.1089 C.2       12 UNK         0.5000 
     73 O          -4.4896  -24.5839  -47.7095 O.2       12 UNK        -0.5000 
     74 N          -3.1613  -24.0366  -45.9576 N.am      13 UNK        -0.5000 
     75 CA         -3.1777  -25.3406  -45.2945 C.3       13 UNK         0.1400 
     76 CB         -2.5198  -25.2247  -43.9112 C.3       13 UNK        -0.1800 
     77 C          -2.5048  -26.4456  -46.1304 C.2       13 UNK         0.5000 
     78 O          -3.0400  -27.5516  -46.2116 O.2       13 UNK        -0.5000 
     79 N          -1.3621  -26.1233  -46.7519 N.am      14 UNK        -0.5000 
     80 CA         -0.6085  -27.0298  -47.6190 C.3       14 UNK         0.1400 
     81 CB          0.7906  -26.4469  -47.8714 C.3       14 UNK        -0.1800 
     82 C          -1.3261  -27.3230  -48.9503 C.2       14 UNK         0.5000 
     83 O          -1.3712  -28.4775  -49.3767 O.2       14 UNK        -0.5000 
     84 N          -1.8726  -26.2757  -49.5804 N.am      15 UNK        -0.5000 
     85 CA         -2.5456  -26.3355  -50.8790 C.3       15 UNK         0.1400 
     86 CB         -2.4856  -24.9420  -51.5261 C.3       15 UNK        -0.1800 
     87 C          -4.0071  -26.8156  -50.8024 C.2       15 UNK         0.5000 
     88 O          -4.6014  -27.0688  -51.8496 O.2       15 UNK        -0.5000 
     89 N          -4.5733  -26.8869  -49.5887 N.am      16 UNK        -0.5000 
     90 CA         -5.9878  -27.1388  -49.2842 C.3       16 UNK         0.1400 
     91 CB         -6.4083  -28.5626  -49.7050 C.3       16 UNK        -0.1800 
     92 C          -6.9047  -26.0316  -49.8514 C.2       16 UNK         0.5000 
     93 O          -7.9674  -26.3181  -50.4056 O.2       16 UNK        -0.5000 
     94 N          -6.4452  -24.7802  -49.7006 N.am      17 UNK        -0.5000 
     95 CA         -7.0686  -23.5201  -50.1185 C.3       17 UNK         0.1400 
     96 CB         -8.3195  -23.2348  -49.2628 C.3       17 UNK        -0.1800 
     97 C          -7.3417  -23.4189  -51.6360 C.2       17 UNK         0.5000 
     98 O          -8.2960  -22.7537  -52.0437 O.2       17 UNK        -0.5000 
     99 N          -6.5059  -24.0801  -52.4494 N.am      18 UNK        -0.5000 
    100 CA        -6.6098  -24.1001  -53.9073 C.3       18 UNK         0.1400 
    101 CB        -5.6321  -25.1395  -54.4749 C.3       18 UNK        -0.1800 
    102 C         -6.3328  -22.7226  -54.5328 C.2       18 UNK         0.5000 
    103 O         -5.3469  -22.0700  -54.1769 O.2       18 UNK        -0.5000 
    104 N         -7.1690  -22.3381  -55.5056 N.am      19 UNK        -0.5000 
    105 CA        -7.0484  -21.0960  -56.2750 C.3       19 UNK         0.1400 
    106 CB        -8.3052  -20.9133  -57.1385 C.3       19 UNK        -0.1800 
    107 C         -5.7799  -21.0369  -57.1477 C.2       19 UNK         0.5000 
    108 O         -5.2933  -19.9440  -57.4331 O.2       19 UNK        -0.5000 
    109 N         -5.2374  -22.2065  -57.5148 N.am      20 UNK        -0.5000 
    110 CA        -3.9599  -22.3529  -58.2152 C.3       20 UNK         0.1400 
    111 CB        -3.7773  -23.8250  -58.6155 C.3       20 UNK        -0.1800 
    112 C         -2.7515  -21.8648  -57.3890 C.2       20 UNK         0.5000 
    113 O         -1.7562  -21.4375  -57.9752 O.2       20 UNK        -0.5000 
    114 N         -2.8642  -21.9276  -56.0551 N.am      21 UNK        -0.5000 
    115 CA        -1.8710  -21.4180  -55.1145 C.3       21 UNK         0.1400 
    116 CB        -1.7564  -22.3882  -53.9272 C.3       21 UNK        -0.1800 
    117 C         -2.2511  -20.0092  -54.6319 C.2       21 UNK         0.5000 
    118 O         -1.4125  -19.1087  -54.6674 O.2       21 UNK        -0.5000 
    119 N         -3.5011  -19.8536  -54.1772 N.am      22 UNK        -0.5000 
    120 CA        -4.0083  -18.6360  -53.5266 C.3       22 UNK         0.1400 
    121 C         -4.4270  -17.4858  -54.4900 C.2       22 UNK         0.5000 
    122 N         -4.6046  -17.7170  -55.7836 N.am      22 UNK        -0.7600 
    123 O         -4.5715  -16.3437  -54.0640 O.2       22 UNK        -0.5000 
    124 C124       -5.1195  -19.0042  -52.5072 C.3       23 UNK        -0.0398 
    125 S125       -5.2759  -17.8336  -51.1142 S.3       23 UNK        -0.2404 
    126 C126       -4.0970  -18.5127  -49.9016 C.3       23 UNK        -0.0205 
    127 H127        4.9762   -9.4022  -46.4923 H         1 UNK         0.0600 
    128 H128        3.3472   -8.9840  -47.0346 H         1 UNK         0.0600 
    129 H129        4.4830   -9.7597  -48.1481 H         1 UNK         0.0600 
    130 H130        2.1546  -11.0118  -48.0507 H         1 UNK         0.3000 
    131 H131        2.8234  -13.6124  -47.2193 H         1 UNK         0.0600 
    132 H132        1.2674  -12.6942  -49.1976 H         1 UNK         0.0800 
    133 H133       -0.0199  -12.8942  -48.0428 H         1 UNK         0.0800 
    134 H134       -1.2499  -14.4265  -49.5137 H         1 UNK         0.0800 
    135 H135       -0.1222  -14.5427  -50.8463 H         1 UNK         0.0800 
    136 H136       -2.9140  -16.0972  -49.5254 H         1 UNK         0.1150 
    137 H137       -2.1026  -20.0511  -50.9621 H         1 UNK         0.1150 
    138 H138        1.0007  -17.0904  -50.9528 H         1 UNK         0.1150 
    139 H139        0.3655  -19.8466  -52.6208 H         1 UNK         0.0800 
    140 H140        1.5773  -19.3018  -51.4878 H         1 UNK         0.0800 
    141 H141       -0.0707  -20.0190  -48.7395 H         1 UNK         0.0800 
    142 H142        1.6065  -20.4886  -48.7407 H         1 UNK         0.0800 
    143 H143        0.9598  -22.8422  -48.2432 H         1 UNK         0.0600 
    144 H144        0.6510  -20.7075  -46.3986 H         1 UNK         0.3000 
    145 H145        0.3444  -22.7711  -43.4649 H         1 UNK         0.0600 
    146 H146        2.1899  -21.2143  -42.8570 H         1 UNK         0.0600 
    147 H147        2.7556  -22.4431  -43.9799 H         1 UNK         0.0600 
    148 H148        2.4361  -20.8121  -44.5546 H         1 UNK         0.0600 
    149 H149        0.1950  -19.9531  -43.7567 H         1 UNK         0.3000 
    150 H150       -3.3439  -19.6988  -44.2574 H         1 UNK         0.0600 
    151 H151       -1.4931  -19.0874  -41.8932 H         1 UNK         0.0600 
    152 H152       -2.9975  -18.2370  -42.2522 H         1 UNK         0.0600 
    153 H153       -3.0266  -19.9408  -41.8235 H         1 UNK         0.0600 
    154 H154       -1.2020  -17.7896  -44.0506 H         1 UNK         0.3000 
    155 H155       -0.7120  -17.4113  -47.5759 H         1 UNK         0.0600 
    156 H156       -2.7067  -16.0547  -46.8791 H         1 UNK         0.0600 
    157 H157       -1.9263  -15.6719  -45.3484 H         1 UNK         0.0600 
    158 H158       -1.2516  -15.0746  -46.8565 H         1 UNK         0.0600 
    159 H159        0.5777  -16.0797  -45.4776 H         1 UNK         0.3000 
    160 H160        3.0926  -18.4488  -44.6531 H         1 UNK         0.0600 
    161 H161        3.2616  -15.7910  -46.1679 H         1 UNK         0.0600 
    162 H162        3.9802  -17.3105  -46.6799 H         1 UNK         0.0600 
    163 H163        4.5544  -16.5212  -45.2178 H         1 UNK         0.0600 
    164 H164        2.5964  -15.7971  -43.7415 H         1 UNK         0.3000 
    165 H165        0.7513  -15.3093  -42.1045 H         1 UNK         0.0600 
    166 H166        0.0268  -16.0294  -39.8256 H         1 UNK         0.0600 
    167 H167       -0.7721  -16.9486  -41.0870 H         1 UNK         0.0600 
    168 H168        0.5454  -17.6784  -40.1735 H         1 UNK         0.0600 
    169 H169        2.6853  -16.4209  -40.1835 H         1 UNK         0.3000 
    170 H170        4.4257  -15.1657  -39.5614 H         1 UNK         0.0600 
    171 H171        5.9159  -14.8731  -42.2324 H         1 UNK         0.0600 
    172 H172        6.6651  -15.1862  -40.6665 H         1 UNK         0.0600 
    173 H173        5.6053  -16.3863  -41.3907 H         1 UNK         0.0600 
    174 H174        5.3778  -12.8122  -41.0335 H         1 UNK         0.3000 
    175 H175        3.7124  -10.5050  -38.8375 H         1 UNK         0.0600 
    176 H176        5.8833   -9.4705  -39.4021 H         1 UNK         0.0600 
    177 H177        6.4340  -10.9374  -40.2040 H         1 UNK         0.0600 
    178 H178        6.1801  -10.9223  -38.4620 H         1 UNK         0.0600 
    179 H179        3.6870  -11.3413  -41.5872 H         1 UNK         0.3000 
    180 H180        2.1228   -8.3881  -42.6317 H         1 UNK         0.0600 
    181 H181        3.5788   -8.3887  -44.5943 H         1 UNK         0.0600 
    182 H182        4.7473   -9.4477  -43.7989 H         1 UNK         0.0600 
    183 H183        4.4986   -7.8039  -43.2213 H         1 UNK         0.0600 
    184 H184        2.8016  -10.8801  -43.9432 H         1 UNK         0.3000 
    185 H185        0.9181  -12.9421  -43.1464 H         1 UNK         0.0600 
    186 H186       -1.4032  -12.2214  -42.6584 H         1 UNK         0.0600 
    187 H187       -1.4591  -11.2936  -44.1546 H         1 UNK         0.0600 
    188 H188       -1.3437  -13.0525  -44.2026 H         1 UNK         0.0600 
    189 H189        1.1864  -11.1435  -45.4511 H         1 UNK         0.3000 
    190 H190       -2.0150  -21.0498  -47.1772 H         1 UNK         0.3000 
    191 H191       -3.8461  -22.4407  -48.7815 H         1 UNK         0.0600 
    192 H192       -4.2669  -21.2134  -46.0082 H         1 UNK         0.0600 
    193 H193       -4.4338  -20.3773  -47.5488 H         1 UNK         0.0600 
    194 H194       -5.5476  -21.6660  -47.1264 H         1 UNK         0.0600 
    195 H195       -2.6439  -23.2944  -45.4938 H         1 UNK         0.3000 
    196 H196       -4.2217  -25.6259  -45.1491 H         1 UNK         0.0600 
    197 H197       -2.5261  -26.1842  -43.3927 H         1 UNK         0.0600 
    198 H198       -3.0515  -24.5111  -43.2817 H         1 UNK         0.0600 
    199 H199       -1.4826  -24.8962  -43.9844 H         1 UNK         0.0600 
    200 H200       -0.9730  -25.1970  -46.6120 H         1 UNK         0.3000 
    201 H201       -0.4868  -27.9783  -47.0916 H         1 UNK         0.0600 
    202 H202        1.3342  -26.3099  -46.9365 H         1 UNK         0.0600 
    203 H203        0.7407  -25.4794  -48.3720 H         1 UNK         0.0600 
    204 H204        1.3843  -27.1122  -48.4994 H         1 UNK         0.0600 
    205 H205       -1.7454  -25.3448  -49.1843 H         1 UNK         0.3000 
    206 H206       -2.0049  -27.0321  -51.5229 H         1 UNK         0.0600 
    207 H207       -2.8993  -24.9598  -52.5342 H         1 UNK         0.0600 
    208 H208       -3.0493  -24.2058  -50.9513 H         1 UNK         0.0600 
    209 H209       -1.4580  -24.5862  -51.6057 H         1 UNK         0.0600 
    210 H210       -4.0072  -26.6033  -48.7994 H         1 UNK         0.3000 
    211 H211       -6.0774  -27.0791  -48.1985 H         1 UNK         0.0600 
    212 H212       -6.4135  -28.6843  -50.7884 H         1 UNK         0.0600 
    213 H213       -7.4127  -28.7922  -49.3477 H         1 UNK         0.0600 
    214 H214       -5.7359  -29.3113  -49.2861 H         1 UNK         0.0600 
    215 H215       -5.5903  -24.6826  -49.1563 H         1 UNK         0.3000 
    216 H216       -6.3394  -22.7393  -49.8981 H         1 UNK         0.0600 
    217 H217       -8.7140  -22.2378  -49.4618 H         1 UNK         0.0600 
    218 H218       -8.0872  -23.2824  -48.1988 H         1 UNK         0.0600 
    219 H219       -9.1174  -23.9500  -49.4648 H         1 UNK         0.0600 
    220 H220       -5.7568  -24.6191  -52.0410 H         1 UNK         0.3000 
    221 H221       -7.6251  -24.4095  -54.1642 H         1 UNK         0.0600 
    222 H222       -4.5981  -24.9001  -54.2252 H         1 UNK         0.0600 
    223 H223       -5.8494  -26.1357  -54.0895 H         1 UNK         0.0600 
    224 H224       -5.7023  -25.1929  -55.5620 H         1 UNK         0.0600 
    225 H225       -7.9505  -22.9331  -55.7411 H         1 UNK         0.3000 
    226 H226       -6.9950  -20.2666  -55.5664 H         1 UNK         0.0600 
    227 H227       -9.2042  -20.8720  -56.5232 H         1 UNK         0.0600 
    228 H228       -8.2580  -19.9819  -57.7045 H         1 UNK         0.0600 
    229 H229       -8.4240  -21.7273  -57.8547 H         1 UNK         0.0600 
    230 H230       -5.7114  -23.0572  -57.2513 H         1 UNK         0.3000 
    231 H231       -4.0030  -21.7508  -59.1252 H         1 UNK         0.0600 
    232 H232       -3.7492  -24.4790  -57.7429 H         1 UNK         0.0600 
    233 H233       -2.8448  -23.9679  -59.1631 H         1 UNK         0.0600 
    234 H234       -4.5872  -24.1617  -59.2629 H         1 UNK         0.0600 
    235 H235       -3.7332  -22.2562  -55.6553 H         1 UNK         0.3000 
    236 H236       -0.8907  -21.3598  -55.5923 H         1 UNK         0.0600 
    237 H237       -1.4461  -23.3793  -54.2580 H         1 UNK         0.0600 
    238 H238       -1.0141  -22.0392  -53.2097 H         1 UNK         0.0600 
    239 H239       -2.7014  -22.4954  -53.3936 H         1 UNK         0.0600 
    240 H240       -4.1348  -20.6483  -54.1909 H         1 UNK         0.3000 
    241 H241       -3.1730  -18.2233  -52.9609 H         1 UNK         0.0600 
    242 H242       -4.5460  -18.6473  -56.1827 H         1 UNK         0.3800 
    243 H243       -4.8605  -16.9482  -56.3818 H         1 UNK         0.3800 
    244 H244       -6.0857  -19.0885  -53.0076 H         1 UNK         0.0800 
    245 H245       -4.9319  -19.9918  -52.0827 H         1 UNK         0.0800 
    246 H246       -4.1973  -19.5976  -49.8499 H         1 UNK         0.0800 
    247 H247       -4.3576  -18.1385  -48.9104 H         1 UNK         0.0800 
@<TRIPOS>BOND
     1    1    2 1    
     2    1  127 1    
     3    1  128 1    
     4    1  129 1    
     5    2    3 2    
     6    2    4 am   BACKBONE|DICT|INTERRES
     7    4    5 1    
     8    4  130 1    
     9    5    6 1    
    10    5   65 1    
    11    5  131 1    
    12    6    7 1    
    13    6  132 1    
    14    6  133 1    
    15    7    8 1    
    16    8    9 1    
    17    8  134 1    
    18    8  135 1    
    19    9   10 ar   
    20    9   14 ar   
    21   10   11 ar   
    22   10  136 1    
    23   11   12 ar   
    24   11  126 1    
    25   12   13 ar   
    26   12  137 1    
    27   13   14 ar   
    28   13   15 1    
    29   14  138 1    
    30   15   16 1    
    31   15  139 1    
    32   15  140 1    
    33   16   17 1    
    34   17   18 1    
    35   17  141 1    
    36   17  142 1    
    37   18   19 1    
    38   18   67 1    
    39   18  143 1    
    40   19   20 am   BACKBONE|DICT|INTERRES
    41   19  144 1    
    42   20   21 2    
    43   20   22 1    
    44   22   23 1    
    45   22   24 1    
    46   22  145 1    
    47   23  146 1    
    48   23  147 1    
    49   23  148 1    
    50   24   25 am   BACKBONE|DICT|INTERRES
    51   24  149 1    
    52   25   26 2    
    53   25   27 1    
    54   27   28 1    
    55   27   29 1    
    56   27  150 1    
    57   28  151 1    
    58   28  152 1    
    59   28  153 1    
    60   29   30 am   BACKBONE|DICT|INTERRES
    61   29  154 1    
    62   30   31 2    
    63   30   32 1    
    64   32   33 1    
    65   32   34 1    
    66   32  155 1    
    67   33  156 1    
    68   33  157 1    
    69   33  158 1    
    70   34   35 am   BACKBONE|DICT|INTERRES
    71   34  159 1    
    72   35   36 2    
    73   35   37 1    
    74   37   38 1    
    75   37   39 1    
    76   37  160 1    
    77   38  161 1    
    78   38  162 1    
    79   38  163 1    
    80   39   40 am   BACKBONE|DICT|INTERRES
    81   39  164 1    
    82   40   41 2    
    83   40   42 1    
    84   42   43 1    
    85   42   44 1    
    86   42  165 1    
    87   43  166 1    
    88   43  167 1    
    89   43  168 1    
    90   44   45 am   BACKBONE|DICT|INTERRES
    91   44  169 1    
    92   45   46 2    
    93   45   47 1    
    94   47   48 1    
    95   47   49 1    
    96   47  170 1    
    97   48  171 1    
    98   48  172 1    
    99   48  173 1    
   100   49   50 am   BACKBONE|DICT|INTERRES
   101   49  174 1    
   102   50   51 2    
   103   50   52 1    
   104   52   53 1    
   105   52   54 1    
   106   52  175 1    
   107   53  176 1    
   108   53  177 1    
   109   53  178 1    
   110   54   55 am   BACKBONE|DICT|INTERRES
   111   54  179 1    
   112   55   56 2    
   113   55   57 1    
   114   57   58 1    
   115   57   59 1    
   116   57  180 1    
   117   58  181 1    
   118   58  182 1    
   119   58  183 1    
   120   59   60 am   BACKBONE|DICT|INTERRES
   121   59  184 1    
   122   60   61 2    
   123   60   62 1    
   124   62   63 1    
   125   62   64 1    
   126   62  185 1    
   127   63  186 1    
   128   63  187 1    
   129   63  188 1    
   130   64   65 am   BACKBONE|DICT|INTERRES
   131   64  189 1    
   132   65   66 2    
   133   67   68 2    
   134   67   69 am   BACKBONE|DICT|INTERRES
   135   69   70 1    
   136   69  190 1    
   137   70   71 1    
   138   70   72 1    
   139   70  191 1    
   140   71  192 1    
   141   71  193 1    
   142   71  194 1    
   143   72   73 2    
   144   72   74 am   BACKBONE|DICT|INTERRES
   145   74   75 1    
   146   74  195 1    
   147   75   76 1    
   148   75   77 1    
   149   75  196 1    
   150   76  197 1    
   151   76  198 1    
   152   76  199 1    
   153   77   78 2    
   154   77   79 am   BACKBONE|DICT|INTERRES
   155   79   80 1    
   156   79  200 1    
   157   80   81 1    
   158   80   82 1    
   159   80  201 1    
   160   81  202 1    
   161   81  203 1    
   162   81  204 1    
   163   82   83 2    
   164   82   84 am   BACKBONE|DICT|INTERRES
   165   84   85 1    
   166   84  205 1    
   167   85   86 1    
   168   85   87 1    
   169   85  206 1    
   170   86  207 1    
   171   86  208 1    
   172   86  209 1    
   173   87   88 2    
   174   87   89 am   BACKBONE|DICT|INTERRES
   175   89   90 1    
   176   89  210 1    
   177   90   91 1    
   178   90   92 1    
   179   90  211 1    
   180   91  212 1    
   181   91  213 1    
   182   91  214 1    
   183   92   93 2    
   184   92   94 am   BACKBONE|DICT|INTERRES
   185   94   95 1    
   186   94  215 1    
   187   95   96 1    
   188   95   97 1    
   189   95  216 1    
   190   96  217 1    
   191   96  218 1    
   192   96  219 1    
   193   97   98 2    
   194   97   99 am   BACKBONE|DICT|INTERRES
   195   99  100 1    
   196   99  220 1    
   197  100  101 1    
   198  100  102 1    
   199  100  221 1    
   200  101  222 1    
   201  101  223 1    
   202  101  224 1    
   203  102  103 2    
   204  102  104 am   BACKBONE|DICT|INTERRES
   205  104  105 1    
   206  104  225 1    
   207  105  106 1    
   208  105  107 1    
   209  105  226 1    
   210  106  227 1    
   211  106  228 1    
   212  106  229 1    
   213  107  108 2    
   214  107  109 am   BACKBONE|DICT|INTERRES
   215  109  110 1    
   216  109  230 1    
   217  110  111 1    
   218  110  112 1    
   219  110  231 1    
   220  111  232 1    
   221  111  233 1    
   222  111  234 1    
   223  112  113 2    
   224  112  114 am   BACKBONE|DICT|INTERRES
   225  114  115 1    
   226  114  235 1    
   227  115  116 1    
   228  115  117 1    
   229  115  236 1    
   230  116  237 1    
   231  116  238 1    
   232  116  239 1    
   233  117  118 2    
   234  117  119 am   BACKBONE|DICT|INTERRES
   235  119  120 1    
   236  119  240 1    
   237  120  121 1    
   238  120  124 1    
   239  120  241 1    
   240  121  122 am   BACKBONE|DICT|INTERRES
   241  121  123 2    
   242  122  242 1    
   243  122  243 1    
   244  124  125 1    
   245  124  244 1    
   246  124  245 1    
   247  125  126 1    
   248  126  246 1    
   249  126  247 1    
@<TRIPOS>SUBSTRUCTURE
     1 UNK         1 GROUP             0       ****    0 ROOT    
