@<TRIPOS>MOLECULE
3R540
247   249    1
SMALL
USER_CHARGES


@<TRIPOS>ATOM
      1 CA          3.8628  -13.3824  -52.2730 C.3       0 UNK        -0.1800 
      2 C           3.6393  -12.6908  -50.9360 C.2       0 UNK         0.5000 
      3 O           3.3140  -11.5044  -50.9015 O.2       0 UNK        -0.5000 
      4 N           3.7896  -13.4320  -49.8322 N.am      1 UNK        -0.5000 
      5 CA          3.6275  -12.9968  -48.4386 C.3       1 UNK         0.1400 
      6 C6          4.4579  -13.8955  -47.4799 C.3       23 UNK        -0.0398 
      7 S7          3.9139  -15.6398  -47.3908 S.3       23 UNK        -0.2404 
      8 C8          4.9004  -16.4702  -48.6740 C.3       23 UNK        -0.0205 
      9 C9          4.0359  -17.4218  -49.4910 C.ar      23 UNK        -0.0193 
     10 C10         3.0475  -16.9121  -50.3369 C.ar      23 UNK        -0.1150 
     11 C11         2.2446  -17.7600  -51.1084 C.ar      23 UNK        -0.0193 
     12 C12         2.4540  -19.1395  -51.0297 C.ar      23 UNK        -0.1150 
     13 C13         3.4476  -19.6672  -50.1993 C.ar      23 UNK        -0.0193 
     14 C14         4.2301  -18.8042  -49.4249 C.ar      23 UNK        -0.1150 
     15 C15         3.7046  -21.1668  -50.1736 C.3       23 UNK        -0.0205 
     16 S16         3.0955  -21.9472  -48.6498 S.3       23 UNK        -0.2404 
     17 C17         1.2899  -21.7485  -48.8246 C.3       23 UNK        -0.0398 
     18 CA          0.5289  -22.7545  -47.9313 C.3       11 UNK         0.1400 
     19 N           0.7230  -22.4990  -46.5017 N.am      11 UNK        -0.5000 
     20 C           0.3630  -23.3440  -45.5266 C.2       10 UNK         0.5000 
     21 O          -0.1447  -24.4472  -45.7319 O.2       10 UNK        -0.5000 
     22 CA          0.5569  -22.8566  -44.0801 C.3       10 UNK         0.1400 
     23 CB          2.0262  -22.9806  -43.6504 C.3       10 UNK        -0.1800 
     24 N           0.0958  -21.4807  -43.8872 N.am      10 UNK        -0.5000 
     25 C          -1.1799  -21.0876  -44.0136 C.2       9 UNK         0.5000 
     26 O          -2.1080  -21.8577  -44.2621 O.2       9 UNK        -0.5000 
     27 CA         -1.4650  -19.5793  -43.8816 C.3       9 UNK         0.1400 
     28 CB         -1.5139  -19.1552  -42.4064 C.3       9 UNK        -0.1800 
     29 N          -0.4956  -18.7500  -44.5974 N.am      9 UNK        -0.5000 
     30 C          -0.3017  -18.7747  -45.9236 C.2       8 UNK         0.5000 
     31 O          -0.9433  -19.4794  -46.6986 O.2       8 UNK        -0.5000 
     32 CA          0.8393  -17.9055  -46.4737 C.3       8 UNK         0.1400 
     33 CB          0.3844  -16.4431  -46.6108 C.3       8 UNK        -0.1800 
     34 N           2.0494  -17.9997  -45.6539 N.am      8 UNK        -0.5000 
     35 C           2.7386  -19.1344  -45.4581 C.2       7 UNK         0.5000 
     36 O           2.4308  -20.2147  -45.9570 O.2       7 UNK        -0.5000 
     37 CA          3.9271  -19.0726  -44.4830 C.3       7 UNK         0.1400 
     38 CB          5.1558  -18.4221  -45.1352 C.3       7 UNK        -0.1800 
     39 N           3.5910  -18.3664  -43.2476 N.am      7 UNK        -0.5000 
     40 C           2.6940  -18.7979  -42.3488 C.2       6 UNK         0.5000 
     41 O           2.1011  -19.8728  -42.4330 O.2       6 UNK        -0.5000 
     42 CA          2.3680  -17.8407  -41.1866 C.3       6 UNK         0.1400 
     43 CB          3.3527  -18.0432  -40.0255 C.3       6 UNK        -0.1800 
     44 N           2.3683  -16.4301  -41.5869 N.am      6 UNK        -0.5000 
     45 C           1.5414  -15.9043  -42.5001 C.2       5 UNK         0.5000 
     46 O           0.6892  -16.5595  -43.1051 O.2       5 UNK        -0.5000 
     47 CA          1.7510  -14.4160  -42.8329 C.3       5 UNK         0.1400 
     48 CB          2.8968  -14.2575  -43.8440 C.3       5 UNK        -0.1800 
     49 N           0.5501  -13.8059  -43.3988 N.am      5 UNK        -0.5000 
     50 C          -0.5875  -13.5777  -42.7278 C.2       4 UNK         0.5000 
     51 O          -0.7255  -13.7980  -41.5226 O.2       4 UNK        -0.5000 
     52 CA         -1.7538  -12.9949  -43.5551 C.3       4 UNK         0.1400 
     53 CB         -2.8971  -12.4297  -42.6860 C.3       4 UNK        -0.1800 
     54 N          -1.3049  -12.0083  -44.5456 N.am      4 UNK        -0.5000 
     55 C          -0.6915  -10.8358  -44.3121 C.2       3 UNK         0.5000 
     56 O          -0.4738  -10.3877  -43.1855 O.2       3 UNK        -0.5000 
     57 CA         -0.2219  -10.0493  -45.5528 C.3       3 UNK         0.1400 
     58 CB          1.0545   -9.2338  -45.2782 C.3       3 UNK        -0.1800 
     59 N           0.0386  -10.9637  -46.6631 N.am      3 UNK        -0.5000 
     60 C          -0.5378  -10.9483  -47.8667 C.2       2 UNK         0.5000 
     61 O          -1.3550  -10.0960  -48.2189 O.2       2 UNK        -0.5000 
     62 CA         -0.1317  -12.0908  -48.8253 C.3       2 UNK         0.1400 
     63 CB         -0.6992  -11.9019  -50.2436 C.3       2 UNK        -0.1800 
     64 N           1.3166  -12.2875  -48.9313 N.am      2 UNK        -0.5000 
     65 C           2.1410  -12.8238  -48.0214 C.2       1 UNK         0.5000 
     66 O           1.7613  -13.1593  -46.8969 O.2       1 UNK        -0.5000 
     67 C          -0.9655  -22.8269  -48.3027 C.2       11 UNK         0.5000 
     68 O          -1.3441  -23.7042  -49.0768 O.2       11 UNK        -0.5000 
     69 N          -1.7980  -21.9561  -47.7137 N.am      12 UNK        -0.5000 
     70 CA         -3.2525  -21.9689  -47.8662 C.3       12 UNK         0.1400 
     71 CB         -3.8686  -20.7315  -47.1963 C.3       12 UNK        -0.1800 
     72 C          -3.8980  -23.2527  -47.3240 C.2       12 UNK         0.5000 
     73 O          -4.7689  -23.8137  -47.9890 O.2       12 UNK        -0.5000 
     74 N          -3.4381  -23.7121  -46.1520 N.am      13 UNK        -0.5000 
     75 CA         -3.8558  -24.9717  -45.5383 C.3       13 UNK         0.1400 
     76 CB         -3.2906  -25.0697  -44.1134 C.3       13 UNK        -0.1800 
     77 C          -3.4531  -26.1943  -46.3823 C.2       13 UNK         0.5000 
     78 O          -4.2848  -27.0748  -46.6029 O.2       13 UNK        -0.5000 
     79 N          -2.2085  -26.2029  -46.8824 N.am      14 UNK        -0.5000 
     80 CA         -1.6744  -27.2368  -47.7739 C.3       14 UNK         0.1400 
     81 CB         -0.1699  -27.0066  -47.9803 C.3       14 UNK        -0.1800 
     82 C          -2.4068  -27.3056  -49.1287 C.2       14 UNK         0.5000 
     83 O          -2.6430  -28.4009  -49.6393 O.2       14 UNK        -0.5000 
     84 N          -2.7842  -26.1380  -49.6652 N.am      15 UNK        -0.5000 
     85 CA         -3.5683  -25.9819  -50.8917 C.3       15 UNK         0.1400 
     86 CB         -3.3348  -24.5683  -51.4432 C.3       15 UNK        -0.1800 
     87 C          -5.0790  -26.2346  -50.7043 C.2       15 UNK         0.5000 
     88 O          -5.8151  -26.1857  -51.6912 O.2       15 UNK        -0.5000 
     89 N          -5.5184  -26.4670  -49.4573 N.am      16 UNK        -0.5000 
     90 CA         -6.9023  -26.6810  -49.0224 C.3       16 UNK         0.1400 
     91 CB         -7.4370  -28.0261  -49.5560 C.3       16 UNK        -0.1800 
     92 C          -7.8229  -25.4878  -49.3556 C.2       16 UNK         0.5000 
     93 O          -8.9579  -25.6829  -49.7942 O.2       16 UNK        -0.5000 
     94 N          -7.2949  -24.2688  -49.1709 N.am      17 UNK        -0.5000 
     95 CA         -7.8863  -22.9451  -49.4086 C.3       17 UNK         0.1400 
     96 CB         -9.1454  -22.7327  -48.5482 C.3       17 UNK        -0.1800 
     97 C          -8.1645  -22.6000  -50.8872 C.2       17 UNK         0.5000 
     98 O          -7.9822  -21.4468  -51.2777 O.2       17 UNK        -0.5000 
     99 N          -8.5891  -23.5878  -51.6837 N.am      18 UNK        -0.5000 
    100 CA        -9.0429  -23.4589  -53.0708 C.3       18 UNK         0.1400 
    101 CB        -9.5449  -24.8295  -53.5499 C.3       18 UNK        -0.1800 
    102 C         -7.9972  -22.9003  -54.0554 C.2       18 UNK         0.5000 
    103 O         -8.3805  -22.2728  -55.0436 O.2       18 UNK        -0.5000 
    104 N         -6.7100  -23.1313  -53.7732 N.am      19 UNK        -0.5000 
    105 CA        -5.5780  -22.6775  -54.5835 C.3       19 UNK         0.1400 
    106 CB        -4.9966  -23.8810  -55.3491 C.3       19 UNK        -0.1800 
    107 C         -4.5292  -21.9535  -53.7181 C.2       19 UNK         0.5000 
    108 O         -3.3381  -22.0124  -54.0252 O.2       19 UNK        -0.5000 
    109 N         -4.9813  -21.3066  -52.6329 N.am      20 UNK        -0.5000 
    110 CA        -4.1345  -20.6327  -51.6453 C.3       20 UNK         0.1400 
    111 CB        -5.0110  -20.1497  -50.4813 C.3       20 UNK        -0.1800 
    112 C         -3.3235  -19.4510  -52.2021 C.2       20 UNK         0.5000 
    113 O         -2.1584  -19.2923  -51.8356 O.2       20 UNK        -0.5000 
    114 N         -3.9731  -18.6310  -53.0418 N.am      21 UNK        -0.5000 
    115 CA        -3.4993  -17.3920  -53.6777 C.3       21 UNK         0.1400 
    116 CB        -2.2970  -17.6602  -54.6037 C.3       21 UNK        -0.1800 
    117 C         -3.1987  -16.2386  -52.6961 C.2       21 UNK         0.5000 
    118 O         -3.6876  -15.1273  -52.9020 O.2       21 UNK        -0.5000 
    119 N         -2.4132  -16.5226  -51.6538 N.am      22 UNK        -0.5000 
    120 CA        -1.9601  -15.5757  -50.6220 C.3       22 UNK         0.1400 
    121 C         -2.8374  -15.5775  -49.3369 C.2       22 UNK         0.5000 
    122 N         -3.9003  -16.3685  -49.2554 N.am      22 UNK        -0.7600 
    123 O         -2.5609  -14.8320  -48.4018 O.2       22 UNK        -0.5000 
    124 C124       -0.4617  -15.7905  -50.2850 C.3       23 UNK        -0.0398 
    125 S125        0.6037  -15.5273  -51.7433 S.3       23 UNK        -0.2404 
    126 C126        1.1845  -17.2277  -52.0751 C.3       23 UNK        -0.0205 
    127 H127        2.9419  -13.3745  -52.8562 H         1 UNK         0.0600 
    128 H128        4.1749  -14.4195  -52.1471 H         1 UNK         0.0600 
    129 H129        4.6334  -12.8619  -52.8414 H         1 UNK         0.0600 
    130 H130        4.0276  -14.4061  -49.9350 H         1 UNK         0.3000 
    131 H131        4.0581  -11.9961  -48.3662 H         1 UNK         0.0600 
    132 H132        5.5109  -13.8672  -47.7627 H         1 UNK         0.0800 
    133 H133        4.4236  -13.4861  -46.4691 H         1 UNK         0.0800 
    134 H134        5.3641  -15.7435  -49.3411 H         1 UNK         0.0800 
    135 H135        5.7193  -17.0064  -48.1922 H         1 UNK         0.0800 
    136 H136        2.9061  -15.8464  -50.3898 H         1 UNK         0.1150 
    137 H137        1.8531  -19.8047  -51.6342 H         1 UNK         0.1150 
    138 H138        4.9965  -19.2122  -48.7812 H         1 UNK         0.1150 
    139 H139        3.2525  -21.6554  -51.0381 H         1 UNK         0.0800 
    140 H140        4.7778  -21.3458  -50.2527 H         1 UNK         0.0800 
    141 H141        1.0300  -21.8952  -49.8746 H         1 UNK         0.0800 
    142 H142        1.0178  -20.7213  -48.5748 H         1 UNK         0.0800 
    143 H143        0.9397  -23.7459  -48.1344 H         1 UNK         0.0600 
    144 H144        1.1863  -21.6266  -46.2574 H         1 UNK         0.3000 
    145 H145       -0.0395  -23.5016  -43.4316 H         1 UNK         0.0600 
    146 H146        2.3853  -24.0026  -43.7770 H         1 UNK         0.0600 
    147 H147        2.6752  -22.3290  -44.2360 H         1 UNK         0.0600 
    148 H148        2.1519  -22.7192  -42.5996 H         1 UNK         0.0600 
    149 H149        0.8020  -20.7943  -43.6406 H         1 UNK         0.3000 
    150 H150       -2.4465  -19.3888  -44.3203 H         1 UNK         0.0600 
    151 H151       -1.7725  -18.1007  -42.3076 H         1 UNK         0.0600 
    152 H152       -0.5560  -19.3114  -41.9104 H         1 UNK         0.0600 
    153 H153       -2.2641  -19.7285  -41.8605 H         1 UNK         0.0600 
    154 H154        0.0545  -18.1013  -44.0400 H         1 UNK         0.3000 
    155 H155        1.0851  -18.2759  -47.4717 H         1 UNK         0.0600 
    156 H156        0.2644  -15.9573  -45.6431 H         1 UNK         0.0600 
    157 H157       -0.5745  -16.3802  -47.1261 H         1 UNK         0.0600 
    158 H158        1.0923  -15.8585  -47.1944 H         1 UNK         0.0600 
    159 H159        2.3460  -17.1585  -45.1846 H         1 UNK         0.3000 
    160 H160        4.1904  -20.1004  -44.2236 H         1 UNK         0.0600 
    161 H161        5.3752  -18.8778  -46.1018 H         1 UNK         0.0600 
    162 H162        6.0407  -18.5431  -44.5103 H         1 UNK         0.0600 
    163 H163        5.0090  -17.3551  -45.2989 H         1 UNK         0.0600 
    164 H164        4.0297  -17.4705  -43.0977 H         1 UNK         0.3000 
    165 H165        1.3654  -18.0850  -40.8298 H         1 UNK         0.0600 
    166 H166        3.0791  -17.4323  -39.1650 H         1 UNK         0.0600 
    167 H167        3.3575  -19.0830  -39.6956 H         1 UNK         0.0600 
    168 H168        4.3730  -17.7846  -40.3113 H         1 UNK         0.0600 
    169 H169        3.0477  -15.8340  -41.1363 H         1 UNK         0.3000 
    170 H170        2.0088  -13.8830  -41.9154 H         1 UNK         0.0600 
    171 H171        3.0714  -13.2080  -44.0822 H         1 UNK         0.0600 
    172 H172        3.8316  -14.6611  -43.4537 H         1 UNK         0.0600 
    173 H173        2.6781  -14.7772  -44.7773 H         1 UNK         0.0600 
    174 H174        0.5744  -13.6125  -44.3892 H         1 UNK         0.3000 
    175 H175       -2.1618  -13.8317  -44.1241 H         1 UNK         0.0600 
    176 H176       -2.5539  -11.6275  -42.0322 H         1 UNK         0.0600 
    177 H177       -3.7048  -12.0371  -43.3037 H         1 UNK         0.0600 
    178 H178       -3.3244  -13.2066  -42.0509 H         1 UNK         0.0600 
    179 H179       -1.4342  -12.2737  -45.5115 H         1 UNK         0.3000 
    180 H180       -1.0260   -9.3565  -45.8079 H         1 UNK         0.0600 
    181 H181        0.8899   -8.4942  -44.4937 H         1 UNK         0.0600 
    182 H182        1.3740   -8.6929  -46.1691 H         1 UNK         0.0600 
    183 H183        1.8787   -9.8745  -44.9619 H         1 UNK         0.0600 
    184 H184        0.7028  -11.7143  -46.4842 H         1 UNK         0.3000 
    185 H185       -0.5613  -13.0049  -48.4132 H         1 UNK         0.0600 
    186 H186       -1.7893  -11.8691  -50.2292 H         1 UNK         0.0600 
    187 H187       -0.3448  -10.9751  -50.6963 H         1 UNK         0.0600 
    188 H188       -0.4092  -12.7220  -50.8996 H         1 UNK         0.0600 
    189 H189        1.7459  -11.9697  -49.7941 H         1 UNK         0.3000 
    190 H190       -1.4115  -21.2112  -47.1378 H         1 UNK         0.3000 
    191 H191       -3.4638  -21.9255  -48.9340 H         1 UNK         0.0600 
    192 H192       -3.6814  -20.7177  -46.1230 H         1 UNK         0.0600 
    193 H193       -4.9495  -20.7065  -47.3397 H         1 UNK         0.0600 
    194 H194       -3.4629  -19.8106  -47.6144 H         1 UNK         0.0600 
    195 H195       -2.7555  -23.1590  -45.6426 H         1 UNK         0.3000 
    196 H196       -4.9455  -24.9617  -45.4685 H         1 UNK         0.0600 
    197 H197       -3.6116  -25.9925  -43.6288 H         1 UNK         0.0600 
    198 H198       -3.6360  -24.2403  -43.4960 H         1 UNK         0.0600 
    199 H199       -2.2007  -25.0571  -44.1072 H         1 UNK         0.0600 
    200 H200       -1.5718  -25.4559  -46.6185 H         1 UNK         0.3000 
    201 H201       -1.8052  -28.2009  -47.2782 H         1 UNK         0.0600 
    202 H202        0.3653  -27.0196  -47.0307 H         1 UNK         0.0600 
    203 H203        0.0280  -26.0490  -48.4622 H         1 UNK         0.0600 
    204 H204        0.2622  -27.7862  -48.6089 H         1 UNK         0.0600 
    205 H205       -2.4800  -25.2778  -49.2177 H         1 UNK         0.3000 
    206 H206       -3.2074  -26.6998  -51.6307 H         1 UNK         0.0600 
    207 H207       -3.8435  -24.4377  -52.3967 H         1 UNK         0.0600 
    208 H208       -3.7085  -23.8047  -50.7602 H         1 UNK         0.0600 
    209 H209       -2.2756  -24.3775  -51.6159 H         1 UNK         0.0600 
    210 H210       -4.8329  -26.4587  -48.7127 H         1 UNK         0.3000 
    211 H211       -6.8726  -26.7459  -47.9340 H         1 UNK         0.0600 
    212 H212       -7.5424  -28.0193  -50.6413 H         1 UNK         0.0600 
    213 H213       -8.4166  -28.2525  -49.1337 H         1 UNK         0.0600 
    214 H214       -6.7718  -28.8472  -49.2886 H         1 UNK         0.0600 
    215 H215       -6.3402  -24.2336  -48.8147 H         1 UNK         0.3000 
    216 H216       -7.1395  -22.2333  -49.0575 H         1 UNK         0.0600 
    217 H217       -9.5096  -21.7087  -48.6401 H         1 UNK         0.0600 
    218 H218       -8.9359  -22.9092  -47.4931 H         1 UNK         0.0600 
    219 H219       -9.9600  -23.3940  -48.8446 H         1 UNK         0.0600 
    220 H220       -8.7247  -24.4949  -51.2460 H         1 UNK         0.3000 
    221 H221       -9.8872  -22.7668  -53.0716 H         1 UNK         0.0600 
    222 H222       -8.7498  -25.5762  -53.5274 H         1 UNK         0.0600 
    223 H223      -10.3616  -25.1913  -52.9247 H         1 UNK         0.0600 
    224 H224       -9.9187  -24.7762  -54.5733 H         1 UNK         0.0600 
    225 H225       -6.4888  -23.6652  -52.9434 H         1 UNK         0.3000 
    226 H226       -5.9080  -21.9411  -55.3188 H         1 UNK         0.0600 
    227 H227       -5.7525  -24.3421  -55.9850 H         1 UNK         0.0600 
    228 H228       -4.1731  -23.5787  -55.9972 H         1 UNK         0.0600 
    229 H229       -4.6206  -24.6471  -54.6707 H         1 UNK         0.0600 
    230 H230       -5.9777  -21.3030  -52.4529 H         1 UNK         0.3000 
    231 H231       -3.4190  -21.3633  -51.2634 H         1 UNK         0.0600 
    232 H232       -5.8318  -19.5195  -50.8260 H         1 UNK         0.0600 
    233 H233       -5.4409  -20.9909  -49.9419 H         1 UNK         0.0600 
    234 H234       -4.4310  -19.5648  -49.7676 H         1 UNK         0.0600 
    235 H235       -4.9349  -18.8646  -53.2445 H         1 UNK         0.3000 
    236 H236       -4.3229  -17.0551  -54.3092 H         1 UNK         0.0600 
    237 H237       -1.4173  -17.9894  -54.0504 H         1 UNK         0.0600 
    238 H238       -2.5329  -18.4258  -55.3428 H         1 UNK         0.0600 
    239 H239       -2.0173  -16.7571  -55.1475 H         1 UNK         0.0600 
    240 H240       -2.0870  -17.4821  -51.5666 H         1 UNK         0.3000 
    241 H241       -2.0558  -14.5646  -51.0205 H         1 UNK         0.0600 
    242 H242       -4.4658  -16.3503  -48.4219 H         1 UNK         0.3800 
    243 H243       -4.1583  -16.9572  -50.0291 H         1 UNK         0.3800 
    244 H244       -0.1296  -15.0927  -49.5156 H         1 UNK         0.0800 
    245 H245       -0.2985  -16.7889  -49.8755 H         1 UNK         0.0800 
    246 H246        1.6037  -17.2513  -53.0815 H         1 UNK         0.0800 
    247 H247        0.3224  -17.8965  -52.0862 H         1 UNK         0.0800 
@<TRIPOS>BOND
     1    1    2 1    
     2    1  127 1    
     3    1  128 1    
     4    1  129 1    
     5    2    3 2    
     6    2    4 am   BACKBONE|DICT|INTERRES
     7    4    5 1    
     8    4  130 1    
     9    5    6 1    
    10    5   65 1    
    11    5  131 1    
    12    6    7 1    
    13    6  132 1    
    14    6  133 1    
    15    7    8 1    
    16    8    9 1    
    17    8  134 1    
    18    8  135 1    
    19    9   10 ar   
    20    9   14 ar   
    21   10   11 ar   
    22   10  136 1    
    23   11   12 ar   
    24   11  126 1    
    25   12   13 ar   
    26   12  137 1    
    27   13   14 ar   
    28   13   15 1    
    29   14  138 1    
    30   15   16 1    
    31   15  139 1    
    32   15  140 1    
    33   16   17 1    
    34   17   18 1    
    35   17  141 1    
    36   17  142 1    
    37   18   19 1    
    38   18   67 1    
    39   18  143 1    
    40   19   20 am   BACKBONE|DICT|INTERRES
    41   19  144 1    
    42   20   21 2    
    43   20   22 1    
    44   22   23 1    
    45   22   24 1    
    46   22  145 1    
    47   23  146 1    
    48   23  147 1    
    49   23  148 1    
    50   24   25 am   BACKBONE|DICT|INTERRES
    51   24  149 1    
    52   25   26 2    
    53   25   27 1    
    54   27   28 1    
    55   27   29 1    
    56   27  150 1    
    57   28  151 1    
    58   28  152 1    
    59   28  153 1    
    60   29   30 am   BACKBONE|DICT|INTERRES
    61   29  154 1    
    62   30   31 2    
    63   30   32 1    
    64   32   33 1    
    65   32   34 1    
    66   32  155 1    
    67   33  156 1    
    68   33  157 1    
    69   33  158 1    
    70   34   35 am   BACKBONE|DICT|INTERRES
    71   34  159 1    
    72   35   36 2    
    73   35   37 1    
    74   37   38 1    
    75   37   39 1    
    76   37  160 1    
    77   38  161 1    
    78   38  162 1    
    79   38  163 1    
    80   39   40 am   BACKBONE|DICT|INTERRES
    81   39  164 1    
    82   40   41 2    
    83   40   42 1    
    84   42   43 1    
    85   42   44 1    
    86   42  165 1    
    87   43  166 1    
    88   43  167 1    
    89   43  168 1    
    90   44   45 am   BACKBONE|DICT|INTERRES
    91   44  169 1    
    92   45   46 2    
    93   45   47 1    
    94   47   48 1    
    95   47   49 1    
    96   47  170 1    
    97   48  171 1    
    98   48  172 1    
    99   48  173 1    
   100   49   50 am   BACKBONE|DICT|INTERRES
   101   49  174 1    
   102   50   51 2    
   103   50   52 1    
   104   52   53 1    
   105   52   54 1    
   106   52  175 1    
   107   53  176 1    
   108   53  177 1    
   109   53  178 1    
   110   54   55 am   BACKBONE|DICT|INTERRES
   111   54  179 1    
   112   55   56 2    
   113   55   57 1    
   114   57   58 1    
   115   57   59 1    
   116   57  180 1    
   117   58  181 1    
   118   58  182 1    
   119   58  183 1    
   120   59   60 am   BACKBONE|DICT|INTERRES
   121   59  184 1    
   122   60   61 2    
   123   60   62 1    
   124   62   63 1    
   125   62   64 1    
   126   62  185 1    
   127   63  186 1    
   128   63  187 1    
   129   63  188 1    
   130   64   65 am   BACKBONE|DICT|INTERRES
   131   64  189 1    
   132   65   66 2    
   133   67   68 2    
   134   67   69 am   BACKBONE|DICT|INTERRES
   135   69   70 1    
   136   69  190 1    
   137   70   71 1    
   138   70   72 1    
   139   70  191 1    
   140   71  192 1    
   141   71  193 1    
   142   71  194 1    
   143   72   73 2    
   144   72   74 am   BACKBONE|DICT|INTERRES
   145   74   75 1    
   146   74  195 1    
   147   75   76 1    
   148   75   77 1    
   149   75  196 1    
   150   76  197 1    
   151   76  198 1    
   152   76  199 1    
   153   77   78 2    
   154   77   79 am   BACKBONE|DICT|INTERRES
   155   79   80 1    
   156   79  200 1    
   157   80   81 1    
   158   80   82 1    
   159   80  201 1    
   160   81  202 1    
   161   81  203 1    
   162   81  204 1    
   163   82   83 2    
   164   82   84 am   BACKBONE|DICT|INTERRES
   165   84   85 1    
   166   84  205 1    
   167   85   86 1    
   168   85   87 1    
   169   85  206 1    
   170   86  207 1    
   171   86  208 1    
   172   86  209 1    
   173   87   88 2    
   174   87   89 am   BACKBONE|DICT|INTERRES
   175   89   90 1    
   176   89  210 1    
   177   90   91 1    
   178   90   92 1    
   179   90  211 1    
   180   91  212 1    
   181   91  213 1    
   182   91  214 1    
   183   92   93 2    
   184   92   94 am   BACKBONE|DICT|INTERRES
   185   94   95 1    
   186   94  215 1    
   187   95   96 1    
   188   95   97 1    
   189   95  216 1    
   190   96  217 1    
   191   96  218 1    
   192   96  219 1    
   193   97   98 2    
   194   97   99 am   BACKBONE|DICT|INTERRES
   195   99  100 1    
   196   99  220 1    
   197  100  101 1    
   198  100  102 1    
   199  100  221 1    
   200  101  222 1    
   201  101  223 1    
   202  101  224 1    
   203  102  103 2    
   204  102  104 am   BACKBONE|DICT|INTERRES
   205  104  105 1    
   206  104  225 1    
   207  105  106 1    
   208  105  107 1    
   209  105  226 1    
   210  106  227 1    
   211  106  228 1    
   212  106  229 1    
   213  107  108 2    
   214  107  109 am   BACKBONE|DICT|INTERRES
   215  109  110 1    
   216  109  230 1    
   217  110  111 1    
   218  110  112 1    
   219  110  231 1    
   220  111  232 1    
   221  111  233 1    
   222  111  234 1    
   223  112  113 2    
   224  112  114 am   BACKBONE|DICT|INTERRES
   225  114  115 1    
   226  114  235 1    
   227  115  116 1    
   228  115  117 1    
   229  115  236 1    
   230  116  237 1    
   231  116  238 1    
   232  116  239 1    
   233  117  118 2    
   234  117  119 am   BACKBONE|DICT|INTERRES
   235  119  120 1    
   236  119  240 1    
   237  120  121 1    
   238  120  124 1    
   239  120  241 1    
   240  121  122 am   BACKBONE|DICT|INTERRES
   241  121  123 2    
   242  122  242 1    
   243  122  243 1    
   244  124  125 1    
   245  124  244 1    
   246  124  245 1    
   247  125  126 1    
   248  126  246 1    
   249  126  247 1    
@<TRIPOS>SUBSTRUCTURE
     1 UNK         1 GROUP             0       ****    0 ROOT    
