@<TRIPOS>MOLECULE
3R540
247   249    1
SMALL
USER_CHARGES


@<TRIPOS>ATOM
      1 CA          6.0386  -10.2589  -49.1633 C.3       0 UNK        -0.1800 
      2 C           5.0418  -11.3008  -48.6758 C.2       0 UNK         0.5000 
      3 O           5.2576  -11.9127  -47.6302 O.2       0 UNK        -0.5000 
      4 N           3.9489  -11.4988  -49.4248 N.am      1 UNK        -0.5000 
      5 CA          2.8759  -12.4538  -49.1125 C.3       1 UNK         0.1400 
      6 C6          2.1924  -12.9676  -50.4068 C.3       23 UNK        -0.0398 
      7 S7          1.4917  -14.6416  -50.2137 S.3       23 UNK        -0.2404 
      8 C8          2.8756  -15.6702  -50.7914 C.3       23 UNK        -0.0205 
      9 C9          2.5970  -17.1438  -50.5438 C.ar      23 UNK        -0.0193 
     10 C10         1.6783  -17.8251  -51.3474 C.ar      23 UNK        -0.1150 
     11 C11         1.3941  -19.1726  -51.1132 C.ar      23 UNK        -0.0193 
     12 C12         2.0520  -19.8446  -50.0801 C.ar      23 UNK        -0.1150 
     13 C13         2.9816  -19.1791  -49.2765 C.ar      23 UNK        -0.0193 
     14 C14         3.2494  -17.8268  -49.5122 C.ar      23 UNK        -0.1150 
     15 C15         3.7074  -19.9321  -48.1700 C.3       23 UNK        -0.0205 
     16 S16         3.2930  -19.3313  -46.5006 S.3       23 UNK        -0.2404 
     17 C17         1.4728  -19.4699  -46.4398 C.3       23 UNK        -0.0398 
     18 CA          0.9276  -20.9050  -46.6156 C.3       11 UNK         0.1400 
     19 N           1.5304  -21.8640  -45.6898 N.am      11 UNK        -0.5000 
     20 C           1.5093  -23.1915  -45.8708 C.2       10 UNK         0.5000 
     21 O           1.0018  -23.7374  -46.8503 O.2       10 UNK        -0.5000 
     22 CA          2.1151  -24.0534  -44.7471 C.3       10 UNK         0.1400 
     23 CB          3.6297  -24.2100  -44.9475 C.3       10 UNK        -0.1800 
     24 N           1.8586  -23.5050  -43.4140 N.am      10 UNK        -0.5000 
     25 C           0.6404  -23.3448  -42.8772 C.2       9 UNK         0.5000 
     26 O          -0.3949  -23.7176  -43.4265 O.2       9 UNK        -0.5000 
     27 CA          0.5550  -22.6056  -41.5280 C.3       9 UNK         0.1400 
     28 CB          0.4412  -23.6099  -40.3721 C.3       9 UNK        -0.1800 
     29 N           1.6869  -21.7084  -41.2781 N.am      9 UNK        -0.5000 
     30 C           1.9635  -20.6072  -41.9892 C.2       8 UNK         0.5000 
     31 O           1.2982  -20.2325  -42.9575 O.2       8 UNK        -0.5000 
     32 CA          3.2355  -19.8505  -41.5877 C.3       8 UNK         0.1400 
     33 CB          4.3353  -20.0287  -42.6469 C.3       8 UNK        -0.1800 
     34 N           2.9464  -18.4314  -41.4161 N.am      8 UNK        -0.5000 
     35 C           3.5085  -17.6498  -40.4849 C.2       7 UNK         0.5000 
     36 O           4.3317  -18.0529  -39.6614 O.2       7 UNK        -0.5000 
     37 CA          3.0867  -16.1686  -40.4527 C.3       7 UNK         0.1400 
     38 CB          3.8933  -15.3506  -41.4726 C.3       7 UNK        -0.1800 
     39 N           1.6583  -15.9691  -40.6899 N.am      7 UNK        -0.5000 
     40 C           0.6826  -16.3261  -39.8425 C.2       6 UNK         0.5000 
     41 O           0.8825  -16.8540  -38.7481 O.2       6 UNK        -0.5000 
     42 CA         -0.7612  -16.0509  -40.2981 C.3       6 UNK         0.1400 
     43 CB         -1.1894  -14.6215  -39.9312 C.3       6 UNK        -0.1800 
     44 N          -0.9059  -16.2547  -41.7394 N.am      6 UNK        -0.5000 
     45 C          -1.1081  -17.4546  -42.3011 C.2       5 UNK         0.5000 
     46 O          -1.3124  -18.4790  -41.6504 O.2       5 UNK        -0.5000 
     47 CA         -1.0707  -17.5340  -43.8412 C.3       5 UNK         0.1400 
     48 CB         -2.4900  -17.4779  -44.4265 C.3       5 UNK        -0.1800 
     49 N          -0.2575  -16.4894  -44.4699 N.am      5 UNK        -0.5000 
     50 C           1.0736  -16.3839  -44.3536 C.2       4 UNK         0.5000 
     51 O           1.7666  -17.1669  -43.7084 O.2       4 UNK        -0.5000 
     52 CA          1.7350  -15.1651  -45.0219 C.3       4 UNK         0.1400 
     53 CB          2.0494  -15.4695  -46.4931 C.3       4 UNK        -0.1800 
     54 N           0.9475  -13.9296  -44.9190 N.am      4 UNK        -0.5000 
     55 C           0.5536  -13.3742  -43.7607 C.2       3 UNK         0.5000 
     56 O           0.7866  -13.8836  -42.6628 O.2       3 UNK        -0.5000 
     57 CA         -0.2692  -12.0682  -43.8325 C.3       3 UNK         0.1400 
     58 CB         -0.1642  -11.2245  -42.5444 C.3       3 UNK        -0.1800 
     59 N           0.0080  -11.2518  -45.0190 N.am      3 UNK        -0.5000 
     60 C           1.1642  -10.6585  -45.3474 C.2       2 UNK         0.5000 
     61 O           2.1890  -10.6956  -44.6636 O.2       2 UNK        -0.5000 
     62 CA          1.1779   -9.9279  -46.7050 C.3       2 UNK         0.1400 
     63 CB          1.6816   -8.4830  -46.5573 C.3       2 UNK        -0.1800 
     64 N           2.0041  -10.6229  -47.6926 N.am      2 UNK        -0.5000 
     65 C           1.8543  -11.8963  -48.0881 C.2       1 UNK         0.5000 
     66 O           0.9487  -12.6221  -47.6736 O.2       1 UNK        -0.5000 
     67 C          -0.6090  -20.9241  -46.5072 C.2       11 UNK         0.5000 
     68 O          -1.2838  -20.8084  -47.5280 O.2       11 UNK        -0.5000 
     69 N          -1.1392  -21.1222  -45.2899 N.am      12 UNK        -0.5000 
     70 CA         -2.5722  -21.3001  -45.0405 C.3       12 UNK         0.1400 
     71 CB         -2.8536  -21.2671  -43.5312 C.3       12 UNK        -0.1800 
     72 C          -3.1113  -22.5993  -45.6658 C.2       12 UNK         0.5000 
     73 O          -4.1765  -22.5818  -46.2811 O.2       12 UNK        -0.5000 
     74 N          -2.3428  -23.6900  -45.5361 N.am      13 UNK        -0.5000 
     75 CA         -2.6242  -24.9895  -46.1467 C.3       13 UNK         0.1400 
     76 CB         -1.6243  -26.0291  -45.6192 C.3       13 UNK        -0.1800 
     77 C          -2.6078  -24.9463  -47.6862 C.2       13 UNK         0.5000 
     78 O          -3.4121  -25.6324  -48.3165 O.2       13 UNK        -0.5000 
     79 N          -1.7205  -24.1240  -48.2636 N.am      14 UNK        -0.5000 
     80 CA         -1.6822  -23.8411  -49.6971 C.3       14 UNK         0.1400 
     81 CB         -0.3529  -23.1651  -50.0605 C.3       14 UNK        -0.1800 
     82 C          -2.8833  -22.9874  -50.1424 C.2       14 UNK         0.5000 
     83 O          -3.5409  -23.3338  -51.1226 O.2       14 UNK        -0.5000 
     84 N          -3.1799  -21.9145  -49.3940 N.am      15 UNK        -0.5000 
     85 CA         -4.2896  -20.9928  -49.6556 C.3       15 UNK         0.1400 
     86 CB         -4.2031  -19.7950  -48.6992 C.3       15 UNK        -0.1800 
     87 C          -5.6791  -21.6525  -49.5787 C.2       15 UNK         0.5000 
     88 O          -6.5949  -21.2229  -50.2811 O.2       15 UNK        -0.5000 
     89 N          -5.8024  -22.7181  -48.7749 N.am      16 UNK        -0.5000 
     90 CA         -6.9923  -23.5638  -48.6530 C.3       16 UNK         0.1400 
     91 CB         -6.7800  -24.5715  -47.5131 C.3       16 UNK        -0.1800 
     92 C          -7.3979  -24.2894  -49.9554 C.2       16 UNK         0.5000 
     93 O          -8.5424  -24.7331  -50.0565 O.2       16 UNK        -0.5000 
     94 N          -6.4889  -24.3715  -50.9405 N.am      17 UNK        -0.5000 
     95 CA         -6.7760  -24.8476  -52.2972 C.3       17 UNK         0.1400 
     96 CB         -5.4570  -25.2230  -52.9901 C.3       17 UNK        -0.1800 
     97 C          -7.5657  -23.8270  -53.1479 C.2       17 UNK         0.5000 
     98 O          -8.0116  -24.1795  -54.2411 O.2       17 UNK        -0.5000 
     99 N          -7.7287  -22.5928  -52.6444 N.am      18 UNK        -0.5000 
    100 CA        -8.4456  -21.4724  -53.2526 C.3       18 UNK         0.1400 
    101 CB        -9.9605  -21.7699  -53.3321 C.3       18 UNK        -0.1800 
    102 C         -7.8005  -21.0508  -54.5871 C.2       18 UNK         0.5000 
    103 O         -6.5817  -20.8714  -54.6285 O.2       18 UNK        -0.5000 
    104 N         -8.6082  -20.9070  -55.6466 N.am      19 UNK        -0.5000 
    105 CA        -8.2164  -20.4391  -56.9810 C.3       19 UNK         0.1400 
    106 CB        -9.4810  -20.3056  -57.8440 C.3       19 UNK        -0.1800 
    107 C         -7.1605  -21.3040  -57.7014 C.2       19 UNK         0.5000 
    108 O         -6.5519  -20.8305  -58.6619 O.2       19 UNK        -0.5000 
    109 N         -6.9440  -22.5393  -57.2287 N.am      20 UNK        -0.5000 
    110 CA        -5.8691  -23.4235  -57.6809 C.3       20 UNK         0.1400 
    111 CB        -6.1730  -24.8544  -57.2125 C.3       20 UNK        -0.1800 
    112 C         -4.4698  -22.9805  -57.1999 C.2       20 UNK         0.5000 
    113 O         -3.4741  -23.4548  -57.7492 O.2       20 UNK        -0.5000 
    114 N         -4.4073  -22.0955  -56.1965 N.am      21 UNK        -0.5000 
    115 CA        -3.1812  -21.5465  -55.6301 C.3       21 UNK         0.1400 
    116 CB        -2.6605  -22.4828  -54.5171 C.3       21 UNK        -0.1800 
    117 C         -3.4374  -20.0965  -55.1748 C.2       21 UNK         0.5000 
    118 O         -4.0291  -19.3153  -55.9219 O.2       21 UNK        -0.5000 
    119 N         -2.9738  -19.7605  -53.9687 N.am      22 UNK        -0.5000 
    120 CA        -3.0822  -18.4531  -53.3027 C.3       22 UNK         0.1400 
    121 C         -4.4069  -18.2295  -52.5104 C.2       22 UNK         0.5000 
    122 N         -5.4242  -19.0695  -52.6432 N.am      22 UNK        -0.7600 
    123 O         -4.5268  -17.2616  -51.7644 O.2       22 UNK        -0.5000 
    124 C124       -1.8164  -18.1666  -52.4444 C.3       23 UNK        -0.0398 
    125 S125       -1.3189  -19.5713  -51.3790 S.3       23 UNK        -0.2404 
    126 C126        0.3714  -19.9055  -51.9647 C.3       23 UNK        -0.0205 
    127 H127        7.0130  -10.7197  -49.3263 H         1 UNK         0.0600 
    128 H128        5.7199   -9.7982  -50.0988 H         1 UNK         0.0600 
    129 H129        6.1530   -9.4716  -48.4181 H         1 UNK         0.0600 
    130 H130        3.8254  -10.9587  -50.2703 H         1 UNK         0.3000 
    131 H131        3.3507  -13.3120  -48.6340 H         1 UNK         0.0600 
    132 H132        2.9093  -13.0020  -51.2286 H         1 UNK         0.0800 
    133 H133        1.4046  -12.2873  -50.7352 H         1 UNK         0.0800 
    134 H134        3.0375  -15.5007  -51.8569 H         1 UNK         0.0800 
    135 H135        3.7919  -15.3654  -50.2833 H         1 UNK         0.0800 
    136 H136        1.1700  -17.2977  -52.1419 H         1 UNK         0.1150 
    137 H137        1.8395  -20.8893  -49.9046 H         1 UNK         0.1150 
    138 H138        3.9626  -17.3080  -48.8869 H         1 UNK         0.1150 
    139 H139        3.5017  -21.0022  -48.2243 H         1 UNK         0.0800 
    140 H140        4.7826  -19.8263  -48.3198 H         1 UNK         0.0800 
    141 H141        1.0489  -18.8014  -47.1915 H         1 UNK         0.0800 
    142 H142        1.1617  -19.0770  -45.4735 H         1 UNK         0.0800 
    143 H143        1.1687  -21.2276  -47.6292 H         1 UNK         0.0600 
    144 H144        1.9313  -21.4800  -44.8447 H         1 UNK         0.3000 
    145 H145        1.6554  -25.0424  -44.8000 H         1 UNK         0.0600 
    146 H146        4.0600  -24.8770  -44.2003 H         1 UNK         0.0600 
    147 H147        3.8512  -24.6353  -45.9273 H         1 UNK         0.0600 
    148 H148        4.1468  -23.2517  -44.8812 H         1 UNK         0.0600 
    149 H149        2.6584  -23.1815  -42.8912 H         1 UNK         0.3000 
    150 H150       -0.3531  -21.9991  -41.5455 H         1 UNK         0.0600 
    151 H151       -0.4110  -24.2758  -40.5161 H         1 UNK         0.0600 
    152 H152        0.2954  -23.1005  -39.4193 H         1 UNK         0.0600 
    153 H153        1.3333  -24.2318  -40.2890 H         1 UNK         0.0600 
    154 H154        2.2886  -21.9557  -40.5055 H         1 UNK         0.3000 
    155 H155        3.5943  -20.2700  -40.6453 H         1 UNK         0.0600 
    156 H156        4.0464  -19.5813  -43.5983 H         1 UNK         0.0600 
    157 H157        4.5442  -21.0838  -42.8269 H         1 UNK         0.0600 
    158 H158        5.2673  -19.5611  -42.3291 H         1 UNK         0.0600 
    159 H159        2.3061  -18.0280  -42.0981 H         1 UNK         0.3000 
    160 H160        3.3141  -15.7803  -39.4577 H         1 UNK         0.0600 
    161 H161        3.6094  -14.2981  -41.4511 H         1 UNK         0.0600 
    162 H162        3.7470  -15.7173  -42.4882 H         1 UNK         0.0600 
    163 H163        4.9609  -15.4058  -41.2572 H         1 UNK         0.0600 
    164 H164        1.4031  -15.4923  -41.5472 H         1 UNK         0.3000 
    165 H165       -1.4204  -16.7407  -39.7666 H         1 UNK         0.0600 
    166 H166       -2.2087  -14.4174  -40.2593 H         1 UNK         0.0600 
    167 H167       -1.1596  -14.4745  -38.8509 H         1 UNK         0.0600 
    168 H168       -0.5358  -13.8729  -40.3781 H         1 UNK         0.0600 
    169 H169       -0.6930  -15.4629  -42.3314 H         1 UNK         0.3000 
    170 H170       -0.6376  -18.5021  -44.0964 H         1 UNK         0.0600 
    171 H171       -3.1366  -18.2266  -43.9682 H         1 UNK         0.0600 
    172 H172       -2.9535  -16.5042  -44.2637 H         1 UNK         0.0600 
    173 H173       -2.4806  -17.6729  -45.4992 H         1 UNK         0.0600 
    174 H174       -0.7483  -15.7923  -45.0104 H         1 UNK         0.3000 
    175 H175        2.6818  -14.9884  -44.5089 H         1 UNK         0.0600 
    176 H176        1.1439  -15.5420  -47.0967 H         1 UNK         0.0600 
    177 H177        2.6816  -14.6950  -46.9222 H         1 UNK         0.0600 
    178 H178        2.5893  -16.4110  -46.5953 H         1 UNK         0.0600 
    179 H179        0.7437  -13.4491  -45.7897 H         1 UNK         0.3000 
    180 H180       -1.3090  -12.3839  -43.9260 H         1 UNK         0.0600 
    181 H181        0.8668  -10.9461  -42.3246 H         1 UNK         0.0600 
    182 H182       -0.5425  -11.7753  -41.6829 H         1 UNK         0.0600 
    183 H183       -0.7503  -10.3089  -42.6227 H         1 UNK         0.0600 
    184 H184       -0.7536  -11.1902  -45.6808 H         1 UNK         0.3000 
    185 H185        0.1590   -9.8889  -47.0957 H         1 UNK         0.0600 
    186 H186        1.0848   -7.9351  -45.8269 H         1 UNK         0.0600 
    187 H187        2.7199   -8.4492  -46.2245 H         1 UNK         0.0600 
    188 H188        1.6144   -7.9426  -47.5017 H         1 UNK         0.0600 
    189 H189        2.7892  -10.1080  -48.0617 H         1 UNK         0.3000 
    190 H190       -0.5184  -21.2228  -44.4988 H         1 UNK         0.3000 
    191 H191       -3.0971  -20.4607  -45.5008 H         1 UNK         0.0600 
    192 H192       -2.4362  -22.1317  -43.0166 H         1 UNK         0.0600 
    193 H193       -3.9272  -21.2638  -43.3394 H         1 UNK         0.0600 
    194 H194       -2.4384  -20.3742  -43.0685 H         1 UNK         0.0600 
    195 H195       -1.5157  -23.6343  -44.9475 H         1 UNK         0.3000 
    196 H196       -3.6265  -25.2916  -45.8358 H         1 UNK         0.0600 
    197 H197       -0.5989  -25.7730  -45.8866 H         1 UNK         0.0600 
    198 H198       -1.8345  -27.0170  -46.0307 H         1 UNK         0.0600 
    199 H199       -1.6760  -26.1104  -44.5333 H         1 UNK         0.0600 
    200 H200       -1.0497  -23.6405  -47.6798 H         1 UNK         0.3000 
    201 H201       -1.7298  -24.7918  -50.2325 H         1 UNK         0.0600 
    202 H202        0.4984  -23.7653  -49.7389 H         1 UNK         0.0600 
    203 H203       -0.2600  -22.1798  -49.6041 H         1 UNK         0.0600 
    204 H204       -0.2730  -23.0386  -51.1402 H         1 UNK         0.0600 
    205 H205       -2.5593  -21.6622  -48.6290 H         1 UNK         0.3000 
    206 H206       -4.1656  -20.6240  -50.6744 H         1 UNK         0.0600 
    207 H207       -3.2538  -19.2706  -48.8108 H         1 UNK         0.0600 
    208 H208       -4.9960  -19.0746  -48.9041 H         1 UNK         0.0600 
    209 H209       -4.2968  -20.1047  -47.6584 H         1 UNK         0.0600 
    210 H210       -5.0177  -22.9515  -48.1767 H         1 UNK         0.3000 
    211 H211       -7.8245  -22.9129  -48.3780 H         1 UNK         0.0600 
    212 H212       -5.9635  -25.2589  -47.7322 H         1 UNK         0.0600 
    213 H213       -7.6764  -25.1707  -47.3490 H         1 UNK         0.0600 
    214 H214       -6.5520  -24.0662  -46.5744 H         1 UNK         0.0600 
    215 H215       -5.5620  -23.9887  -50.7884 H         1 UNK         0.3000 
    216 H216       -7.3848  -25.7508  -52.2216 H         1 UNK         0.0600 
    217 H217       -5.6454  -25.7419  -53.9300 H         1 UNK         0.0600 
    218 H218       -4.8549  -25.8866  -52.3692 H         1 UNK         0.0600 
    219 H219       -4.8590  -24.3412  -53.2188 H         1 UNK         0.0600 
    220 H220       -7.2790  -22.3724  -51.7617 H         1 UNK         0.3000 
    221 H221       -8.3131  -20.6272  -52.5760 H         1 UNK         0.0600 
    222 H222      -10.1873  -22.5835  -54.0219 H         1 UNK         0.0600 
    223 H223      -10.3503  -22.0522  -52.3539 H         1 UNK         0.0600 
    224 H224      -10.5204  -20.8910  -53.6539 H         1 UNK         0.0600 
    225 H225       -9.5901  -21.1051  -55.5199 H         1 UNK         0.3000 
    226 H226       -7.7791  -19.4459  -56.8598 H         1 UNK         0.0600 
    227 H227      -10.1944  -19.6134  -57.3964 H         1 UNK         0.0600 
    228 H228       -9.2406  -19.9227  -58.8368 H         1 UNK         0.0600 
    229 H229       -9.9800  -21.2666  -57.9750 H         1 UNK         0.0600 
    230 H230       -7.4812  -22.8512  -56.4308 H         1 UNK         0.3000 
    231 H231       -5.8562  -23.4198  -58.7728 H         1 UNK         0.0600 
    232 H232       -7.1401  -25.1955  -57.5822 H         1 UNK         0.0600 
    233 H233       -6.1855  -24.9242  -56.1253 H         1 UNK         0.0600 
    234 H234       -5.4201  -25.5543  -57.5772 H         1 UNK         0.0600 
    235 H235       -5.2674  -21.7093  -55.8156 H         1 UNK         0.3000 
    236 H236       -2.4209  -21.4856  -56.4113 H         1 UNK         0.0600 
    237 H237       -1.6933  -22.1536  -54.1351 H         1 UNK         0.0600 
    238 H238       -3.3557  -22.5298  -53.6789 H         1 UNK         0.0600 
    239 H239       -2.5237  -23.4986  -54.8880 H         1 UNK         0.0600 
    240 H240       -2.5253  -20.4739  -53.4122 H         1 UNK         0.3000 
    241 H241       -3.1069  -17.6893  -54.0818 H         1 UNK         0.0600 
    242 H242       -6.2581  -18.9052  -52.1043 H         1 UNK         0.3800 
    243 H243       -5.4144  -19.8148  -53.3288 H         1 UNK         0.3800 
    244 H244       -1.9418  -17.2813  -51.8189 H         1 UNK         0.0800 
    245 H245       -0.9956  -17.9168  -53.1163 H         1 UNK         0.0800 
    246 H246        0.5522  -20.9791  -51.9189 H         1 UNK         0.0800 
    247 H247        0.4840  -19.6343  -53.0151 H         1 UNK         0.0800 
@<TRIPOS>BOND
     1    1    2 1    
     2    1  127 1    
     3    1  128 1    
     4    1  129 1    
     5    2    3 2    
     6    2    4 am   BACKBONE|DICT|INTERRES
     7    4    5 1    
     8    4  130 1    
     9    5    6 1    
    10    5   65 1    
    11    5  131 1    
    12    6    7 1    
    13    6  132 1    
    14    6  133 1    
    15    7    8 1    
    16    8    9 1    
    17    8  134 1    
    18    8  135 1    
    19    9   10 ar   
    20    9   14 ar   
    21   10   11 ar   
    22   10  136 1    
    23   11   12 ar   
    24   11  126 1    
    25   12   13 ar   
    26   12  137 1    
    27   13   14 ar   
    28   13   15 1    
    29   14  138 1    
    30   15   16 1    
    31   15  139 1    
    32   15  140 1    
    33   16   17 1    
    34   17   18 1    
    35   17  141 1    
    36   17  142 1    
    37   18   19 1    
    38   18   67 1    
    39   18  143 1    
    40   19   20 am   BACKBONE|DICT|INTERRES
    41   19  144 1    
    42   20   21 2    
    43   20   22 1    
    44   22   23 1    
    45   22   24 1    
    46   22  145 1    
    47   23  146 1    
    48   23  147 1    
    49   23  148 1    
    50   24   25 am   BACKBONE|DICT|INTERRES
    51   24  149 1    
    52   25   26 2    
    53   25   27 1    
    54   27   28 1    
    55   27   29 1    
    56   27  150 1    
    57   28  151 1    
    58   28  152 1    
    59   28  153 1    
    60   29   30 am   BACKBONE|DICT|INTERRES
    61   29  154 1    
    62   30   31 2    
    63   30   32 1    
    64   32   33 1    
    65   32   34 1    
    66   32  155 1    
    67   33  156 1    
    68   33  157 1    
    69   33  158 1    
    70   34   35 am   BACKBONE|DICT|INTERRES
    71   34  159 1    
    72   35   36 2    
    73   35   37 1    
    74   37   38 1    
    75   37   39 1    
    76   37  160 1    
    77   38  161 1    
    78   38  162 1    
    79   38  163 1    
    80   39   40 am   BACKBONE|DICT|INTERRES
    81   39  164 1    
    82   40   41 2    
    83   40   42 1    
    84   42   43 1    
    85   42   44 1    
    86   42  165 1    
    87   43  166 1    
    88   43  167 1    
    89   43  168 1    
    90   44   45 am   BACKBONE|DICT|INTERRES
    91   44  169 1    
    92   45   46 2    
    93   45   47 1    
    94   47   48 1    
    95   47   49 1    
    96   47  170 1    
    97   48  171 1    
    98   48  172 1    
    99   48  173 1    
   100   49   50 am   BACKBONE|DICT|INTERRES
   101   49  174 1    
   102   50   51 2    
   103   50   52 1    
   104   52   53 1    
   105   52   54 1    
   106   52  175 1    
   107   53  176 1    
   108   53  177 1    
   109   53  178 1    
   110   54   55 am   BACKBONE|DICT|INTERRES
   111   54  179 1    
   112   55   56 2    
   113   55   57 1    
   114   57   58 1    
   115   57   59 1    
   116   57  180 1    
   117   58  181 1    
   118   58  182 1    
   119   58  183 1    
   120   59   60 am   BACKBONE|DICT|INTERRES
   121   59  184 1    
   122   60   61 2    
   123   60   62 1    
   124   62   63 1    
   125   62   64 1    
   126   62  185 1    
   127   63  186 1    
   128   63  187 1    
   129   63  188 1    
   130   64   65 am   BACKBONE|DICT|INTERRES
   131   64  189 1    
   132   65   66 2    
   133   67   68 2    
   134   67   69 am   BACKBONE|DICT|INTERRES
   135   69   70 1    
   136   69  190 1    
   137   70   71 1    
   138   70   72 1    
   139   70  191 1    
   140   71  192 1    
   141   71  193 1    
   142   71  194 1    
   143   72   73 2    
   144   72   74 am   BACKBONE|DICT|INTERRES
   145   74   75 1    
   146   74  195 1    
   147   75   76 1    
   148   75   77 1    
   149   75  196 1    
   150   76  197 1    
   151   76  198 1    
   152   76  199 1    
   153   77   78 2    
   154   77   79 am   BACKBONE|DICT|INTERRES
   155   79   80 1    
   156   79  200 1    
   157   80   81 1    
   158   80   82 1    
   159   80  201 1    
   160   81  202 1    
   161   81  203 1    
   162   81  204 1    
   163   82   83 2    
   164   82   84 am   BACKBONE|DICT|INTERRES
   165   84   85 1    
   166   84  205 1    
   167   85   86 1    
   168   85   87 1    
   169   85  206 1    
   170   86  207 1    
   171   86  208 1    
   172   86  209 1    
   173   87   88 2    
   174   87   89 am   BACKBONE|DICT|INTERRES
   175   89   90 1    
   176   89  210 1    
   177   90   91 1    
   178   90   92 1    
   179   90  211 1    
   180   91  212 1    
   181   91  213 1    
   182   91  214 1    
   183   92   93 2    
   184   92   94 am   BACKBONE|DICT|INTERRES
   185   94   95 1    
   186   94  215 1    
   187   95   96 1    
   188   95   97 1    
   189   95  216 1    
   190   96  217 1    
   191   96  218 1    
   192   96  219 1    
   193   97   98 2    
   194   97   99 am   BACKBONE|DICT|INTERRES
   195   99  100 1    
   196   99  220 1    
   197  100  101 1    
   198  100  102 1    
   199  100  221 1    
   200  101  222 1    
   201  101  223 1    
   202  101  224 1    
   203  102  103 2    
   204  102  104 am   BACKBONE|DICT|INTERRES
   205  104  105 1    
   206  104  225 1    
   207  105  106 1    
   208  105  107 1    
   209  105  226 1    
   210  106  227 1    
   211  106  228 1    
   212  106  229 1    
   213  107  108 2    
   214  107  109 am   BACKBONE|DICT|INTERRES
   215  109  110 1    
   216  109  230 1    
   217  110  111 1    
   218  110  112 1    
   219  110  231 1    
   220  111  232 1    
   221  111  233 1    
   222  111  234 1    
   223  112  113 2    
   224  112  114 am   BACKBONE|DICT|INTERRES
   225  114  115 1    
   226  114  235 1    
   227  115  116 1    
   228  115  117 1    
   229  115  236 1    
   230  116  237 1    
   231  116  238 1    
   232  116  239 1    
   233  117  118 2    
   234  117  119 am   BACKBONE|DICT|INTERRES
   235  119  120 1    
   236  119  240 1    
   237  120  121 1    
   238  120  124 1    
   239  120  241 1    
   240  121  122 am   BACKBONE|DICT|INTERRES
   241  121  123 2    
   242  122  242 1    
   243  122  243 1    
   244  124  125 1    
   245  124  244 1    
   246  124  245 1    
   247  125  126 1    
   248  126  246 1    
   249  126  247 1    
@<TRIPOS>SUBSTRUCTURE
     1 UNK         1 GROUP             0       ****    0 ROOT    
