@<TRIPOS>MOLECULE
3R540
247   249    1
SMALL
USER_CHARGES


@<TRIPOS>ATOM
      1 CA         -4.5243  -13.1225  -48.7946 C.3       0 UNK        -0.1800 
      2 C          -3.5442  -14.2058  -48.3698 C.2       0 UNK         0.5000 
      3 O          -3.1013  -14.2116  -47.2210 O.2       0 UNK        -0.5000 
      4 N          -3.1957  -15.1092  -49.2978 N.am      1 UNK        -0.5000 
      5 CA         -2.2942  -16.2567  -49.1109 C.3       1 UNK         0.1400 
      6 C6         -2.9780  -17.4145  -48.3315 C.3       23 UNK        -0.0398 
      7 S7         -4.0126  -18.3963  -49.4746 S.3       23 UNK        -0.2404 
      8 C8         -3.0063  -19.8973  -49.7270 C.3       23 UNK        -0.0205 
      9 C9         -1.5798  -19.6030  -50.1688 C.ar      23 UNK        -0.0193 
     10 C10        -1.2896  -19.3334  -51.5061 C.ar      23 UNK        -0.1150 
     11 C11         0.0148  -19.0181  -51.9021 C.ar      23 UNK        -0.0193 
     12 C12         1.0387  -19.0076  -50.9505 C.ar      23 UNK        -0.1150 
     13 C13         0.7647  -19.2941  -49.6094 C.ar      23 UNK        -0.0193 
     14 C14        -0.5459  -19.5955  -49.2310 C.ar      23 UNK        -0.1150 
     15 C15         1.8745  -19.2336  -48.5686 C.3       23 UNK        -0.0205 
     16 S16         2.1723  -20.8443  -47.7711 S.3       23 UNK        -0.2404 
     17 C17         1.1728  -20.6855  -46.2526 C.3       23 UNK        -0.0398 
     18 CA          0.5982  -22.0319  -45.7556 C.3       11 UNK         0.1400 
     19 N           0.2915  -21.9727  -44.3282 N.am      11 UNK        -0.5000 
     20 C          -0.0222  -23.0242  -43.5625 C.2       10 UNK         0.5000 
     21 O          -0.0524  -24.1852  -43.9709 O.2       10 UNK        -0.5000 
     22 CA         -0.4081  -22.7100  -42.1083 C.3       10 UNK         0.1400 
     23 CB          0.8438  -22.5811  -41.2274 C.3       10 UNK        -0.1800 
     24 N          -1.1957  -21.4795  -42.0193 N.am      10 UNK        -0.5000 
     25 C          -2.4841  -21.3828  -42.3722 C.2       9 UNK         0.5000 
     26 O          -3.1544  -22.3346  -42.7738 O.2       9 UNK        -0.5000 
     27 CA         -3.1184  -19.9802  -42.2921 C.3       9 UNK         0.1400 
     28 CB         -3.5161  -19.6455  -40.8467 C.3       9 UNK        -0.1800 
     29 N          -2.2516  -18.9203  -42.8157 N.am      9 UNK        -0.5000 
     30 C          -1.8858  -18.8192  -44.1008 C.2       8 UNK         0.5000 
     31 O          -2.2326  -19.6128  -44.9700 O.2       8 UNK        -0.5000 
     32 CA         -0.9594  -17.6580  -44.4958 C.3       8 UNK         0.1400 
     33 CB         -1.7947  -16.3848  -44.6997 C.3       8 UNK        -0.1800 
     34 N           0.1633  -17.3733  -43.5940 N.am      8 UNK        -0.5000 
     35 C           0.9553  -18.2563  -42.9644 C.2       7 UNK         0.5000 
     36 O           0.7846  -19.4766  -42.9782 O.2       7 UNK        -0.5000 
     37 CA          2.1655  -17.6542  -42.2245 C.3       7 UNK         0.1400 
     38 CB          2.9817  -18.7015  -41.4384 C.3       7 UNK        -0.1800 
     39 N           3.0190  -16.8960  -43.1420 N.am      7 UNK        -0.5000 
     40 C           3.6526  -17.3518  -44.2343 C.2       6 UNK         0.5000 
     41 O           3.7078  -18.5394  -44.5531 O.2       6 UNK        -0.5000 
     42 CA          4.3198  -16.3070  -45.1480 C.3       6 UNK         0.1400 
     43 CB          3.6654  -16.3321  -46.5346 C.3       6 UNK        -0.1800 
     44 N           4.2137  -14.9480  -44.6142 N.am      6 UNK        -0.5000 
     45 C           5.1754  -14.3221  -43.9231 C.2       5 UNK         0.5000 
     46 O           6.2857  -14.8056  -43.6997 O.2       5 UNK        -0.5000 
     47 CA          4.8315  -12.9278  -43.3623 C.3       5 UNK         0.1400 
     48 CB          5.1725  -11.8374  -44.3892 C.3       5 UNK        -0.1800 
     49 N           3.4274  -12.7897  -42.9704 N.am      5 UNK        -0.5000 
     50 C           2.8206  -13.4905  -42.0017 C.2       4 UNK         0.5000 
     51 O           3.3934  -14.3201  -41.2964 O.2       4 UNK        -0.5000 
     52 CA          1.3072  -13.2667  -41.8193 C.3       4 UNK         0.1400 
     53 CB          1.0451  -12.2610  -40.6887 C.3       4 UNK        -0.1800 
     54 N           0.6248  -12.8104  -43.0335 N.am      4 UNK        -0.5000 
     55 C           0.5311  -13.5015  -44.1779 C.2       3 UNK         0.5000 
     56 O           1.0228  -14.6241  -44.3229 O.2       3 UNK        -0.5000 
     57 CA         -0.2704  -12.8244  -45.3139 C.3       3 UNK         0.1400 
     58 CB         -0.0056  -11.3049  -45.4052 C.3       3 UNK        -0.1800 
     59 N          -0.0986  -13.4365  -46.6346 N.am      3 UNK        -0.5000 
     60 C           1.0313  -13.5594  -47.3491 C.2       2 UNK         0.5000 
     61 O           2.1413  -13.2161  -46.9370 O.2       2 UNK        -0.5000 
     62 CA          0.8835  -14.0749  -48.8020 C.3       2 UNK         0.1400 
     63 CB          2.0526  -14.9601  -49.2789 C.3       2 UNK        -0.1800 
     64 N          -0.4018  -14.7112  -49.1048 N.am      2 UNK        -0.5000 
     65 C          -0.9006  -15.8431  -48.5823 C.2       1 UNK         0.5000 
     66 O          -0.3219  -16.5194  -47.7332 O.2       1 UNK        -0.5000 
     67 C          -0.6161  -22.5252  -46.5755 C.2       11 UNK         0.5000 
     68 O          -0.4552  -23.3998  -47.4244 O.2       11 UNK        -0.5000 
     69 N          -1.8215  -22.0301  -46.2550 N.am      12 UNK        -0.5000 
     70 CA         -3.0904  -22.4864  -46.8235 C.3       12 UNK         0.1400 
     71 CB         -4.2355  -21.5571  -46.3924 C.3       12 UNK        -0.1800 
     72 C          -3.4287  -23.9395  -46.4711 C.2       12 UNK         0.5000 
     73 O          -3.9502  -24.6464  -47.3312 O.2       12 UNK        -0.5000 
     74 N          -3.1081  -24.3753  -45.2453 N.am      13 UNK        -0.5000 
     75 CA         -3.2720  -25.7649  -44.8143 C.3       13 UNK         0.1400 
     76 CB         -3.0406  -25.8773  -43.2999 C.3       13 UNK        -0.1800 
     77 C          -2.3575  -26.7288  -45.5949 C.2       13 UNK         0.5000 
     78 O          -2.8044  -27.8105  -45.9771 O.2       13 UNK        -0.5000 
     79 N          -1.1146  -26.3006  -45.8572 N.am      14 UNK        -0.5000 
     80 CA         -0.1452  -27.0224  -46.6822 C.3       14 UNK         0.1400 
     81 CB          1.2505  -26.4121  -46.4806 C.3       14 UNK        -0.1800 
     82 C          -0.5299  -27.0406  -48.1752 C.2       14 UNK         0.5000 
     83 O          -0.4226  -28.0861  -48.8169 O.2       14 UNK        -0.5000 
     84 N          -0.9817  -25.8920  -48.6976 N.am      15 UNK        -0.5000 
     85 CA         -1.3907  -25.7047  -50.0931 C.3       15 UNK         0.1400 
     86 CB         -1.3782  -24.2005  -50.4171 C.3       15 UNK        -0.1800 
     87 C          -2.7718  -26.2999  -50.4320 C.2       15 UNK         0.5000 
     88 O          -3.1129  -26.3719  -51.6121 O.2       15 UNK        -0.5000 
     89 N          -3.5577  -26.6651  -49.4086 N.am      16 UNK        -0.5000 
     90 CA         -4.9630  -27.0866  -49.4742 C.3       16 UNK         0.1400 
     91 CB         -5.1070  -28.4326  -50.2143 C.3       16 UNK        -0.1800 
     92 C          -5.8773  -25.9750  -50.0382 C.2       16 UNK         0.5000 
     93 O          -6.7861  -26.2495  -50.8235 O.2       16 UNK        -0.5000 
     94 N          -5.5878  -24.7309  -49.6275 N.am      17 UNK        -0.5000 
     95 CA         -6.2425  -23.4689  -49.9931 C.3       17 UNK         0.1400 
     96 CB         -7.6847  -23.4335  -49.4480 C.3       17 UNK        -0.1800 
     97 C          -6.1681  -23.1055  -51.4948 C.2       17 UNK         0.5000 
     98 O          -6.9388  -22.2596  -51.9530 O.2       17 UNK        -0.5000 
     99 N          -5.2454  -23.7304  -52.2379 N.am      18 UNK        -0.5000 
    100 CA        -4.9910  -23.4585  -53.6520 C.3       18 UNK         0.1400 
    101 CB        -4.2176  -24.6468  -54.2455 C.3       18 UNK        -0.1800 
    102 C         -4.2046  -22.1497  -53.8612 C.2       18 UNK         0.5000 
    103 O         -3.5740  -21.6514  -52.9266 O.2       18 UNK        -0.5000 
    104 N         -4.2214  -21.6583  -55.1094 N.am      19 UNK        -0.5000 
    105 CA        -3.4672  -20.5061  -55.6169 C.3       19 UNK         0.1400 
    106 CB        -1.9526  -20.7981  -55.5999 C.3       19 UNK        -0.1800 
    107 C         -3.8463  -19.1803  -54.9247 C.2       19 UNK         0.5000 
    108 O         -2.9844  -18.4629  -54.4149 O.2       19 UNK        -0.5000 
    109 N         -5.1470  -18.8572  -54.9578 N.am      20 UNK        -0.5000 
    110 CA        -5.7557  -17.6592  -54.3617 C.3       20 UNK         0.1400 
    111 CB        -7.2748  -17.7152  -54.5844 C.3       20 UNK        -0.1800 
    112 C         -5.1878  -16.3071  -54.8525 C.2       20 UNK         0.5000 
    113 O         -5.3913  -15.2910  -54.1864 O.2       20 UNK        -0.5000 
    114 N         -4.4506  -16.3161  -55.9732 N.am      21 UNK        -0.5000 
    115 CA        -3.6894  -15.1906  -56.5243 C.3       21 UNK         0.1400 
    116 CB        -3.0178  -15.6424  -57.8301 C.3       21 UNK        -0.1800 
    117 C         -2.6408  -14.5938  -55.5588 C.2       21 UNK         0.5000 
    118 O         -2.2951  -13.4205  -55.7039 O.2       21 UNK        -0.5000 
    119 N         -2.1824  -15.3841  -54.5771 N.am      22 UNK        -0.5000 
    120 CA        -1.3825  -14.9138  -53.4330 C.3       22 UNK         0.1400 
    121 C         -2.1604  -14.0147  -52.4219 C.2       22 UNK         0.5000 
    122 N         -3.4788  -13.8740  -52.5034 N.am      22 UNK        -0.7600 
    123 O         -1.5510  -13.4405  -51.5232 O.2       22 UNK        -0.5000 
    124 C124       -0.7176  -16.0921  -52.6831 C.3       23 UNK        -0.0398 
    125 S125        0.6367  -16.8887  -53.6102 S.3       23 UNK        -0.2404 
    126 C126        0.3086  -18.6655  -53.3547 C.3       23 UNK        -0.0205 
    127 H127       -4.9641  -13.3338  -49.7693 H         1 UNK         0.0600 
    128 H128       -4.0170  -12.1593  -48.8477 H         1 UNK         0.0600 
    129 H129       -5.3341  -13.0439  -48.0693 H         1 UNK         0.0600 
    130 H130       -3.5884  -15.0253  -50.2250 H         1 UNK         0.3000 
    131 H131       -2.0748  -16.6207  -50.1145 H         1 UNK         0.0600 
    132 H132       -2.2701  -18.0755  -47.8345 H         1 UNK         0.0800 
    133 H133       -3.6087  -17.0261  -47.5315 H         1 UNK         0.0800 
    134 H134       -2.9899  -20.4519  -48.7943 H         1 UNK         0.0800 
    135 H135       -3.4962  -20.5396  -50.4600 H         1 UNK         0.0800 
    136 H136       -2.0895  -19.3476  -52.2317 H         1 UNK         0.1150 
    137 H137        2.0448  -18.7559  -51.2554 H         1 UNK         0.1150 
    138 H138       -0.7729  -19.8074  -48.1988 H         1 UNK         0.1150 
    139 H139        2.8072  -18.9069  -49.0306 H         1 UNK         0.0800 
    140 H140        1.6313  -18.4780  -47.8201 H         1 UNK         0.0800 
    141 H141        0.3851  -19.9429  -46.3688 H         1 UNK         0.0800 
    142 H142        1.8433  -20.2743  -45.4966 H         1 UNK         0.0800 
    143 H143        1.3809  -22.7861  -45.8640 H         1 UNK         0.0600 
    144 H144        0.3317  -21.0562  -43.8887 H         1 UNK         0.3000 
    145 H145       -1.0080  -23.5407  -41.7304 H         1 UNK         0.0600 
    146 H146        0.5758  -22.4039  -40.1859 H         1 UNK         0.0600 
    147 H147        1.4380  -23.4952  -41.2597 H         1 UNK         0.0600 
    148 H148        1.4855  -21.7610  -41.5525 H         1 UNK         0.0600 
    149 H149       -0.6872  -20.6327  -41.8001 H         1 UNK         0.3000 
    150 H150       -4.0275  -19.9973  -42.8972 H         1 UNK         0.0600 
    151 H151       -4.1753  -20.4116  -40.4361 H         1 UNK         0.0600 
    152 H152       -4.0506  -18.6969  -40.7946 H         1 UNK         0.0600 
    153 H153       -2.6453  -19.5770  -40.1935 H         1 UNK         0.0600 
    154 H154       -1.9109  -18.2347  -42.1583 H         1 UNK         0.3000 
    155 H155       -0.5193  -17.9229  -45.4579 H         1 UNK         0.0600 
    156 H156       -1.2400  -15.6444  -45.2714 H         1 UNK         0.0600 
    157 H157       -2.0879  -15.9344  -43.7511 H         1 UNK         0.0600 
    158 H158       -2.7058  -16.5900  -45.2630 H         1 UNK         0.0600 
    159 H159        0.4599  -16.4025  -43.5946 H         1 UNK         0.3000 
    160 H160        1.7688  -16.9377  -41.5038 H         1 UNK         0.0600 
    161 H161        3.3846  -19.4799  -42.0870 H         1 UNK         0.0600 
    162 H162        2.3607  -19.1941  -40.6894 H         1 UNK         0.0600 
    163 H163        3.8166  -18.2364  -40.9144 H         1 UNK         0.0600 
    164 H164        3.0650  -15.9015  -42.9685 H         1 UNK         0.3000 
    165 H165        5.3682  -16.5895  -45.2619 H         1 UNK         0.0600 
    166 H166        2.5960  -16.1248  -46.4700 H         1 UNK         0.0600 
    167 H167        4.1167  -15.5909  -47.1936 H         1 UNK         0.0600 
    168 H168        3.7849  -17.3062  -47.0099 H         1 UNK         0.0600 
    169 H169        3.3245  -14.4832  -44.7561 H         1 UNK         0.3000 
    170 H170        5.4449  -12.7677  -42.4732 H         1 UNK         0.0600 
    171 H171        6.2193  -11.8976  -44.6902 H         1 UNK         0.0600 
    172 H172        4.5654  -11.9310  -45.2910 H         1 UNK         0.0600 
    173 H173        5.0109  -10.8414  -43.9766 H         1 UNK         0.0600 
    174 H174        2.8712  -12.1405  -43.5069 H         1 UNK         0.3000 
    175 H175        0.8689  -14.2250  -41.5328 H         1 UNK         0.0600 
    176 H176        1.4377  -11.2724  -40.9302 H         1 UNK         0.0600 
    177 H177       -0.0219  -12.1600  -40.4891 H         1 UNK         0.0600 
    178 H178        1.5181  -12.5842  -39.7602 H         1 UNK         0.0600 
    179 H179        0.1885  -11.9013  -42.9827 H         1 UNK         0.3000 
    180 H180       -1.3227  -12.9645  -45.0632 H         1 UNK         0.0600 
    181 H181        1.0547  -11.0862  -45.5386 H         1 UNK         0.0600 
    182 H182       -0.3420  -10.7810  -44.5103 H         1 UNK         0.0600 
    183 H183       -0.5424  -10.8640  -46.2455 H         1 UNK         0.0600 
    184 H184       -0.9517  -13.7935  -47.0486 H         1 UNK         0.3000 
    185 H185        0.9056  -13.1731  -49.4152 H         1 UNK         0.0600 
    186 H186        1.9859  -15.1457  -50.3509 H         1 UNK         0.0600 
    187 H187        3.0150  -14.4816  -49.0961 H         1 UNK         0.0600 
    188 H188        2.0611  -15.9287  -48.7817 H         1 UNK         0.0600 
    189 H189       -0.9641  -14.2205  -49.7952 H         1 UNK         0.3000 
    190 H190       -1.8869  -21.2681  -45.5826 H         1 UNK         0.3000 
    191 H191       -3.0015  -22.4477  -47.9089 H         1 UNK         0.0600 
    192 H192       -4.0639  -20.5310  -46.7165 H         1 UNK         0.0600 
    193 H193       -5.1844  -21.8775  -46.8247 H         1 UNK         0.0600 
    194 H194       -4.3547  -21.5461  -45.3083 H         1 UNK         0.0600 
    195 H195       -2.7156  -23.7259  -44.5759 H         1 UNK         0.3000 
    196 H196       -4.3056  -26.0545  -45.0159 H         1 UNK         0.0600 
    197 H197       -3.2296  -26.8940  -42.9536 H         1 UNK         0.0600 
    198 H198       -3.7093  -25.2160  -42.7486 H         1 UNK         0.0600 
    199 H199       -2.0178  -25.6245  -43.0232 H         1 UNK         0.0600 
    200 H200       -0.8140  -25.4142  -45.4657 H         1 UNK         0.3000 
    201 H201       -0.1118  -28.0573  -46.3354 H         1 UNK         0.0600 
    202 H202        1.5514  -26.4559  -45.4336 H         1 UNK         0.0600 
    203 H203        1.2859  -25.3682  -46.7931 H         1 UNK         0.0600 
    204 H204        2.0003  -26.9534  -47.0587 H         1 UNK         0.0600 
    205 H205       -0.9650  -25.0548  -48.1191 H         1 UNK         0.3000 
    206 H206       -0.6581  -26.1966  -50.7359 H         1 UNK         0.0600 
    207 H207       -2.0988  -23.6532  -49.8092 H         1 UNK         0.0600 
    208 H208       -0.3942  -23.7652  -50.2409 H         1 UNK         0.0600 
    209 H209       -1.6295  -24.0180  -51.4630 H         1 UNK         0.0600 
    210 H210       -3.2013  -26.5010  -48.4760 H         1 UNK         0.3000 
    211 H211       -5.2789  -27.2436  -48.4419 H         1 UNK         0.0600 
    212 H212       -4.8737  -28.3419  -51.2754 H         1 UNK         0.0600 
    213 H213       -6.1264  -28.8121  -50.1367 H         1 UNK         0.0600 
    214 H214       -4.4466  -29.1880  -49.7886 H         1 UNK         0.0600 
    215 H215       -4.8515  -24.6497  -48.9287 H         1 UNK         0.3000 
    216 H216       -5.6813  -22.6884  -49.4771 H         1 UNK         0.0600 
    217 H217       -7.7084  -23.6617  -48.3824 H         1 UNK         0.0600 
    218 H218       -8.3275  -24.1502  -49.9598 H         1 UNK         0.0600 
    219 H219       -8.1299  -22.4461  -49.5752 H         1 UNK         0.0600 
    220 H220       -4.6425  -24.4091  -51.7947 H         1 UNK         0.3000 
    221 H221       -5.9500  -23.3744  -54.1677 H         1 UNK         0.0600 
    222 H222       -3.2241  -24.7381  -53.8045 H         1 UNK         0.0600 
    223 H223       -4.7451  -25.5863  -54.0780 H         1 UNK         0.0600 
    224 H224       -4.0876  -24.5360  -55.3226 H         1 UNK         0.0600 
    225 H225       -4.7769  -22.1437  -55.8001 H         1 UNK         0.3000 
    226 H226       -3.7554  -20.3886  -56.6625 H         1 UNK         0.0600 
    227 H227       -1.7200  -21.6939  -56.1754 H         1 UNK         0.0600 
    228 H228       -1.3901  -19.9753  -56.0427 H         1 UNK         0.0600 
    229 H229       -1.5785  -20.9490  -54.5872 H         1 UNK         0.0600 
    230 H230       -5.7848  -19.5037  -55.3990 H         1 UNK         0.3000 
    231 H231       -5.5675  -17.7055  -53.2871 H         1 UNK         0.0600 
    232 H232       -7.7711  -16.8597  -54.1240 H         1 UNK         0.0600 
    233 H233       -7.7060  -18.6136  -54.1423 H         1 UNK         0.0600 
    234 H234       -7.5251  -17.7077  -55.6460 H         1 UNK         0.0600 
    235 H235       -4.3357  -17.2012  -56.4430 H         1 UNK         0.3000 
    236 H236       -4.4019  -14.3976  -56.7591 H         1 UNK         0.0600 
    237 H237       -3.7554  -15.9809  -58.5580 H         1 UNK         0.0600 
    238 H238       -2.4633  -14.8227  -58.2891 H         1 UNK         0.0600 
    239 H239       -2.3147  -16.4585  -57.6577 H         1 UNK         0.0600 
    240 H240       -2.4929  -16.3486  -54.5415 H         1 UNK         0.3000 
    241 H241       -0.5863  -14.2803  -53.8283 H         1 UNK         0.0600 
    242 H242       -4.0250  -14.3519  -53.2143 H         1 UNK         0.3800 
    243 H243       -3.9419  -13.2335  -51.8807 H         1 UNK         0.3800 
    244 H244       -1.4854  -16.8226  -52.4320 H         1 UNK         0.0800 
    245 H245       -0.2785  -15.7685  -51.7386 H         1 UNK         0.0800 
    246 H246       -0.5231  -18.9539  -53.9922 H         1 UNK         0.0800 
    247 H247        1.1687  -19.2399  -53.7007 H         1 UNK         0.0800 
@<TRIPOS>BOND
     1    1    2 1    
     2    1  127 1    
     3    1  128 1    
     4    1  129 1    
     5    2    3 2    
     6    2    4 am   BACKBONE|DICT|INTERRES
     7    4    5 1    
     8    4  130 1    
     9    5    6 1    
    10    5   65 1    
    11    5  131 1    
    12    6    7 1    
    13    6  132 1    
    14    6  133 1    
    15    7    8 1    
    16    8    9 1    
    17    8  134 1    
    18    8  135 1    
    19    9   10 ar   
    20    9   14 ar   
    21   10   11 ar   
    22   10  136 1    
    23   11   12 ar   
    24   11  126 1    
    25   12   13 ar   
    26   12  137 1    
    27   13   14 ar   
    28   13   15 1    
    29   14  138 1    
    30   15   16 1    
    31   15  139 1    
    32   15  140 1    
    33   16   17 1    
    34   17   18 1    
    35   17  141 1    
    36   17  142 1    
    37   18   19 1    
    38   18   67 1    
    39   18  143 1    
    40   19   20 am   BACKBONE|DICT|INTERRES
    41   19  144 1    
    42   20   21 2    
    43   20   22 1    
    44   22   23 1    
    45   22   24 1    
    46   22  145 1    
    47   23  146 1    
    48   23  147 1    
    49   23  148 1    
    50   24   25 am   BACKBONE|DICT|INTERRES
    51   24  149 1    
    52   25   26 2    
    53   25   27 1    
    54   27   28 1    
    55   27   29 1    
    56   27  150 1    
    57   28  151 1    
    58   28  152 1    
    59   28  153 1    
    60   29   30 am   BACKBONE|DICT|INTERRES
    61   29  154 1    
    62   30   31 2    
    63   30   32 1    
    64   32   33 1    
    65   32   34 1    
    66   32  155 1    
    67   33  156 1    
    68   33  157 1    
    69   33  158 1    
    70   34   35 am   BACKBONE|DICT|INTERRES
    71   34  159 1    
    72   35   36 2    
    73   35   37 1    
    74   37   38 1    
    75   37   39 1    
    76   37  160 1    
    77   38  161 1    
    78   38  162 1    
    79   38  163 1    
    80   39   40 am   BACKBONE|DICT|INTERRES
    81   39  164 1    
    82   40   41 2    
    83   40   42 1    
    84   42   43 1    
    85   42   44 1    
    86   42  165 1    
    87   43  166 1    
    88   43  167 1    
    89   43  168 1    
    90   44   45 am   BACKBONE|DICT|INTERRES
    91   44  169 1    
    92   45   46 2    
    93   45   47 1    
    94   47   48 1    
    95   47   49 1    
    96   47  170 1    
    97   48  171 1    
    98   48  172 1    
    99   48  173 1    
   100   49   50 am   BACKBONE|DICT|INTERRES
   101   49  174 1    
   102   50   51 2    
   103   50   52 1    
   104   52   53 1    
   105   52   54 1    
   106   52  175 1    
   107   53  176 1    
   108   53  177 1    
   109   53  178 1    
   110   54   55 am   BACKBONE|DICT|INTERRES
   111   54  179 1    
   112   55   56 2    
   113   55   57 1    
   114   57   58 1    
   115   57   59 1    
   116   57  180 1    
   117   58  181 1    
   118   58  182 1    
   119   58  183 1    
   120   59   60 am   BACKBONE|DICT|INTERRES
   121   59  184 1    
   122   60   61 2    
   123   60   62 1    
   124   62   63 1    
   125   62   64 1    
   126   62  185 1    
   127   63  186 1    
   128   63  187 1    
   129   63  188 1    
   130   64   65 am   BACKBONE|DICT|INTERRES
   131   64  189 1    
   132   65   66 2    
   133   67   68 2    
   134   67   69 am   BACKBONE|DICT|INTERRES
   135   69   70 1    
   136   69  190 1    
   137   70   71 1    
   138   70   72 1    
   139   70  191 1    
   140   71  192 1    
   141   71  193 1    
   142   71  194 1    
   143   72   73 2    
   144   72   74 am   BACKBONE|DICT|INTERRES
   145   74   75 1    
   146   74  195 1    
   147   75   76 1    
   148   75   77 1    
   149   75  196 1    
   150   76  197 1    
   151   76  198 1    
   152   76  199 1    
   153   77   78 2    
   154   77   79 am   BACKBONE|DICT|INTERRES
   155   79   80 1    
   156   79  200 1    
   157   80   81 1    
   158   80   82 1    
   159   80  201 1    
   160   81  202 1    
   161   81  203 1    
   162   81  204 1    
   163   82   83 2    
   164   82   84 am   BACKBONE|DICT|INTERRES
   165   84   85 1    
   166   84  205 1    
   167   85   86 1    
   168   85   87 1    
   169   85  206 1    
   170   86  207 1    
   171   86  208 1    
   172   86  209 1    
   173   87   88 2    
   174   87   89 am   BACKBONE|DICT|INTERRES
   175   89   90 1    
   176   89  210 1    
   177   90   91 1    
   178   90   92 1    
   179   90  211 1    
   180   91  212 1    
   181   91  213 1    
   182   91  214 1    
   183   92   93 2    
   184   92   94 am   BACKBONE|DICT|INTERRES
   185   94   95 1    
   186   94  215 1    
   187   95   96 1    
   188   95   97 1    
   189   95  216 1    
   190   96  217 1    
   191   96  218 1    
   192   96  219 1    
   193   97   98 2    
   194   97   99 am   BACKBONE|DICT|INTERRES
   195   99  100 1    
   196   99  220 1    
   197  100  101 1    
   198  100  102 1    
   199  100  221 1    
   200  101  222 1    
   201  101  223 1    
   202  101  224 1    
   203  102  103 2    
   204  102  104 am   BACKBONE|DICT|INTERRES
   205  104  105 1    
   206  104  225 1    
   207  105  106 1    
   208  105  107 1    
   209  105  226 1    
   210  106  227 1    
   211  106  228 1    
   212  106  229 1    
   213  107  108 2    
   214  107  109 am   BACKBONE|DICT|INTERRES
   215  109  110 1    
   216  109  230 1    
   217  110  111 1    
   218  110  112 1    
   219  110  231 1    
   220  111  232 1    
   221  111  233 1    
   222  111  234 1    
   223  112  113 2    
   224  112  114 am   BACKBONE|DICT|INTERRES
   225  114  115 1    
   226  114  235 1    
   227  115  116 1    
   228  115  117 1    
   229  115  236 1    
   230  116  237 1    
   231  116  238 1    
   232  116  239 1    
   233  117  118 2    
   234  117  119 am   BACKBONE|DICT|INTERRES
   235  119  120 1    
   236  119  240 1    
   237  120  121 1    
   238  120  124 1    
   239  120  241 1    
   240  121  122 am   BACKBONE|DICT|INTERRES
   241  121  123 2    
   242  122  242 1    
   243  122  243 1    
   244  124  125 1    
   245  124  244 1    
   246  124  245 1    
   247  125  126 1    
   248  126  246 1    
   249  126  247 1    
@<TRIPOS>SUBSTRUCTURE
     1 UNK         1 GROUP             0       ****    0 ROOT    
