@<TRIPOS>MOLECULE
3R540
247   249    1
SMALL
USER_CHARGES


@<TRIPOS>ATOM
      1 CA          2.1025  -10.2754  -52.8967 C.3       0 UNK        -0.1800 
      2 C           2.5946  -10.9093  -51.6030 C.2       0 UNK         0.5000 
      3 O           3.4804  -10.3580  -50.9489 O.2       0 UNK        -0.5000 
      4 N           2.0310  -12.0671  -51.2370 N.am      1 UNK        -0.5000 
      5 CA          2.3248  -12.7853  -49.9947 C.3       1 UNK         0.1400 
      6 C6          1.7862  -14.2384  -50.0554 C.3       23 UNK        -0.0398 
      7 S7          2.2962  -15.2445  -48.6201 S.3       23 UNK        -0.2404 
      8 C8          1.1507  -16.6521  -48.7173 C.3       23 UNK        -0.0205 
      9 C9          1.8037  -17.8434  -49.3974 C.ar      23 UNK        -0.0193 
     10 C10         1.4330  -18.2186  -50.6906 C.ar      23 UNK        -0.1150 
     11 C11         2.0530  -19.3042  -51.3171 C.ar      23 UNK        -0.0193 
     12 C12         3.0461  -20.0181  -50.6402 C.ar      23 UNK        -0.1150 
     13 C13         3.4249  -19.6512  -49.3458 C.ar      23 UNK        -0.0193 
     14 C14         2.7957  -18.5661  -48.7294 C.ar      23 UNK        -0.1150 
     15 C15         4.5460  -20.3955  -48.6344 C.3       23 UNK        -0.0205 
     16 S16         4.0011  -21.9833  -47.9310 S.3       23 UNK        -0.2404 
     17 C17         2.9307  -21.4340  -46.5587 C.3       23 UNK        -0.0398 
     18 CA          1.6123  -22.2336  -46.4491 C.3       11 UNK         0.1400 
     19 N           0.9499  -21.9803  -45.1672 N.am      11 UNK        -0.5000 
     20 C          -0.0874  -22.6788  -44.6860 C.2       10 UNK         0.5000 
     21 O          -0.5849  -23.6491  -45.2576 O.2       10 UNK        -0.5000 
     22 CA         -0.6918  -22.1867  -43.3576 C.3       10 UNK         0.1400 
     23 CB          0.1444  -22.6708  -42.1637 C.3       10 UNK        -0.1800 
     24 N          -0.8260  -20.7300  -43.3028 N.am      10 UNK        -0.5000 
     25 C          -1.6191  -20.0124  -44.1117 C.2       9 UNK         0.5000 
     26 O          -2.3552  -20.5077  -44.9628 O.2       9 UNK        -0.5000 
     27 CA         -1.5423  -18.4819  -43.9848 C.3       9 UNK         0.1400 
     28 CB         -2.3342  -18.0067  -42.7568 C.3       9 UNK        -0.1800 
     29 N          -0.1651  -17.9948  -43.9099 N.am      9 UNK        -0.5000 
     30 C           0.7743  -18.1893  -44.8460 C.2       8 UNK         0.5000 
     31 O           0.5721  -18.7731  -45.9083 O.2       8 UNK        -0.5000 
     32 CA          2.1964  -17.7102  -44.5139 C.3       8 UNK         0.1400 
     33 CB          2.3443  -16.2005  -44.7381 C.3       8 UNK        -0.1800 
     34 N           2.5696  -18.0407  -43.1412 N.am      8 UNK        -0.5000 
     35 C           2.7778  -19.2863  -42.6938 C.2       7 UNK         0.5000 
     36 O           2.7140  -20.2896  -43.4048 O.2       7 UNK        -0.5000 
     37 CA          3.0636  -19.4311  -41.1887 C.3       7 UNK         0.1400 
     38 CB          4.5461  -19.1641  -40.8885 C.3       7 UNK        -0.1800 
     39 N           2.2330  -18.5386  -40.3774 N.am      7 UNK        -0.5000 
     40 C           0.9059  -18.6679  -40.2432 C.2       6 UNK         0.5000 
     41 O           0.2512  -19.5688  -40.7687 O.2       6 UNK        -0.5000 
     42 CA          0.1856  -17.5879  -39.4138 C.3       6 UNK         0.1400 
     43 CB          0.2625  -17.9179  -37.9156 C.3       6 UNK        -0.1800 
     44 N           0.6823  -16.2250  -39.6388 N.am      6 UNK        -0.5000 
     45 C           0.6526  -15.5911  -40.8184 C.2       5 UNK         0.5000 
     46 O           0.3137  -16.1305  -41.8717 O.2       5 UNK        -0.5000 
     47 CA          1.0988  -14.1191  -40.8376 C.3       5 UNK         0.1400 
     48 CB          2.5616  -14.0038  -41.2920 C.3       5 UNK        -0.1800 
     49 N           0.2512  -13.3378  -41.7393 N.am      5 UNK        -0.5000 
     50 C          -1.0140  -12.9832  -41.4639 C.2       4 UNK         0.5000 
     51 O          -1.5525  -13.1843  -40.3741 O.2       4 UNK        -0.5000 
     52 CA         -1.8213  -12.2852  -42.5789 C.3       4 UNK         0.1400 
     53 CB         -1.7729  -10.7597  -42.4033 C.3       4 UNK        -0.1800 
     54 N          -1.3487  -12.6211  -43.9208 N.am      4 UNK        -0.5000 
     55 C          -1.4967  -13.8138  -44.5120 C.2       3 UNK         0.5000 
     56 O          -2.1998  -14.7113  -44.0509 O.2       3 UNK        -0.5000 
     57 CA         -0.7353  -14.0568  -45.8336 C.3       3 UNK         0.1400 
     58 CB         -1.7055  -14.3585  -46.9871 C.3       3 UNK        -0.1800 
     59 N           0.1631  -12.9747  -46.2528 N.am      3 UNK        -0.5000 
     60 C           1.2640  -12.5504  -45.6179 C.2       2 UNK         0.5000 
     61 O           1.6041  -12.9583  -44.5063 O.2       2 UNK        -0.5000 
     62 CA          2.1149  -11.4989  -46.3636 C.3       2 UNK         0.1400 
     63 CB          3.3709  -11.0891  -45.5740 C.3       2 UNK        -0.1800 
     64 N           2.5257  -11.9933  -47.6793 N.am      2 UNK        -0.5000 
     65 C           1.7588  -12.0204  -48.7770 C.2       1 UNK         0.5000 
     66 O           0.6241  -11.5376  -48.8265 O.2       1 UNK        -0.5000 
     67 C           0.6640  -22.0014  -47.6480 C.2       11 UNK         0.5000 
     68 O           0.6388  -22.8227  -48.5647 O.2       11 UNK        -0.5000 
     69 N          -0.1398  -20.9301  -47.5930 N.am      12 UNK        -0.5000 
     70 CA         -1.1986  -20.6400  -48.5578 C.3       12 UNK         0.1400 
     71 CB         -1.7716  -19.2393  -48.2940 C.3       12 UNK        -0.1800 
     72 C          -2.3123  -21.7016  -48.5329 C.2       12 UNK         0.5000 
     73 O          -2.6588  -22.2379  -49.5835 O.2       12 UNK        -0.5000 
     74 N          -2.8227  -22.0197  -47.3331 N.am      13 UNK        -0.5000 
     75 CA         -3.8975  -22.9897  -47.1014 C.3       13 UNK         0.1400 
     76 CB         -4.2810  -22.9928  -45.6149 C.3       13 UNK        -0.1800 
     77 C          -3.5767  -24.4189  -47.5746 C.2       13 UNK         0.5000 
     78 O          -4.4929  -25.1437  -47.9647 O.2       13 UNK        -0.5000 
     79 N          -2.2872  -24.7855  -47.5872 N.am      14 UNK        -0.5000 
     80 CA         -1.7732  -26.0551  -48.1080 C.3       14 UNK         0.1400 
     81 CB         -0.2726  -26.1607  -47.7979 C.3       14 UNK        -0.1800 
     82 C          -2.0388  -26.2790  -49.6134 C.2       14 UNK         0.5000 
     83 O          -1.9841  -27.4239  -50.0636 O.2       14 UNK        -0.5000 
     84 N          -2.3592  -25.2097  -50.3596 N.am      15 UNK        -0.5000 
     85 CA         -2.8135  -25.2707  -51.7507 C.3       15 UNK         0.1400 
     86 CB         -2.5915  -23.9042  -52.4128 C.3       15 UNK        -0.1800 
     87 C          -4.2773  -25.7467  -51.9063 C.2       15 UNK         0.5000 
     88 O          -4.7139  -25.9504  -53.0401 O.2       15 UNK        -0.5000 
     89 N          -4.9978  -25.9381  -50.7875 N.am      16 UNK        -0.5000 
     90 CA         -6.3045  -26.5906  -50.6471 C.3       16 UNK         0.1400 
     91 CB         -6.1682  -28.1083  -50.8947 C.3       16 UNK        -0.1800 
     92 C          -7.4124  -25.9360  -51.4935 C.2       16 UNK         0.5000 
     93 O          -8.0251  -24.9674  -51.0460 O.2       16 UNK        -0.5000 
     94 N          -7.6428  -26.4540  -52.7074 N.am      17 UNK        -0.5000 
     95 CA         -8.5841  -25.9076  -53.6882 C.3       17 UNK         0.1400 
     96 CB         -8.6943  -26.8832  -54.8696 C.3       17 UNK        -0.1800 
     97 C          -8.2009  -24.4981  -54.1849 C.2       17 UNK         0.5000 
     98 O          -9.0798  -23.7495  -54.6131 O.2       17 UNK        -0.5000 
     99 N          -6.9084  -24.1592  -54.0977 N.am      18 UNK        -0.5000 
    100 CA        -6.3440  -22.8581  -54.4437 C.3       18 UNK         0.1400 
    101 CB        -5.2879  -23.0573  -55.5455 C.3       18 UNK        -0.1800 
    102 C         -5.7717  -22.1581  -53.1955 C.2       18 UNK         0.5000 
    103 O         -4.7704  -21.4534  -53.3026 O.2       18 UNK        -0.5000 
    104 N         -6.4070  -22.3473  -52.0267 N.am      19 UNK        -0.5000 
    105 CA        -5.9830  -21.8059  -50.7250 C.3       19 UNK         0.1400 
    106 CB        -6.9353  -22.2998  -49.6248 C.3       19 UNK        -0.1800 
    107 C         -5.8320  -20.2707  -50.6485 C.2       19 UNK         0.5000 
    108 O         -5.1439  -19.7745  -49.7552 O.2       19 UNK        -0.5000 
    109 N         -6.4563  -19.5421  -51.5827 N.am      20 UNK        -0.5000 
    110 CA        -6.3142  -18.1011  -51.7817 C.3       20 UNK         0.1400 
    111 CB        -7.4765  -17.6117  -52.6637 C.3       20 UNK        -0.1800 
    112 C         -4.9328  -17.7482  -52.3761 C.2       20 UNK         0.5000 
    113 O         -4.8301  -17.4305  -53.5630 O.2       20 UNK        -0.5000 
    114 N         -3.8925  -17.8488  -51.5359 N.am      21 UNK        -0.5000 
    115 CA        -2.4854  -17.5226  -51.8040 C.3       21 UNK         0.1400 
    116 CB        -2.2971  -15.9939  -51.8806 C.3       21 UNK        -0.1800 
    117 C         -1.8936  -18.2659  -53.0211 C.2       21 UNK         0.5000 
    118 O         -1.1209  -17.6852  -53.7850 O.2       21 UNK        -0.5000 
    119 N         -2.2785  -19.5389  -53.1725 N.am      22 UNK        -0.5000 
    120 CA        -1.8906  -20.4496  -54.2643 C.3       22 UNK         0.1400 
    121 C         -2.5513  -20.1227  -55.6393 C.2       22 UNK         0.5000 
    122 N         -3.5310  -19.2283  -55.7191 N.am      22 UNK        -0.7600 
    123 O         -2.1866  -20.7078  -56.6557 O.2       22 UNK        -0.5000 
    124 C124       -0.3574  -20.6902  -54.3880 C.3       23 UNK        -0.0398 
    125 S125        0.4637  -21.0319  -52.7886 S.3       23 UNK        -0.2404 
    126 C126        1.6765  -19.6754  -52.7406 C.3       23 UNK        -0.0205 
    127 H127        2.9285  -10.1666  -53.5995 H         1 UNK         0.0600 
    128 H128        1.6910   -9.2861  -52.6966 H         1 UNK         0.0600 
    129 H129        1.3273  -10.8757  -53.3737 H         1 UNK         0.0600 
    130 H130        1.2875  -12.4513  -51.8021 H         1 UNK         0.3000 
    131 H131        3.4117  -12.8343  -49.8965 H         1 UNK         0.0600 
    132 H132        2.1529  -14.7362  -50.9543 H         1 UNK         0.0800 
    133 H133        0.6970  -14.2359  -50.1281 H         1 UNK         0.0800 
    134 H134        0.2299  -16.3651  -49.2266 H         1 UNK         0.0800 
    135 H135        0.8584  -16.9316  -47.7063 H         1 UNK         0.0800 
    136 H136        0.6745  -17.6570  -51.2168 H         1 UNK         0.1150 
    137 H137        3.5324  -20.8529  -51.1253 H         1 UNK         0.1150 
    138 H138        3.0892  -18.2651  -47.7339 H         1 UNK         0.1150 
    139 H139        5.3537  -20.5867  -49.3424 H         1 UNK         0.0800 
    140 H140        4.9782  -19.7791  -47.8445 H         1 UNK         0.0800 
    141 H141        2.7219  -20.3677  -46.6315 H         1 UNK         0.0800 
    142 H142        3.5111  -21.5585  -45.6438 H         1 UNK         0.0800 
    143 H143        1.8727  -23.2945  -46.4540 H         1 UNK         0.0600 
    144 H144        1.3195  -21.2158  -44.6124 H         1 UNK         0.3000 
    145 H145       -1.6911  -22.6171  -43.2678 H         1 UNK         0.0600 
    146 H146       -0.3242  -22.3963  -41.2185 H         1 UNK         0.0600 
    147 H147        1.1478  -22.2441  -42.1740 H         1 UNK         0.0600 
    148 H148        0.2476  -23.7565  -42.1732 H         1 UNK         0.0600 
    149 H149       -0.2839  -20.2468  -42.5933 H         1 UNK         0.3000 
    150 H150       -1.9963  -18.0440  -44.8760 H         1 UNK         0.0600 
    151 H151       -3.3834  -18.2932  -42.8366 H         1 UNK         0.0600 
    152 H152       -2.3000  -16.9230  -42.6551 H         1 UNK         0.0600 
    153 H153       -1.9469  -18.4364  -41.8336 H         1 UNK         0.0600 
    154 H154        0.0744  -17.4459  -43.0860 H         1 UNK         0.3000 
    155 H155        2.8888  -18.2208  -45.1863 H         1 UNK         0.0600 
    156 H156        2.1263  -15.9369  -45.7716 H         1 UNK         0.0600 
    157 H157        3.3589  -15.8634  -44.5263 H         1 UNK         0.0600 
    158 H158        1.6631  -15.6313  -44.1065 H         1 UNK         0.0600 
    159 H159        2.5808  -17.2803  -42.4784 H         1 UNK         0.3000 
    160 H160        2.8379  -20.4614  -40.9048 H         1 UNK         0.0600 
    161 H161        4.8296  -18.1386  -41.1287 H         1 UNK         0.0600 
    162 H162        5.1870  -19.8272  -41.4712 H         1 UNK         0.0600 
    163 H163        4.7722  -19.3375  -39.8363 H         1 UNK         0.0600 
    164 H164        2.6949  -17.7701  -39.9140 H         1 UNK         0.3000 
    165 H165       -0.8659  -17.6029  -39.7076 H         1 UNK         0.0600 
    166 H166       -0.3366  -17.2227  -37.3271 H         1 UNK         0.0600 
    167 H167       -0.1181  -18.9207  -37.7165 H         1 UNK         0.0600 
    168 H168        1.2874  -17.8761  -37.5450 H         1 UNK         0.0600 
    169 H169        0.9895  -15.7200  -38.8200 H         1 UNK         0.3000 
    170 H170        1.0147  -13.7061  -39.8302 H         1 UNK         0.0600 
    171 H171        3.2238  -14.5613  -40.6286 H         1 UNK         0.0600 
    172 H172        2.7039  -14.3913  -42.3010 H         1 UNK         0.0600 
    173 H173        2.8939  -12.9656  -41.2864 H         1 UNK         0.0600 
    174 H174        0.6151  -13.1800  -42.6728 H         1 UNK         0.3000 
    175 H175       -2.8605  -12.6086  -42.4884 H         1 UNK         0.0600 
    176 H176       -0.7562  -10.3758  -42.4966 H         1 UNK         0.0600 
    177 H177       -2.3923  -10.2568  -43.1462 H         1 UNK         0.0600 
    178 H178       -2.1451  -10.4680  -41.4202 H         1 UNK         0.0600 
    179 H179       -0.7541  -11.9441  -44.3743 H         1 UNK         0.3000 
    180 H180       -0.1235  -14.9459  -45.6765 H         1 UNK         0.0600 
    181 H181       -1.1666  -14.6096  -47.9008 H         1 UNK         0.0600 
    182 H182       -2.3503  -13.5054  -47.2009 H         1 UNK         0.0600 
    183 H183       -2.3484  -15.2071  -46.7493 H         1 UNK         0.0600 
    184 H184       -0.0311  -12.5585  -47.1570 H         1 UNK         0.3000 
    185 H185        1.4960  -10.6085  -46.4921 H         1 UNK         0.0600 
    186 H186        4.0342  -11.9378  -45.4026 H         1 UNK         0.0600 
    187 H187        3.9366  -10.3223  -46.1035 H         1 UNK         0.0600 
    188 H188        3.1038  -10.6785  -44.5993 H         1 UNK         0.0600 
    189 H189        3.4226  -12.4567  -47.7101 H         1 UNK         0.3000 
    190 H190       -0.0171  -20.2610  -46.8364 H         1 UNK         0.3000 
    191 H191       -0.7552  -20.6429  -49.5563 H         1 UNK         0.0600 
    192 H192       -1.0172  -18.4711  -48.4518 H         1 UNK         0.0600 
    193 H193       -2.1408  -19.1371  -47.2738 H         1 UNK         0.0600 
    194 H194       -2.6046  -19.0251  -48.9627 H         1 UNK         0.0600 
    195 H195       -2.4958  -21.5128  -46.5130 H         1 UNK         0.3000 
    196 H196       -4.7623  -22.6506  -47.6723 H         1 UNK         0.0600 
    197 H197       -4.6307  -22.0109  -45.2960 H         1 UNK         0.0600 
    198 H198       -3.4358  -23.2703  -44.9846 H         1 UNK         0.0600 
    199 H199       -5.0860  -23.7021  -45.4182 H         1 UNK         0.0600 
    200 H200       -1.6036  -24.1403  -47.2094 H         1 UNK         0.3000 
    201 H201       -2.2856  -26.8553  -47.5704 H         1 UNK         0.0600 
    202 H202       -0.0773  -26.0377  -46.7324 H         1 UNK         0.0600 
    203 H203        0.3024  -25.4070  -48.3349 H         1 UNK         0.0600 
    204 H204        0.1178  -27.1366  -48.0891 H         1 UNK         0.0600 
    205 H205       -2.3735  -24.2924  -49.9251 H         1 UNK         0.3000 
    206 H206       -2.1909  -25.9948  -52.2799 H         1 UNK         0.0600 
    207 H207       -3.2090  -23.1337  -51.9553 H         1 UNK         0.0600 
    208 H208       -1.5514  -23.5879  -52.3309 H         1 UNK         0.0600 
    209 H209       -2.8373  -23.9361  -53.4740 H         1 UNK         0.0600 
    210 H210       -4.5747  -25.6702  -49.9048 H         1 UNK         0.3000 
    211 H211       -6.5995  -26.4568  -49.6051 H         1 UNK         0.0600 
    212 H212       -5.7780  -28.3348  -51.8873 H         1 UNK         0.0600 
    213 H213       -7.1308  -28.6112  -50.7929 H         1 UNK         0.0600 
    214 H214       -5.4918  -28.5585  -50.1679 H         1 UNK         0.0600 
    215 H215       -7.0629  -27.2212  -53.0155 H         1 UNK         0.3000 
    216 H216       -9.5631  -25.8329  -53.2103 H         1 UNK         0.0600 
    217 H217       -9.4094  -26.5217  -55.6098 H         1 UNK         0.0600 
    218 H218       -9.0369  -27.8646  -54.5408 H         1 UNK         0.0600 
    219 H219       -7.7360  -27.0124  -55.3743 H         1 UNK         0.0600 
    220 H220       -6.2539  -24.8413  -53.7243 H         1 UNK         0.3000 
    221 H221       -7.1163  -22.1958  -54.8390 H         1 UNK         0.0600 
    222 H222       -4.4598  -23.6771  -55.2019 H         1 UNK         0.0600 
    223 H223       -5.7221  -23.5378  -56.4222 H         1 UNK         0.0600 
    224 H224       -4.8750  -22.1032  -55.8742 H         1 UNK         0.0600 
    225 H225       -7.2098  -22.9629  -52.0100 H         1 UNK         0.3000 
    226 H226       -4.9982  -22.2219  -50.5187 H         1 UNK         0.0600 
    227 H227       -6.7891  -23.3620  -49.4313 H         1 UNK         0.0600 
    228 H228       -6.7614  -21.7827  -48.6802 H         1 UNK         0.0600 
    229 H229       -7.9800  -22.1419  -49.8942 H         1 UNK         0.0600 
    230 H230       -6.9762  -20.0397  -52.2896 H         1 UNK         0.3000 
    231 H231       -6.3975  -17.6025  -50.8137 H         1 UNK         0.0600 
    232 H232       -7.4107  -16.5364  -52.8344 H         1 UNK         0.0600 
    233 H233       -8.4391  -17.8060  -52.1902 H         1 UNK         0.0600 
    234 H234       -7.4783  -18.1003  -53.6390 H         1 UNK         0.0600 
    235 H235       -4.0930  -18.2257  -50.6152 H         1 UNK         0.3000 
    236 H236       -1.9179  -17.8747  -50.9427 H         1 UNK         0.0600 
    237 H237       -2.8102  -15.5687  -52.7438 H         1 UNK         0.0600 
    238 H238       -2.6820  -15.5042  -50.9860 H         1 UNK         0.0600 
    239 H239       -1.2417  -15.7310  -51.9624 H         1 UNK         0.0600 
    240 H240       -2.9648  -19.9177  -52.5349 H         1 UNK         0.3000 
    241 H241       -2.3172  -21.4113  -53.9842 H         1 UNK         0.0600 
    242 H242       -3.9512  -19.0340  -56.6133 H         1 UNK         0.3800 
    243 H243       -3.8544  -18.7341  -54.8957 H         1 UNK         0.3800 
    244 H244        0.1174  -19.8414  -54.8813 H         1 UNK         0.0800 
    245 H245       -0.1694  -21.5464  -55.0376 H         1 UNK         0.0800 
    246 H246        1.2802  -18.7938  -53.2454 H         1 UNK         0.0800 
    247 H247        2.5659  -19.9702  -53.2993 H         1 UNK         0.0800 
@<TRIPOS>BOND
     1    1    2 1    
     2    1  127 1    
     3    1  128 1    
     4    1  129 1    
     5    2    3 2    
     6    2    4 am   BACKBONE|DICT|INTERRES
     7    4    5 1    
     8    4  130 1    
     9    5    6 1    
    10    5   65 1    
    11    5  131 1    
    12    6    7 1    
    13    6  132 1    
    14    6  133 1    
    15    7    8 1    
    16    8    9 1    
    17    8  134 1    
    18    8  135 1    
    19    9   10 ar   
    20    9   14 ar   
    21   10   11 ar   
    22   10  136 1    
    23   11   12 ar   
    24   11  126 1    
    25   12   13 ar   
    26   12  137 1    
    27   13   14 ar   
    28   13   15 1    
    29   14  138 1    
    30   15   16 1    
    31   15  139 1    
    32   15  140 1    
    33   16   17 1    
    34   17   18 1    
    35   17  141 1    
    36   17  142 1    
    37   18   19 1    
    38   18   67 1    
    39   18  143 1    
    40   19   20 am   BACKBONE|DICT|INTERRES
    41   19  144 1    
    42   20   21 2    
    43   20   22 1    
    44   22   23 1    
    45   22   24 1    
    46   22  145 1    
    47   23  146 1    
    48   23  147 1    
    49   23  148 1    
    50   24   25 am   BACKBONE|DICT|INTERRES
    51   24  149 1    
    52   25   26 2    
    53   25   27 1    
    54   27   28 1    
    55   27   29 1    
    56   27  150 1    
    57   28  151 1    
    58   28  152 1    
    59   28  153 1    
    60   29   30 am   BACKBONE|DICT|INTERRES
    61   29  154 1    
    62   30   31 2    
    63   30   32 1    
    64   32   33 1    
    65   32   34 1    
    66   32  155 1    
    67   33  156 1    
    68   33  157 1    
    69   33  158 1    
    70   34   35 am   BACKBONE|DICT|INTERRES
    71   34  159 1    
    72   35   36 2    
    73   35   37 1    
    74   37   38 1    
    75   37   39 1    
    76   37  160 1    
    77   38  161 1    
    78   38  162 1    
    79   38  163 1    
    80   39   40 am   BACKBONE|DICT|INTERRES
    81   39  164 1    
    82   40   41 2    
    83   40   42 1    
    84   42   43 1    
    85   42   44 1    
    86   42  165 1    
    87   43  166 1    
    88   43  167 1    
    89   43  168 1    
    90   44   45 am   BACKBONE|DICT|INTERRES
    91   44  169 1    
    92   45   46 2    
    93   45   47 1    
    94   47   48 1    
    95   47   49 1    
    96   47  170 1    
    97   48  171 1    
    98   48  172 1    
    99   48  173 1    
   100   49   50 am   BACKBONE|DICT|INTERRES
   101   49  174 1    
   102   50   51 2    
   103   50   52 1    
   104   52   53 1    
   105   52   54 1    
   106   52  175 1    
   107   53  176 1    
   108   53  177 1    
   109   53  178 1    
   110   54   55 am   BACKBONE|DICT|INTERRES
   111   54  179 1    
   112   55   56 2    
   113   55   57 1    
   114   57   58 1    
   115   57   59 1    
   116   57  180 1    
   117   58  181 1    
   118   58  182 1    
   119   58  183 1    
   120   59   60 am   BACKBONE|DICT|INTERRES
   121   59  184 1    
   122   60   61 2    
   123   60   62 1    
   124   62   63 1    
   125   62   64 1    
   126   62  185 1    
   127   63  186 1    
   128   63  187 1    
   129   63  188 1    
   130   64   65 am   BACKBONE|DICT|INTERRES
   131   64  189 1    
   132   65   66 2    
   133   67   68 2    
   134   67   69 am   BACKBONE|DICT|INTERRES
   135   69   70 1    
   136   69  190 1    
   137   70   71 1    
   138   70   72 1    
   139   70  191 1    
   140   71  192 1    
   141   71  193 1    
   142   71  194 1    
   143   72   73 2    
   144   72   74 am   BACKBONE|DICT|INTERRES
   145   74   75 1    
   146   74  195 1    
   147   75   76 1    
   148   75   77 1    
   149   75  196 1    
   150   76  197 1    
   151   76  198 1    
   152   76  199 1    
   153   77   78 2    
   154   77   79 am   BACKBONE|DICT|INTERRES
   155   79   80 1    
   156   79  200 1    
   157   80   81 1    
   158   80   82 1    
   159   80  201 1    
   160   81  202 1    
   161   81  203 1    
   162   81  204 1    
   163   82   83 2    
   164   82   84 am   BACKBONE|DICT|INTERRES
   165   84   85 1    
   166   84  205 1    
   167   85   86 1    
   168   85   87 1    
   169   85  206 1    
   170   86  207 1    
   171   86  208 1    
   172   86  209 1    
   173   87   88 2    
   174   87   89 am   BACKBONE|DICT|INTERRES
   175   89   90 1    
   176   89  210 1    
   177   90   91 1    
   178   90   92 1    
   179   90  211 1    
   180   91  212 1    
   181   91  213 1    
   182   91  214 1    
   183   92   93 2    
   184   92   94 am   BACKBONE|DICT|INTERRES
   185   94   95 1    
   186   94  215 1    
   187   95   96 1    
   188   95   97 1    
   189   95  216 1    
   190   96  217 1    
   191   96  218 1    
   192   96  219 1    
   193   97   98 2    
   194   97   99 am   BACKBONE|DICT|INTERRES
   195   99  100 1    
   196   99  220 1    
   197  100  101 1    
   198  100  102 1    
   199  100  221 1    
   200  101  222 1    
   201  101  223 1    
   202  101  224 1    
   203  102  103 2    
   204  102  104 am   BACKBONE|DICT|INTERRES
   205  104  105 1    
   206  104  225 1    
   207  105  106 1    
   208  105  107 1    
   209  105  226 1    
   210  106  227 1    
   211  106  228 1    
   212  106  229 1    
   213  107  108 2    
   214  107  109 am   BACKBONE|DICT|INTERRES
   215  109  110 1    
   216  109  230 1    
   217  110  111 1    
   218  110  112 1    
   219  110  231 1    
   220  111  232 1    
   221  111  233 1    
   222  111  234 1    
   223  112  113 2    
   224  112  114 am   BACKBONE|DICT|INTERRES
   225  114  115 1    
   226  114  235 1    
   227  115  116 1    
   228  115  117 1    
   229  115  236 1    
   230  116  237 1    
   231  116  238 1    
   232  116  239 1    
   233  117  118 2    
   234  117  119 am   BACKBONE|DICT|INTERRES
   235  119  120 1    
   236  119  240 1    
   237  120  121 1    
   238  120  124 1    
   239  120  241 1    
   240  121  122 am   BACKBONE|DICT|INTERRES
   241  121  123 2    
   242  122  242 1    
   243  122  243 1    
   244  124  125 1    
   245  124  244 1    
   246  124  245 1    
   247  125  126 1    
   248  126  246 1    
   249  126  247 1    
@<TRIPOS>SUBSTRUCTURE
     1 UNK         1 GROUP             0       ****    0 ROOT    
