@<TRIPOS>MOLECULE
3R540
247   249    1
SMALL
USER_CHARGES


@<TRIPOS>ATOM
      1 CA          5.8344  -13.1064  -50.0727 C.3       0 UNK        -0.1800 
      2 C           4.5867  -13.9369  -50.3309 C.2       0 UNK         0.5000 
      3 O           3.7499  -14.0763  -49.4376 O.2       0 UNK        -0.5000 
      4 N           4.4443  -14.4751  -51.5499 N.am      1 UNK        -0.5000 
      5 CA          3.3254  -15.3091  -52.0112 C.3       1 UNK         0.1400 
      6 C6          3.7574  -16.1725  -53.2259 C.3       23 UNK        -0.0398 
      7 S7          2.6720  -17.5837  -53.6436 S.3       23 UNK        -0.2404 
      8 C8          2.6141  -18.5578  -52.0942 C.3       23 UNK        -0.0205 
      9 C9          1.4120  -18.2949  -51.1806 C.ar      23 UNK        -0.0193 
     10 C10         0.3539  -17.4516  -51.5398 C.ar      23 UNK        -0.1150 
     11 C11        -0.7447  -17.2720  -50.6989 C.ar      23 UNK        -0.0193 
     12 C12        -0.7751  -17.9228  -49.4656 C.ar      23 UNK        -0.1150 
     13 C13         0.2667  -18.7761  -49.0843 C.ar      23 UNK        -0.0193 
     14 C14         1.3540  -18.9516  -49.9475 C.ar      23 UNK        -0.1150 
     15 C15         0.2572  -19.4987  -47.7411 C.3       23 UNK        -0.0205 
     16 S16        -1.3993  -20.0290  -47.1921 S.3       23 UNK        -0.2404 
     17 C17        -1.0365  -20.5876  -45.4999 C.3       23 UNK        -0.0398 
     18 CA         -0.4074  -21.9978  -45.4722 C.3       11 UNK         0.1400 
     19 N           0.3874  -22.2166  -44.2636 N.am      11 UNK        -0.5000 
     20 C           1.1895  -23.2670  -44.0400 C.2       10 UNK         0.5000 
     21 O           1.3194  -24.2079  -44.8253 O.2       10 UNK        -0.5000 
     22 CA          1.9361  -23.2771  -42.6978 C.3       10 UNK         0.1400 
     23 CB          3.1692  -22.3623  -42.7556 C.3       10 UNK        -0.1800 
     24 N           1.0542  -22.8421  -41.6151 N.am      10 UNK        -0.5000 
     25 C           0.2148  -23.6532  -40.9572 C.2       9 UNK         0.5000 
     26 O           0.1654  -24.8713  -41.1295 O.2       9 UNK        -0.5000 
     27 CA         -0.7478  -22.9937  -39.9497 C.3       9 UNK         0.1400 
     28 CB         -0.1017  -22.9171  -38.5582 C.3       9 UNK        -0.1800 
     29 N          -1.1870  -21.6545  -40.3496 N.am      9 UNK        -0.5000 
     30 C          -1.9403  -21.3892  -41.4259 C.2       8 UNK         0.5000 
     31 O          -2.3472  -22.2495  -42.2053 O.2       8 UNK        -0.5000 
     32 CA         -2.2544  -19.9087  -41.7095 C.3       8 UNK         0.1400 
     33 CB         -3.5223  -19.4735  -40.9613 C.3       8 UNK        -0.1800 
     34 N          -1.1680  -18.9752  -41.3987 N.am      8 UNK        -0.5000 
     35 C           0.0903  -19.0436  -41.8542 C.2       7 UNK         0.5000 
     36 O           0.5315  -19.9966  -42.4993 O.2       7 UNK        -0.5000 
     37 CA          0.9787  -17.8213  -41.5610 C.3       7 UNK         0.1400 
     38 CB          2.4230  -18.0036  -42.0620 C.3       7 UNK        -0.1800 
     39 N           0.3983  -16.6338  -42.1880 N.am      7 UNK        -0.5000 
     40 C          -0.5059  -15.8246  -41.6170 C.2       6 UNK         0.5000 
     41 O          -0.9067  -15.9721  -40.4618 O.2       6 UNK        -0.5000 
     42 CA         -1.0908  -14.6843  -42.4764 C.3       6 UNK         0.1400 
     43 CB         -0.3112  -13.3824  -42.2409 C.3       6 UNK        -0.1800 
     44 N          -1.1014  -14.9805  -43.9092 N.am      6 UNK        -0.5000 
     45 C          -1.8425  -15.9371  -44.4903 C.2       5 UNK         0.5000 
     46 O          -2.6736  -16.6157  -43.8863 O.2       5 UNK        -0.5000 
     47 CA         -1.5981  -16.2044  -45.9911 C.3       5 UNK         0.1400 
     48 CB         -2.6526  -15.4759  -46.8369 C.3       5 UNK        -0.1800 
     49 N          -0.2662  -15.8165  -46.4646 N.am      5 UNK        -0.5000 
     50 C           0.9010  -16.2460  -45.9615 C.2       4 UNK         0.5000 
     51 O           0.9849  -17.0845  -45.0652 O.2       4 UNK        -0.5000 
     52 CA          2.1928  -15.6060  -46.5055 C.3       4 UNK         0.1400 
     53 CB          2.8675  -16.5497  -47.5129 C.3       4 UNK        -0.1800 
     54 N           2.0221  -14.2891  -47.1275 N.am      4 UNK        -0.5000 
     55 C           1.4580  -13.2059  -46.5710 C.2       3 UNK         0.5000 
     56 O           0.9916  -13.1854  -45.4307 O.2       3 UNK        -0.5000 
     57 CA          1.3695  -11.9428  -47.4484 C.3       3 UNK         0.1400 
     58 CB          2.5902  -11.0417  -47.2095 C.3       3 UNK        -0.1800 
     59 N           1.2706  -12.2364  -48.8805 N.am      3 UNK        -0.5000 
     60 C           0.2067  -12.7796  -49.4923 C.2       2 UNK         0.5000 
     61 O          -0.8292  -13.1044  -48.9128 O.2       2 UNK        -0.5000 
     62 CA          0.3681  -13.0588  -50.9934 C.3       2 UNK         0.1400 
     63 CB          0.4661  -11.7486  -51.7991 C.3       2 UNK        -0.1800 
     64 N           1.5590  -13.8829  -51.1522 N.am      2 UNK        -0.5000 
     65 C           2.0509  -14.4610  -52.2495 C.2       1 UNK         0.5000 
     66 O           1.5677  -14.3353  -53.3760 O.2       1 UNK        -0.5000 
     67 C          -1.4415  -23.1098  -45.7367 C.2       11 UNK         0.5000 
     68 O          -1.7189  -23.4067  -46.8998 O.2       11 UNK        -0.5000 
     69 N          -1.9443  -23.7475  -44.6698 N.am      12 UNK        -0.5000 
     70 CA         -2.7886  -24.9447  -44.7020 C.3       12 UNK         0.1400 
     71 CB         -3.0951  -25.3831  -43.2626 C.3       12 UNK        -0.1800 
     72 C          -2.1849  -26.1152  -45.5033 C.2       12 UNK         0.5000 
     73 O          -2.9349  -26.8578  -46.1369 O.2       12 UNK        -0.5000 
     74 N          -0.8511  -26.2357  -45.4870 N.am      13 UNK        -0.5000 
     75 CA         -0.1010  -27.1927  -46.2935 C.3       13 UNK         0.1400 
     76 CB          1.0733  -27.7396  -45.4662 C.3       13 UNK        -0.1800 
     77 C           0.4076  -26.5486  -47.5943 C.2       13 UNK         0.5000 
     78 O           0.3067  -27.1702  -48.6524 O.2       13 UNK        -0.5000 
     79 N           0.9655  -25.3325  -47.4952 N.am      14 UNK        -0.5000 
     80 CA          1.6951  -24.6768  -48.5834 C.3       14 UNK         0.1400 
     81 CB          2.5305  -23.5167  -48.0208 C.3       14 UNK        -0.1800 
     82 C           0.8226  -24.1962  -49.7587 C.2       14 UNK         0.5000 
     83 O           1.2940  -24.2386  -50.8962 O.2       14 UNK        -0.5000 
     84 N          -0.4098  -23.7452  -49.4869 N.am      15 UNK        -0.5000 
     85 CA         -1.3196  -23.2042  -50.5032 C.3       15 UNK         0.1400 
     86 CB         -1.0344  -21.7074  -50.7343 C.3       15 UNK        -0.1800 
     87 C          -2.7941  -23.4805  -50.1650 C.2       15 UNK         0.5000 
     88 O          -3.6643  -22.6980  -50.5513 O.2       15 UNK        -0.5000 
     89 N          -3.0498  -24.5834  -49.4441 N.am      16 UNK        -0.5000 
     90 CA         -4.3680  -25.0847  -49.0332 C.3       16 UNK         0.1400 
     91 CB         -5.1106  -25.6778  -50.2479 C.3       16 UNK        -0.1800 
     92 C          -5.2084  -24.0488  -48.2524 C.2       16 UNK         0.5000 
     93 O          -6.4122  -23.9252  -48.4828 O.2       16 UNK        -0.5000 
     94 N          -4.5371  -23.3208  -47.3485 N.am      17 UNK        -0.5000 
     95 CA         -5.0522  -22.2246  -46.5216 C.3       17 UNK         0.1400 
     96 CB         -6.1672  -22.7037  -45.5672 C.3       17 UNK        -0.1800 
     97 C          -5.4458  -21.0001  -47.3701 C.2       17 UNK         0.5000 
     98 O          -6.5213  -20.4298  -47.1794 O.2       17 UNK        -0.5000 
     99 N          -4.5392  -20.6258  -48.2845 N.am      18 UNK        -0.5000 
    100 CA        -4.6169  -19.4966  -49.2144 C.3       18 UNK         0.1400 
    101 CB        -4.6237  -18.1576  -48.4454 C.3       18 UNK        -0.1800 
    102 C         -5.7919  -19.6450  -50.2005 C.2       18 UNK         0.5000 
    103 O         -6.6240  -18.7438  -50.3251 O.2       18 UNK        -0.5000 
    104 N         -5.8561  -20.8094  -50.8580 N.am      19 UNK        -0.5000 
    105 CA        -6.8697  -21.1379  -51.8558 C.3       19 UNK         0.1400 
    106 CB        -6.8408  -22.6500  -52.1205 C.3       19 UNK        -0.1800 
    107 C         -6.6580  -20.3533  -53.1636 C.2       19 UNK         0.5000 
    108 O         -5.5196  -20.2196  -53.6203 O.2       19 UNK        -0.5000 
    109 N         -7.7712  -19.8937  -53.7531 N.am      20 UNK        -0.5000 
    110 CA        -7.8636  -19.1163  -54.9949 C.3       20 UNK         0.1400 
    111 CB        -7.4227  -19.9760  -56.2016 C.3       20 UNK        -0.1800 
    112 C         -7.1339  -17.7550  -54.9149 C.2       20 UNK         0.5000 
    113 O         -6.9002  -17.2364  -53.8206 O.2       20 UNK        -0.5000 
    114 N         -6.8029  -17.1793  -56.0768 N.am      21 UNK        -0.5000 
    115 CA        -6.0572  -15.9283  -56.2171 C.3       21 UNK         0.1400 
    116 CB        -6.4795  -15.2470  -57.5319 C.3       21 UNK        -0.1800 
    117 C         -4.5397  -16.1921  -56.1400 C.2       21 UNK         0.5000 
    118 O         -3.8203  -15.9715  -57.1168 O.2       21 UNK        -0.5000 
    119 N         -4.0895  -16.7095  -54.9919 N.am      22 UNK        -0.5000 
    120 CA        -2.6831  -17.0113  -54.6956 C.3       22 UNK         0.1400 
    121 C         -1.7680  -15.7549  -54.6091 C.2       22 UNK         0.5000 
    122 N         -0.4674  -15.9236  -54.8044 N.am      22 UNK        -0.7600 
    123 O         -2.2116  -14.6454  -54.3196 O.2       22 UNK        -0.5000 
    124 C124       -2.5456  -17.9241  -53.4466 C.3       23 UNK        -0.0398 
    125 S125       -3.2714  -17.2618  -51.9009 S.3       23 UNK        -0.2404 
    126 C126       -1.8874  -16.3616  -51.1229 C.3       23 UNK        -0.0205 
    127 H127        5.5559  -12.0898  -49.7953 H         1 UNK         0.0600 
    128 H128        6.4784  -13.0569  -50.9509 H         1 UNK         0.0600 
    129 H129        6.4076  -13.5395  -49.2530 H         1 UNK         0.0600 
    130 H130        5.1530  -14.2858  -52.2444 H         1 UNK         0.3000 
    131 H131        3.0922  -15.9912  -51.1921 H         1 UNK         0.0600 
    132 H132        3.8688  -15.5505  -54.1156 H         1 UNK         0.0800 
    133 H133        4.7469  -16.5924  -53.0389 H         1 UNK         0.0800 
    134 H134        3.5395  -18.4086  -51.5361 H         1 UNK         0.0800 
    135 H135        2.5945  -19.6128  -52.3708 H         1 UNK         0.0800 
    136 H136        0.3618  -16.9332  -52.4844 H         1 UNK         0.1150 
    137 H137       -1.6180  -17.7692  -48.8094 H         1 UNK         0.1150 
    138 H138        2.1627  -19.6086  -49.6594 H         1 UNK         0.1150 
    139 H139        0.8968  -20.3796  -47.7978 H         1 UNK         0.0800 
    140 H140        0.6986  -18.8482  -46.9908 H         1 UNK         0.0800 
    141 H141       -1.9551  -20.5552  -44.9136 H         1 UNK         0.0800 
    142 H142       -0.3658  -19.8553  -45.0473 H         1 UNK         0.0800 
    143 H143        0.3061  -22.0569  -46.2913 H         1 UNK         0.0600 
    144 H144        0.3709  -21.4693  -43.5729 H         1 UNK         0.3000 
    145 H145        2.2792  -24.2963  -42.5073 H         1 UNK         0.0600 
    146 H146        3.7252  -22.3932  -41.8185 H         1 UNK         0.0600 
    147 H147        3.8496  -22.6762  -43.5481 H         1 UNK         0.0600 
    148 H148        2.8980  -21.3236  -42.9488 H         1 UNK         0.0600 
    149 H149        0.9877  -21.8439  -41.4612 H         1 UNK         0.3000 
    150 H150       -1.6339  -23.6283  -39.8800 H         1 UNK         0.0600 
    151 H151        0.2160  -23.9045  -38.2204 H         1 UNK         0.0600 
    152 H152       -0.8033  -22.5322  -37.8179 H         1 UNK         0.0600 
    153 H153        0.7772  -22.2712  -38.5572 H         1 UNK         0.0600 
    154 H154       -0.8869  -20.8830  -39.7721 H         1 UNK         0.3000 
    155 H155       -2.4531  -19.8176  -42.7778 H         1 UNK         0.0600 
    156 H156       -3.3767  -19.4869  -39.8805 H         1 UNK         0.0600 
    157 H157       -4.3588  -20.1356  -41.1896 H         1 UNK         0.0600 
    158 H158       -3.8211  -18.4648  -41.2481 H         1 UNK         0.0600 
    159 H159       -1.4295  -18.1413  -40.8881 H         1 UNK         0.3000 
    160 H160        1.0179  -17.6909  -40.4776 H         1 UNK         0.0600 
    161 H161        2.4620  -18.1759  -43.1379 H         1 UNK         0.0600 
    162 H162        2.8979  -18.8576  -41.5776 H         1 UNK         0.0600 
    163 H163        3.0301  -17.1256  -41.8417 H         1 UNK         0.0600 
    164 H164        0.6073  -16.5176  -43.1746 H         1 UNK         0.3000 
    165 H165       -2.1234  -14.5276  -42.1577 H         1 UNK         0.0600 
    166 H166       -0.7536  -12.5521  -42.7917 H         1 UNK         0.0600 
    167 H167       -0.3130  -13.1102  -41.1847 H         1 UNK         0.0600 
    168 H168        0.7292  -13.4755  -42.5555 H         1 UNK         0.0600 
    169 H169       -0.4441  -14.4614  -44.4814 H         1 UNK         0.3000 
    170 H170       -1.7053  -17.2778  -46.1509 H         1 UNK         0.0600 
    171 H171       -3.6620  -15.7590  -46.5354 H         1 UNK         0.0600 
    172 H172       -2.5695  -14.3930  -46.7350 H         1 UNK         0.0600 
    173 H173       -2.5505  -15.7186  -47.8934 H         1 UNK         0.0600 
    174 H174       -0.2373  -15.1122  -47.1883 H         1 UNK         0.3000 
    175 H175        2.8640  -15.4778  -45.6543 H         1 UNK         0.0600 
    176 H176        2.2971  -16.6169  -48.4399 H         1 UNK         0.0600 
    177 H177        3.8714  -16.2066  -47.7622 H         1 UNK         0.0600 
    178 H178        2.9647  -17.5586  -47.1099 H         1 UNK         0.0600 
    179 H179        2.4594  -14.1785  -48.0371 H         1 UNK         0.3000 
    180 H180        0.4731  -11.3954  -47.1498 H         1 UNK         0.0600 
    181 H181        2.6857  -10.7846  -46.1537 H         1 UNK         0.0600 
    182 H182        2.5054  -10.1069  -47.7640 H         1 UNK         0.0600 
    183 H183        3.5166  -11.5310  -47.5141 H         1 UNK         0.0600 
    184 H184        2.0859  -12.0168  -49.4342 H         1 UNK         0.3000 
    185 H185       -0.5003  -13.6211  -51.3363 H         1 UNK         0.0600 
    186 H186       -0.3790  -11.0942  -51.5821 H         1 UNK         0.0600 
    187 H187        1.3784  -11.1970  -51.5701 H         1 UNK         0.0600 
    188 H188        0.4534  -11.9402  -52.8719 H         1 UNK         0.0600 
    189 H189        2.0932  -14.0320  -50.3006 H         1 UNK         0.3000 
    190 H190       -1.7352  -23.3780  -43.7476 H         1 UNK         0.3000 
    191 H191       -3.7312  -24.6779  -45.1774 H         1 UNK         0.0600 
    192 H192       -2.1823  -25.5981  -42.7054 H         1 UNK         0.0600 
    193 H193       -3.7108  -26.2833  -43.2484 H         1 UNK         0.0600 
    194 H194       -3.6424  -24.6097  -42.7237 H         1 UNK         0.0600 
    195 H195       -0.3049  -25.5572  -44.9700 H         1 UNK         0.3000 
    196 H196       -0.7374  -28.0381  -46.5640 H         1 UNK         0.0600 
    197 H197        1.6523  -28.4631  -46.0414 H         1 UNK         0.0600 
    198 H198        0.7180  -28.2470  -44.5692 H         1 UNK         0.0600 
    199 H199        1.7548  -26.9476  -45.1533 H         1 UNK         0.0600 
    200 H200        1.0350  -24.9009  -46.5782 H         1 UNK         0.3000 
    201 H201        2.3952  -25.4117  -48.9869 H         1 UNK         0.0600 
    202 H202        3.1656  -23.8456  -47.1979 H         1 UNK         0.0600 
    203 H203        1.9044  -22.7042  -47.6594 H         1 UNK         0.0600 
    204 H204        3.1836  -23.1020  -48.7897 H         1 UNK         0.0600 
    205 H205       -0.7431  -23.7224  -48.5262 H         1 UNK         0.3000 
    206 H206       -1.1460  -23.7250  -51.4469 H         1 UNK         0.0600 
    207 H207        0.0126  -21.5307  -50.9797 H         1 UNK         0.0600 
    208 H208       -1.6284  -21.3133  -51.5597 H         1 UNK         0.0600 
    209 H209       -1.2761  -21.1186  -49.8521 H         1 UNK         0.0600 
    210 H210       -2.2615  -25.1483  -49.1619 H         1 UNK         0.3000 
    211 H211       -4.1825  -25.9026  -48.3366 H         1 UNK         0.0600 
    212 H212       -5.3213  -24.9198  -51.0012 H         1 UNK         0.0600 
    213 H213       -6.0614  -26.1224  -49.9518 H         1 UNK         0.0600 
    214 H214       -4.5217  -26.4628  -50.7220 H         1 UNK         0.0600 
    215 H215       -3.5340  -23.4771  -47.2804 H         1 UNK         0.3000 
    216 H216       -4.2192  -21.8981  -45.8978 H         1 UNK         0.0600 
    217 H217       -6.4420  -21.9141  -44.8670 H         1 UNK         0.0600 
    218 H218       -5.8452  -23.5602  -44.9759 H         1 UNK         0.0600 
    219 H219       -7.0719  -22.9881  -46.1047 H         1 UNK         0.0600 
    220 H220       -3.7116  -21.1966  -48.3804 H         1 UNK         0.3000 
    221 H221       -3.7034  -19.5294  -49.8104 H         1 UNK         0.0600 
    222 H222       -5.5412  -18.0194  -47.8732 H         1 UNK         0.0600 
    223 H223       -3.7871  -18.1000  -47.7504 H         1 UNK         0.0600 
    224 H224       -4.5380  -17.3138  -49.1301 H         1 UNK         0.0600 
    225 H225       -5.1148  -21.4931  -50.7216 H         1 UNK         0.3000 
    226 H226       -7.8476  -20.8832  -51.4419 H         1 UNK         0.0600 
    227 H227       -7.0517  -23.2104  -51.2096 H         1 UNK         0.0600 
    228 H228       -7.5916  -22.9339  -52.8589 H         1 UNK         0.0600 
    229 H229       -5.8690  -22.9716  -52.4975 H         1 UNK         0.0600 
    230 H230       -8.6506  -20.0386  -53.2776 H         1 UNK         0.3000 
    231 H231       -8.9214  -18.8836  -55.1236 H         1 UNK         0.0600 
    232 H232       -7.9010  -20.9554  -56.1808 H         1 UNK         0.0600 
    233 H233       -6.3436  -20.1345  -56.2145 H         1 UNK         0.0600 
    234 H234       -7.7005  -19.5106  -57.1476 H         1 UNK         0.0600 
    235 H235       -7.0036  -17.6740  -56.9338 H         1 UNK         0.3000 
    236 H236       -6.3143  -15.2526  -55.3984 H         1 UNK         0.0600 
    237 H237       -5.9571  -14.2988  -57.6657 H         1 UNK         0.0600 
    238 H238       -6.2598  -15.8699  -58.3999 H         1 UNK         0.0600 
    239 H239       -7.5480  -15.0306  -57.5371 H         1 UNK         0.0600 
    240 H240       -4.7486  -16.8684  -54.2392 H         1 UNK         0.3000 
    241 H241       -2.3176  -17.5902  -55.5463 H         1 UNK         0.0600 
    242 H242        0.1586  -15.1429  -54.6419 H         1 UNK         0.3800 
    243 H243       -0.0754  -16.8181  -55.0514 H         1 UNK         0.3800 
    244 H244       -1.5075  -18.2092  -53.2872 H         1 UNK         0.0800 
    245 H245       -3.0580  -18.8657  -53.6490 H         1 UNK         0.0800 
    246 H246       -1.5240  -15.5970  -51.8066 H         1 UNK         0.0800 
    247 H247       -2.2663  -15.8237  -50.2536 H         1 UNK         0.0800 
@<TRIPOS>BOND
     1    1    2 1    
     2    1  127 1    
     3    1  128 1    
     4    1  129 1    
     5    2    3 2    
     6    2    4 am   BACKBONE|DICT|INTERRES
     7    4    5 1    
     8    4  130 1    
     9    5    6 1    
    10    5   65 1    
    11    5  131 1    
    12    6    7 1    
    13    6  132 1    
    14    6  133 1    
    15    7    8 1    
    16    8    9 1    
    17    8  134 1    
    18    8  135 1    
    19    9   10 ar   
    20    9   14 ar   
    21   10   11 ar   
    22   10  136 1    
    23   11   12 ar   
    24   11  126 1    
    25   12   13 ar   
    26   12  137 1    
    27   13   14 ar   
    28   13   15 1    
    29   14  138 1    
    30   15   16 1    
    31   15  139 1    
    32   15  140 1    
    33   16   17 1    
    34   17   18 1    
    35   17  141 1    
    36   17  142 1    
    37   18   19 1    
    38   18   67 1    
    39   18  143 1    
    40   19   20 am   BACKBONE|DICT|INTERRES
    41   19  144 1    
    42   20   21 2    
    43   20   22 1    
    44   22   23 1    
    45   22   24 1    
    46   22  145 1    
    47   23  146 1    
    48   23  147 1    
    49   23  148 1    
    50   24   25 am   BACKBONE|DICT|INTERRES
    51   24  149 1    
    52   25   26 2    
    53   25   27 1    
    54   27   28 1    
    55   27   29 1    
    56   27  150 1    
    57   28  151 1    
    58   28  152 1    
    59   28  153 1    
    60   29   30 am   BACKBONE|DICT|INTERRES
    61   29  154 1    
    62   30   31 2    
    63   30   32 1    
    64   32   33 1    
    65   32   34 1    
    66   32  155 1    
    67   33  156 1    
    68   33  157 1    
    69   33  158 1    
    70   34   35 am   BACKBONE|DICT|INTERRES
    71   34  159 1    
    72   35   36 2    
    73   35   37 1    
    74   37   38 1    
    75   37   39 1    
    76   37  160 1    
    77   38  161 1    
    78   38  162 1    
    79   38  163 1    
    80   39   40 am   BACKBONE|DICT|INTERRES
    81   39  164 1    
    82   40   41 2    
    83   40   42 1    
    84   42   43 1    
    85   42   44 1    
    86   42  165 1    
    87   43  166 1    
    88   43  167 1    
    89   43  168 1    
    90   44   45 am   BACKBONE|DICT|INTERRES
    91   44  169 1    
    92   45   46 2    
    93   45   47 1    
    94   47   48 1    
    95   47   49 1    
    96   47  170 1    
    97   48  171 1    
    98   48  172 1    
    99   48  173 1    
   100   49   50 am   BACKBONE|DICT|INTERRES
   101   49  174 1    
   102   50   51 2    
   103   50   52 1    
   104   52   53 1    
   105   52   54 1    
   106   52  175 1    
   107   53  176 1    
   108   53  177 1    
   109   53  178 1    
   110   54   55 am   BACKBONE|DICT|INTERRES
   111   54  179 1    
   112   55   56 2    
   113   55   57 1    
   114   57   58 1    
   115   57   59 1    
   116   57  180 1    
   117   58  181 1    
   118   58  182 1    
   119   58  183 1    
   120   59   60 am   BACKBONE|DICT|INTERRES
   121   59  184 1    
   122   60   61 2    
   123   60   62 1    
   124   62   63 1    
   125   62   64 1    
   126   62  185 1    
   127   63  186 1    
   128   63  187 1    
   129   63  188 1    
   130   64   65 am   BACKBONE|DICT|INTERRES
   131   64  189 1    
   132   65   66 2    
   133   67   68 2    
   134   67   69 am   BACKBONE|DICT|INTERRES
   135   69   70 1    
   136   69  190 1    
   137   70   71 1    
   138   70   72 1    
   139   70  191 1    
   140   71  192 1    
   141   71  193 1    
   142   71  194 1    
   143   72   73 2    
   144   72   74 am   BACKBONE|DICT|INTERRES
   145   74   75 1    
   146   74  195 1    
   147   75   76 1    
   148   75   77 1    
   149   75  196 1    
   150   76  197 1    
   151   76  198 1    
   152   76  199 1    
   153   77   78 2    
   154   77   79 am   BACKBONE|DICT|INTERRES
   155   79   80 1    
   156   79  200 1    
   157   80   81 1    
   158   80   82 1    
   159   80  201 1    
   160   81  202 1    
   161   81  203 1    
   162   81  204 1    
   163   82   83 2    
   164   82   84 am   BACKBONE|DICT|INTERRES
   165   84   85 1    
   166   84  205 1    
   167   85   86 1    
   168   85   87 1    
   169   85  206 1    
   170   86  207 1    
   171   86  208 1    
   172   86  209 1    
   173   87   88 2    
   174   87   89 am   BACKBONE|DICT|INTERRES
   175   89   90 1    
   176   89  210 1    
   177   90   91 1    
   178   90   92 1    
   179   90  211 1    
   180   91  212 1    
   181   91  213 1    
   182   91  214 1    
   183   92   93 2    
   184   92   94 am   BACKBONE|DICT|INTERRES
   185   94   95 1    
   186   94  215 1    
   187   95   96 1    
   188   95   97 1    
   189   95  216 1    
   190   96  217 1    
   191   96  218 1    
   192   96  219 1    
   193   97   98 2    
   194   97   99 am   BACKBONE|DICT|INTERRES
   195   99  100 1    
   196   99  220 1    
   197  100  101 1    
   198  100  102 1    
   199  100  221 1    
   200  101  222 1    
   201  101  223 1    
   202  101  224 1    
   203  102  103 2    
   204  102  104 am   BACKBONE|DICT|INTERRES
   205  104  105 1    
   206  104  225 1    
   207  105  106 1    
   208  105  107 1    
   209  105  226 1    
   210  106  227 1    
   211  106  228 1    
   212  106  229 1    
   213  107  108 2    
   214  107  109 am   BACKBONE|DICT|INTERRES
   215  109  110 1    
   216  109  230 1    
   217  110  111 1    
   218  110  112 1    
   219  110  231 1    
   220  111  232 1    
   221  111  233 1    
   222  111  234 1    
   223  112  113 2    
   224  112  114 am   BACKBONE|DICT|INTERRES
   225  114  115 1    
   226  114  235 1    
   227  115  116 1    
   228  115  117 1    
   229  115  236 1    
   230  116  237 1    
   231  116  238 1    
   232  116  239 1    
   233  117  118 2    
   234  117  119 am   BACKBONE|DICT|INTERRES
   235  119  120 1    
   236  119  240 1    
   237  120  121 1    
   238  120  124 1    
   239  120  241 1    
   240  121  122 am   BACKBONE|DICT|INTERRES
   241  121  123 2    
   242  122  242 1    
   243  122  243 1    
   244  124  125 1    
   245  124  244 1    
   246  124  245 1    
   247  125  126 1    
   248  126  246 1    
   249  126  247 1    
@<TRIPOS>SUBSTRUCTURE
     1 UNK         1 GROUP             0       ****    0 ROOT    
