@<TRIPOS>MOLECULE
3R540
247   249    1
SMALL
USER_CHARGES


@<TRIPOS>ATOM
      1 CA          6.2754  -11.8153  -48.6410 C.3       0 UNK        -0.1800 
      2 C           5.1132  -12.7474  -48.3328 C.2       0 UNK         0.5000 
      3 O           4.3217  -13.0519  -49.2244 O.2       0 UNK        -0.5000 
      4 N           4.9991  -13.1851  -47.0709 N.am      1 UNK        -0.5000 
      5 CA          4.0103  -14.1244  -46.5109 C.3       1 UNK         0.1400 
      6 C6          3.9823  -15.5100  -47.2001 C.3       23 UNK        -0.0398 
      7 S7          5.5976  -16.3628  -47.1508 S.3       23 UNK        -0.2404 
      8 C8          6.0247  -16.4772  -48.9192 C.3       23 UNK        -0.0205 
      9 C9          5.0289  -17.3394  -49.6792 C.ar      23 UNK        -0.0193 
     10 C10         4.0518  -16.7437  -50.4798 C.ar      23 UNK        -0.1150 
     11 C11         3.0821  -17.5243  -51.1108 C.ar      23 UNK        -0.0193 
     12 C12         3.1258  -18.9139  -50.9814 C.ar      23 UNK        -0.1150 
     13 C13         4.1083  -19.5290  -50.1943 C.ar      23 UNK        -0.0193 
     14 C14         5.0587  -18.7306  -49.5505 C.ar      23 UNK        -0.1150 
     15 C15         4.1782  -21.0457  -50.0195 C.3       23 UNK        -0.0205 
     16 S16         2.5788  -21.9104  -50.1767 S.3       23 UNK        -0.2404 
     17 C17         1.6293  -21.2176  -48.7770 C.3       23 UNK        -0.0398 
     18 CA          0.8140  -22.3048  -48.0383 C.3       11 UNK         0.1400 
     19 N           0.3937  -21.8699  -46.7039 N.am      11 UNK        -0.5000 
     20 C          -0.1582  -22.6795  -45.7880 C.2       10 UNK         0.5000 
     21 O          -0.3114  -23.8903  -45.9482 O.2       10 UNK        -0.5000 
     22 CA         -0.6774  -22.0200  -44.4996 C.3       10 UNK         0.1400 
     23 CB          0.4616  -21.8414  -43.4855 C.3       10 UNK        -0.1800 
     24 N          -1.3402  -20.7378  -44.7505 N.am      10 UNK        -0.5000 
     25 C          -2.4615  -20.5952  -45.4718 C.2       9 UNK         0.5000 
     26 O          -3.0716  -21.5419  -45.9650 O.2       9 UNK        -0.5000 
     27 CA         -2.9723  -19.1655  -45.7208 C.3       9 UNK         0.1400 
     28 CB         -3.8029  -18.6663  -44.5302 C.3       9 UNK        -0.1800 
     29 N          -1.8917  -18.2205  -45.9910 N.am      9 UNK        -0.5000 
     30 C          -1.1277  -18.2197  -47.0919 C.2       8 UNK         0.5000 
     31 O          -1.2904  -18.9792  -48.0508 O.2       8 UNK        -0.5000 
     32 CA          0.0413  -17.2187  -47.1014 C.3       8 UNK         0.1400 
     33 CB         -0.4382  -15.8119  -47.4848 C.3       8 UNK        -0.1800 
     34 N           0.7299  -17.1505  -45.8122 N.am      8 UNK        -0.5000 
     35 C           1.4242  -18.1572  -45.2643 C.2       7 UNK         0.5000 
     36 O           1.5936  -19.2486  -45.8092 O.2       7 UNK        -0.5000 
     37 CA          1.9831  -17.9100  -43.8502 C.3       7 UNK         0.1400 
     38 CB          3.3067  -17.1337  -43.9071 C.3       7 UNK        -0.1800 
     39 N           1.0411  -17.1890  -42.9916 N.am      7 UNK        -0.5000 
     40 C          -0.1152  -17.6980  -42.5434 C.2       6 UNK         0.5000 
     41 O          -0.5022  -18.8364  -42.7957 O.2       6 UNK        -0.5000 
     42 CA         -1.0138  -16.7624  -41.7162 C.3       6 UNK         0.1400 
     43 CB         -0.5645  -16.7352  -40.2480 C.3       6 UNK        -0.1800 
     44 N          -1.0437  -15.3970  -42.2385 N.am      6 UNK        -0.5000 
     45 C          -1.4760  -15.0416  -43.4540 C.2       5 UNK         0.5000 
     46 O          -1.9156  -15.8429  -44.2784 O.2       5 UNK        -0.5000 
     47 CA         -1.3508  -13.5573  -43.8385 C.3       5 UNK         0.1400 
     48 CB         -2.5483  -12.7362  -43.3272 C.3       5 UNK        -0.1800 
     49 N          -0.0689  -12.9543  -43.4558 N.am      5 UNK        -0.5000 
     50 C           0.4132  -12.6503  -42.2418 C.2       4 UNK         0.5000 
     51 O          -0.1828  -12.8699  -41.1871 O.2       4 UNK        -0.5000 
     52 CA          1.8170  -12.0195  -42.2034 C.3       4 UNK         0.1400 
     53 CB          2.8886  -13.1105  -42.0460 C.3       4 UNK        -0.1800 
     54 N           2.0965  -11.2387  -43.4101 N.am      4 UNK        -0.5000 
     55 C           1.6608   -9.9880  -43.6215 C.2       3 UNK         0.5000 
     56 O           1.0603   -9.3199  -42.7793 O.2       3 UNK        -0.5000 
     57 CA          1.9249   -9.3908  -45.0179 C.3       3 UNK         0.1400 
     58 CB          3.3069   -8.7217  -45.0677 C.3       3 UNK        -0.1800 
     59 N           1.8384  -10.3929  -46.0817 N.am      3 UNK        -0.5000 
     60 C           0.7046  -10.9859  -46.4834 C.2       2 UNK         0.5000 
     61 O          -0.4109  -10.6916  -46.0552 O.2       2 UNK        -0.5000 
     62 CA          0.8433  -12.1300  -47.5058 C.3       2 UNK         0.1400 
     63 CB          0.6189  -11.6190  -48.9360 C.3       2 UNK        -0.1800 
     64 N           2.1392  -12.8097  -47.4404 N.am      2 UNK        -0.5000 
     65 C           2.5831  -13.5449  -46.4144 C.2       1 UNK         0.5000 
     66 O           1.9186  -13.7487  -45.3982 O.2       1 UNK        -0.5000 
     67 C          -0.3817  -22.8026  -48.8814 C.2       11 UNK         0.5000 
     68 O          -0.2639  -23.8315  -49.5476 O.2       11 UNK        -0.5000 
     69 N          -1.5239  -22.1013  -48.7995 N.am      12 UNK        -0.5000 
     70 CA         -2.7778  -22.5245  -49.4237 C.3       12 UNK         0.1400 
     71 CB         -3.8250  -21.4061  -49.3440 C.3       12 UNK        -0.1800 
     72 C          -3.3165  -23.8293  -48.8160 C.2       12 UNK         0.5000 
     73 O          -3.6465  -24.7467  -49.5631 O.2       12 UNK        -0.5000 
     74 N          -3.3552  -23.9154  -47.4788 N.am      13 UNK        -0.5000 
     75 CA         -3.7877  -25.0946  -46.7225 C.3       13 UNK         0.1400 
     76 CB         -3.7568  -24.7861  -45.2188 C.3       13 UNK        -0.1800 
     77 C          -2.9648  -26.3572  -47.0409 C.2       13 UNK         0.5000 
     78 O          -3.5454  -27.4275  -47.2263 O.2       13 UNK        -0.5000 
     79 N          -1.6400  -26.1955  -47.1665 N.am      14 UNK        -0.5000 
     80 CA         -0.6998  -27.2379  -47.5882 C.3       14 UNK         0.1400 
     81 CB          0.7355  -26.7225  -47.4035 C.3       14 UNK        -0.1800 
     82 C          -0.9167  -27.7226  -49.0376 C.2       14 UNK         0.5000 
     83 O          -0.5613  -28.8580  -49.3542 O.2       14 UNK        -0.5000 
     84 N          -1.5216  -26.8746  -49.8779 N.am      15 UNK        -0.5000 
     85 CA         -1.9006  -27.1503  -51.2627 C.3       15 UNK         0.1400 
     86 CB         -1.5178  -25.9331  -52.1224 C.3       15 UNK        -0.1800 
     87 C          -3.3984  -27.5111  -51.3776 C.2       15 UNK         0.5000 
     88 O          -4.0314  -27.1964  -52.3872 O.2       15 UNK        -0.5000 
     89 N          -3.9445  -28.1613  -50.3374 N.am      16 UNK        -0.5000 
     90 CA         -5.3218  -28.6571  -50.2172 C.3       16 UNK         0.1400 
     91 CB         -5.5755  -29.8052  -51.2166 C.3       16 UNK        -0.1800 
     92 C          -6.3802  -27.5365  -50.2999 C.2       16 UNK         0.5000 
     93 O          -7.4191  -27.7069  -50.9389 O.2       16 UNK        -0.5000 
     94 N          -6.0671  -26.4026  -49.6592 N.am      17 UNK        -0.5000 
     95 CA         -6.8101  -25.1373  -49.5971 C.3       17 UNK         0.1400 
     96 CB         -8.2774  -25.3358  -49.1664 C.3       17 UNK        -0.1800 
     97 C          -6.6855  -24.2655  -50.8627 C.2       17 UNK         0.5000 
     98 O          -7.1682  -23.1316  -50.8398 O.2       17 UNK        -0.5000 
     99 N          -6.0156  -24.7718  -51.9122 N.am      18 UNK        -0.5000 
    100 CA        -5.7101  -24.1132  -53.1859 C.3       18 UNK         0.1400 
    101 CB        -4.5423  -23.1208  -52.9835 C.3       18 UNK        -0.1800 
    102 C         -6.9666  -23.4829  -53.8259 C.2       18 UNK         0.5000 
    103 O         -7.8884  -24.2100  -54.2004 O.2       18 UNK        -0.5000 
    104 N         -6.9963  -22.1492  -53.8870 N.am      19 UNK        -0.5000 
    105 CA        -8.1703  -21.3288  -54.1627 C.3       19 UNK         0.1400 
    106 CB        -8.1382  -20.8548  -55.6275 C.3       19 UNK        -0.1800 
    107 C         -8.1764  -20.1771  -53.1409 C.2       19 UNK         0.5000 
    108 O         -8.3258  -19.0140  -53.5194 O.2       19 UNK        -0.5000 
    109 N         -7.9485  -20.5370  -51.8669 N.am      20 UNK        -0.5000 
    110 CA        -7.5914  -19.6745  -50.7366 C.3       20 UNK         0.1400 
    111 CB        -8.6640  -18.5938  -50.4755 C.3       20 UNK        -0.1800 
    112 C         -6.1654  -19.1001  -50.8886 C.2       20 UNK         0.5000 
    113 O         -5.4062  -19.5446  -51.7545 O.2       20 UNK        -0.5000 
    114 N         -5.8058  -18.1548  -50.0103 N.am      21 UNK        -0.5000 
    115 CA        -4.5187  -17.4562  -50.0164 C.3       21 UNK         0.1400 
    116 CB        -4.4205  -16.6057  -48.7387 C.3       21 UNK        -0.1800 
    117 C         -4.3474  -16.5731  -51.2771 C.2       21 UNK         0.5000 
    118 O         -5.3468  -16.0632  -51.7862 O.2       21 UNK        -0.5000 
    119 N         -3.1275  -16.3249  -51.7716 N.am      22 UNK        -0.5000 
    120 CA        -1.8335  -16.8520  -51.3173 C.3       22 UNK         0.1400 
    121 C         -1.5880  -18.3024  -51.8162 C.2       22 UNK         0.5000 
    122 N         -1.2636  -19.2324  -50.9276 N.am      22 UNK        -0.7600 
    123 O         -1.6585  -18.5784  -53.0109 O.2       22 UNK        -0.5000 
    124 C124       -0.6942  -15.8969  -51.7605 C.3       23 UNK        -0.0398 
    125 S125        0.7957  -16.0698  -50.7300 S.3       23 UNK        -0.2404 
    126 C126        1.9554  -16.8628  -51.8839 C.3       23 UNK        -0.0205 
    127 H127        5.9023  -10.8600  -49.0100 H         1 UNK         0.0600 
    128 H128        6.9121  -12.2539  -49.4093 H         1 UNK         0.0600 
    129 H129        6.8882  -11.6244  -47.7597 H         1 UNK         0.0600 
    130 H130        5.6879  -12.8690  -46.4023 H         1 UNK         0.3000 
    131 H131        4.3313  -14.2855  -45.4805 H         1 UNK         0.0600 
    132 H132        3.6317  -15.4078  -48.2251 H         1 UNK         0.0800 
    133 H133        3.2608  -16.1665  -46.7145 H         1 UNK         0.0800 
    134 H134        7.0237  -16.9042  -49.0169 H         1 UNK         0.0800 
    135 H135        6.0764  -15.4752  -49.3474 H         1 UNK         0.0800 
    136 H136        4.0119  -15.6668  -50.5726 H         1 UNK         0.1150 
    137 H137        2.3758  -19.5095  -51.4810 H         1 UNK         0.1150 
    138 H138        5.8153  -19.1894  -48.9291 H         1 UNK         0.1150 
    139 H139        4.8615  -21.4452  -50.7696 H         1 UNK         0.0800 
    140 H140        4.6081  -21.2926  -49.0474 H         1 UNK         0.0800 
    141 H141        0.9879  -20.4108  -49.1362 H         1 UNK         0.0800 
    142 H142        2.3312  -20.7532  -48.0825 H         1 UNK         0.0800 
    143 H143        1.4728  -23.1622  -47.8822 H         1 UNK         0.0600 
    144 H144        0.5338  -20.8920  -46.4716 H         1 UNK         0.3000 
    145 H145       -1.4155  -22.6923  -44.0582 H         1 UNK         0.0600 
    146 H146        0.0852  -21.4737  -42.5310 H         1 UNK         0.0600 
    147 H147        0.9632  -22.7902  -43.2907 H         1 UNK         0.0600 
    148 H148        1.2145  -21.1397  -43.8435 H         1 UNK         0.0600 
    149 H149       -0.9356  -19.9228  -44.2983 H         1 UNK         0.3000 
    150 H150       -3.6209  -19.1956  -46.5986 H         1 UNK         0.0600 
    151 H151       -4.6338  -19.3416  -44.3224 H         1 UNK         0.0600 
    152 H152       -4.2249  -17.6814  -44.7310 H         1 UNK         0.0600 
    153 H153       -3.2025  -18.5930  -43.6229 H         1 UNK         0.0600 
    154 H154       -1.7234  -17.5123  -45.2823 H         1 UNK         0.3000 
    155 H155        0.7563  -17.5555  -47.8555 H         1 UNK         0.0600 
    156 H156       -1.0313  -15.3487  -46.6978 H         1 UNK         0.0600 
    157 H157       -1.0540  -15.8288  -48.3815 H         1 UNK         0.0600 
    158 H158        0.4112  -15.1645  -47.6949 H         1 UNK         0.0600 
    159 H159        0.6163  -16.2988  -45.2826 H         1 UNK         0.3000 
    160 H160        2.1813  -18.8842  -43.3986 H         1 UNK         0.0600 
    161 H161        3.1592  -16.1126  -44.2579 H         1 UNK         0.0600 
    162 H162        4.0181  -17.6170  -44.5781 H         1 UNK         0.0600 
    163 H163        3.7733  -17.0819  -42.9233 H         1 UNK         0.0600 
    164 H164        1.2774  -16.2400  -42.7442 H         1 UNK         0.3000 
    165 H165       -2.0309  -17.1572  -41.7572 H         1 UNK         0.0600 
    166 H166       -1.2464  -16.1415  -39.6389 H         1 UNK         0.0600 
    167 H167       -0.5449  -17.7412  -39.8266 H         1 UNK         0.0600 
    168 H168        0.4353  -16.3127  -40.1396 H         1 UNK         0.0600 
    169 H169       -0.7125  -14.6554  -41.6280 H         1 UNK         0.3000 
    170 H170       -1.3733  -13.5161  -44.9286 H         1 UNK         0.0600 
    171 H171       -3.4850  -13.1330  -43.7203 H         1 UNK         0.0600 
    172 H172       -2.6217  -12.7491  -42.2396 H         1 UNK         0.0600 
    173 H173       -2.4752  -11.6967  -43.6475 H         1 UNK         0.0600 
    174 H174        0.5768  -12.8415  -44.2292 H         1 UNK         0.3000 
    175 H175        1.8673  -11.3637  -41.3315 H         1 UNK         0.0600 
    176 H176        2.8862  -13.8086  -42.8834 H         1 UNK         0.0600 
    177 H177        3.8856  -12.6753  -41.9759 H         1 UNK         0.0600 
    178 H178        2.7237  -13.6902  -41.1368 H         1 UNK         0.0600 
    179 H179        2.5642  -11.7221  -44.1621 H         1 UNK         0.3000 
    180 H180        1.1672   -8.6265  -45.2034 H         1 UNK         0.0600 
    181 H181        4.1108   -9.4415  -44.9081 H         1 UNK         0.0600 
    182 H182        3.3962   -7.9538  -44.2981 H         1 UNK         0.0600 
    183 H183        3.4758   -8.2371  -46.0295 H         1 UNK         0.0600 
    184 H184        2.7062  -10.6869  -46.5045 H         1 UNK         0.3000 
    185 H185        0.0638  -12.8590  -47.2781 H         1 UNK         0.0600 
    186 H186       -0.3481  -11.1227  -49.0278 H         1 UNK         0.0600 
    187 H187        1.3870  -10.9035  -49.2323 H         1 UNK         0.0600 
    188 H188        0.6313  -12.4409  -49.6526 H         1 UNK         0.0600 
    189 H189        2.7511  -12.7231  -48.2483 H         1 UNK         0.3000 
    190 H190       -1.5520  -21.2669  -48.2278 H         1 UNK         0.3000 
    191 H191       -2.5764  -22.7139  -50.4800 H         1 UNK         0.0600 
    192 H192       -4.0441  -21.1130  -48.3188 H         1 UNK         0.0600 
    193 H193       -4.7641  -21.7207  -49.8009 H         1 UNK         0.0600 
    194 H194       -3.4875  -20.5218  -49.8801 H         1 UNK         0.0600 
    195 H195       -3.1013  -23.0944  -46.9325 H         1 UNK         0.3000 
    196 H196       -4.8230  -25.2989  -47.0003 H         1 UNK         0.0600 
    197 H197       -4.1273  -25.6325  -44.6393 H         1 UNK         0.0600 
    198 H198       -4.3839  -23.9273  -44.9789 H         1 UNK         0.0600 
    199 H199       -2.7464  -24.5697  -44.8730 H         1 UNK         0.0600 
    200 H200       -1.2389  -25.2869  -46.9494 H         1 UNK         0.3000 
    201 H201       -0.8407  -28.0987  -46.9316 H         1 UNK         0.0600 
    202 H202        0.9277  -26.4547  -46.3644 H         1 UNK         0.0600 
    203 H203        0.9267  -25.8411  -48.0166 H         1 UNK         0.0600 
    204 H204        1.4651  -27.4833  -47.6837 H         1 UNK         0.0600 
    205 H205       -1.8106  -25.9704  -49.5243 H         1 UNK         0.3000 
    206 H206       -1.3426  -28.0098  -51.6387 H         1 UNK         0.0600 
    207 H207       -0.4463  -25.7398  -52.0703 H         1 UNK         0.0600 
    208 H208       -1.7685  -26.0884  -53.1723 H         1 UNK         0.0600 
    209 H209       -2.0300  -25.0328  -51.7855 H         1 UNK         0.0600 
    210 H210       -3.3571  -28.3208  -49.5298 H         1 UNK         0.3000 
    211 H211       -5.4059  -29.0739  -49.2124 H         1 UNK         0.0600 
    212 H212       -5.5579  -29.4557  -52.2493 H         1 UNK         0.0600 
    213 H213       -6.5490  -30.2657  -51.0443 H         1 UNK         0.0600 
    214 H214       -4.8251  -30.5891  -51.1150 H         1 UNK         0.0600 
    215 H215       -5.1342  -26.3477  -49.2680 H         1 UNK         0.3000 
    216 H216       -6.3289  -24.5628  -48.8052 H         1 UNK         0.0600 
    217 H217       -8.7446  -24.3781  -48.9339 H         1 UNK         0.0600 
    218 H218       -8.3482  -25.9560  -48.2729 H         1 UNK         0.0600 
    219 H219       -8.8751  -25.8004  -49.9506 H         1 UNK         0.0600 
    220 H220       -5.6487  -25.7108  -51.8229 H         1 UNK         0.3000 
    221 H221       -5.3713  -24.8936  -53.8686 H         1 UNK         0.0600 
    222 H222       -4.7848  -22.3365  -52.2654 H         1 UNK         0.0600 
    223 H223       -3.6592  -23.6376  -52.6123 H         1 UNK         0.0600 
    224 H224       -4.2593  -22.6430  -53.9222 H         1 UNK         0.0600 
    225 H225       -6.2013  -21.6408  -53.5211 H         1 UNK         0.3000 
    226 H226       -9.0836  -21.9045  -53.9986 H         1 UNK         0.0600 
    227 H227       -8.1322  -21.7016  -56.3140 H         1 UNK         0.0600 
    228 H228       -9.0159  -20.2518  -55.8630 H         1 UNK         0.0600 
    229 H229       -7.2547  -20.2497  -55.8341 H         1 UNK         0.0600 
    230 H230       -7.7964  -21.5260  -51.6812 H         1 UNK         0.3000 
    231 H231       -7.5641  -20.3323  -49.8667 H         1 UNK         0.0600 
    232 H232       -8.5353  -18.1389  -49.4931 H         1 UNK         0.0600 
    233 H233       -9.6670  -19.0200  -50.4995 H         1 UNK         0.0600 
    234 H234       -8.6228  -17.7916  -51.2130 H         1 UNK         0.0600 
    235 H235       -6.4892  -17.8252  -49.3454 H         1 UNK         0.3000 
    236 H236       -3.7421  -18.2179  -49.9848 H         1 UNK         0.0600 
    237 H237       -5.2159  -15.8609  -48.6911 H         1 UNK         0.0600 
    238 H238       -4.4874  -17.2253  -47.8445 H         1 UNK         0.0600 
    239 H239       -3.4729  -16.0701  -48.6882 H         1 UNK         0.0600 
    240 H240       -3.0764  -15.7638  -52.6083 H         1 UNK         0.3000 
    241 H241       -1.8485  -16.8644  -50.2285 H         1 UNK         0.0600 
    242 H242       -1.0908  -20.1663  -51.2600 H         1 UNK         0.3800 
    243 H243       -1.2137  -19.0422  -49.9303 H         1 UNK         0.3800 
    244 H244       -0.4511  -16.0193  -52.8177 H         1 UNK         0.0800 
    245 H245       -1.0157  -14.8600  -51.6508 H         1 UNK         0.0800 
    246 H246        2.3585  -16.1174  -52.5708 H         1 UNK         0.0800 
    247 H247        1.4276  -17.6001  -52.4910 H         1 UNK         0.0800 
@<TRIPOS>BOND
     1    1    2 1    
     2    1  127 1    
     3    1  128 1    
     4    1  129 1    
     5    2    3 2    
     6    2    4 am   BACKBONE|DICT|INTERRES
     7    4    5 1    
     8    4  130 1    
     9    5    6 1    
    10    5   65 1    
    11    5  131 1    
    12    6    7 1    
    13    6  132 1    
    14    6  133 1    
    15    7    8 1    
    16    8    9 1    
    17    8  134 1    
    18    8  135 1    
    19    9   10 ar   
    20    9   14 ar   
    21   10   11 ar   
    22   10  136 1    
    23   11   12 ar   
    24   11  126 1    
    25   12   13 ar   
    26   12  137 1    
    27   13   14 ar   
    28   13   15 1    
    29   14  138 1    
    30   15   16 1    
    31   15  139 1    
    32   15  140 1    
    33   16   17 1    
    34   17   18 1    
    35   17  141 1    
    36   17  142 1    
    37   18   19 1    
    38   18   67 1    
    39   18  143 1    
    40   19   20 am   BACKBONE|DICT|INTERRES
    41   19  144 1    
    42   20   21 2    
    43   20   22 1    
    44   22   23 1    
    45   22   24 1    
    46   22  145 1    
    47   23  146 1    
    48   23  147 1    
    49   23  148 1    
    50   24   25 am   BACKBONE|DICT|INTERRES
    51   24  149 1    
    52   25   26 2    
    53   25   27 1    
    54   27   28 1    
    55   27   29 1    
    56   27  150 1    
    57   28  151 1    
    58   28  152 1    
    59   28  153 1    
    60   29   30 am   BACKBONE|DICT|INTERRES
    61   29  154 1    
    62   30   31 2    
    63   30   32 1    
    64   32   33 1    
    65   32   34 1    
    66   32  155 1    
    67   33  156 1    
    68   33  157 1    
    69   33  158 1    
    70   34   35 am   BACKBONE|DICT|INTERRES
    71   34  159 1    
    72   35   36 2    
    73   35   37 1    
    74   37   38 1    
    75   37   39 1    
    76   37  160 1    
    77   38  161 1    
    78   38  162 1    
    79   38  163 1    
    80   39   40 am   BACKBONE|DICT|INTERRES
    81   39  164 1    
    82   40   41 2    
    83   40   42 1    
    84   42   43 1    
    85   42   44 1    
    86   42  165 1    
    87   43  166 1    
    88   43  167 1    
    89   43  168 1    
    90   44   45 am   BACKBONE|DICT|INTERRES
    91   44  169 1    
    92   45   46 2    
    93   45   47 1    
    94   47   48 1    
    95   47   49 1    
    96   47  170 1    
    97   48  171 1    
    98   48  172 1    
    99   48  173 1    
   100   49   50 am   BACKBONE|DICT|INTERRES
   101   49  174 1    
   102   50   51 2    
   103   50   52 1    
   104   52   53 1    
   105   52   54 1    
   106   52  175 1    
   107   53  176 1    
   108   53  177 1    
   109   53  178 1    
   110   54   55 am   BACKBONE|DICT|INTERRES
   111   54  179 1    
   112   55   56 2    
   113   55   57 1    
   114   57   58 1    
   115   57   59 1    
   116   57  180 1    
   117   58  181 1    
   118   58  182 1    
   119   58  183 1    
   120   59   60 am   BACKBONE|DICT|INTERRES
   121   59  184 1    
   122   60   61 2    
   123   60   62 1    
   124   62   63 1    
   125   62   64 1    
   126   62  185 1    
   127   63  186 1    
   128   63  187 1    
   129   63  188 1    
   130   64   65 am   BACKBONE|DICT|INTERRES
   131   64  189 1    
   132   65   66 2    
   133   67   68 2    
   134   67   69 am   BACKBONE|DICT|INTERRES
   135   69   70 1    
   136   69  190 1    
   137   70   71 1    
   138   70   72 1    
   139   70  191 1    
   140   71  192 1    
   141   71  193 1    
   142   71  194 1    
   143   72   73 2    
   144   72   74 am   BACKBONE|DICT|INTERRES
   145   74   75 1    
   146   74  195 1    
   147   75   76 1    
   148   75   77 1    
   149   75  196 1    
   150   76  197 1    
   151   76  198 1    
   152   76  199 1    
   153   77   78 2    
   154   77   79 am   BACKBONE|DICT|INTERRES
   155   79   80 1    
   156   79  200 1    
   157   80   81 1    
   158   80   82 1    
   159   80  201 1    
   160   81  202 1    
   161   81  203 1    
   162   81  204 1    
   163   82   83 2    
   164   82   84 am   BACKBONE|DICT|INTERRES
   165   84   85 1    
   166   84  205 1    
   167   85   86 1    
   168   85   87 1    
   169   85  206 1    
   170   86  207 1    
   171   86  208 1    
   172   86  209 1    
   173   87   88 2    
   174   87   89 am   BACKBONE|DICT|INTERRES
   175   89   90 1    
   176   89  210 1    
   177   90   91 1    
   178   90   92 1    
   179   90  211 1    
   180   91  212 1    
   181   91  213 1    
   182   91  214 1    
   183   92   93 2    
   184   92   94 am   BACKBONE|DICT|INTERRES
   185   94   95 1    
   186   94  215 1    
   187   95   96 1    
   188   95   97 1    
   189   95  216 1    
   190   96  217 1    
   191   96  218 1    
   192   96  219 1    
   193   97   98 2    
   194   97   99 am   BACKBONE|DICT|INTERRES
   195   99  100 1    
   196   99  220 1    
   197  100  101 1    
   198  100  102 1    
   199  100  221 1    
   200  101  222 1    
   201  101  223 1    
   202  101  224 1    
   203  102  103 2    
   204  102  104 am   BACKBONE|DICT|INTERRES
   205  104  105 1    
   206  104  225 1    
   207  105  106 1    
   208  105  107 1    
   209  105  226 1    
   210  106  227 1    
   211  106  228 1    
   212  106  229 1    
   213  107  108 2    
   214  107  109 am   BACKBONE|DICT|INTERRES
   215  109  110 1    
   216  109  230 1    
   217  110  111 1    
   218  110  112 1    
   219  110  231 1    
   220  111  232 1    
   221  111  233 1    
   222  111  234 1    
   223  112  113 2    
   224  112  114 am   BACKBONE|DICT|INTERRES
   225  114  115 1    
   226  114  235 1    
   227  115  116 1    
   228  115  117 1    
   229  115  236 1    
   230  116  237 1    
   231  116  238 1    
   232  116  239 1    
   233  117  118 2    
   234  117  119 am   BACKBONE|DICT|INTERRES
   235  119  120 1    
   236  119  240 1    
   237  120  121 1    
   238  120  124 1    
   239  120  241 1    
   240  121  122 am   BACKBONE|DICT|INTERRES
   241  121  123 2    
   242  122  242 1    
   243  122  243 1    
   244  124  125 1    
   245  124  244 1    
   246  124  245 1    
   247  125  126 1    
   248  126  246 1    
   249  126  247 1    
@<TRIPOS>SUBSTRUCTURE
     1 UNK         1 GROUP             0       ****    0 ROOT    
