@<TRIPOS>MOLECULE
3R540
247   249    1
SMALL
USER_CHARGES


@<TRIPOS>ATOM
      1 CA         -2.7354  -13.7778  -44.5811 C.3       0 UNK        -0.1800 
      2 C          -3.5483  -12.4894  -44.6468 C.2       0 UNK         0.5000 
      3 O          -4.1653  -12.1247  -43.6476 O.2       0 UNK        -0.5000 
      4 N          -3.6087  -11.7676  -45.7752 N.am      1 UNK        -0.5000 
      5 CA         -2.9289  -11.9653  -47.0637 C.3       1 UNK         0.1400 
      6 C6         -3.2323  -13.3424  -47.7475 C.3       23 UNK        -0.0398 
      7 S7         -1.8840  -14.5796  -47.8290 S.3       23 UNK        -0.2404 
      8 C8         -2.4680  -15.6852  -49.1486 C.3       23 UNK        -0.0205 
      9 C9         -1.2921  -16.3375  -49.8562 C.ar      23 UNK        -0.0193 
     10 C10        -0.6571  -15.6651  -50.9029 C.ar      23 UNK        -0.1150 
     11 C11         0.4576  -16.2233  -51.5321 C.ar      23 UNK        -0.0193 
     12 C12         0.9190  -17.4786  -51.1244 C.ar      23 UNK        -0.1150 
     13 C13         0.2931  -18.1659  -50.0785 C.ar      23 UNK        -0.0193 
     14 C14        -0.8133  -17.5859  -49.4472 C.ar      23 UNK        -0.1150 
     15 C15         0.8779  -19.4846  -49.5842 C.3       23 UNK        -0.0205 
     16 S16        -0.2316  -20.9138  -49.8016 S.3       23 UNK        -0.2404 
     17 C17        -1.2086  -20.9166  -48.2582 C.3       23 UNK        -0.0398 
     18 CA         -1.1214  -22.2685  -47.4955 C.3       11 UNK         0.1400 
     19 N          -0.1169  -22.2577  -46.4241 N.am      11 UNK        -0.5000 
     20 C           0.2479  -23.3316  -45.7065 C.2       10 UNK         0.5000 
     21 O          -0.1702  -24.4684  -45.9221 O.2       10 UNK        -0.5000 
     22 CA          1.1901  -23.0946  -44.5105 C.3       10 UNK         0.1400 
     23 CB          2.6544  -22.9939  -44.9630 C.3       10 UNK        -0.1800 
     24 N           0.8198  -21.9125  -43.7297 N.am      10 UNK        -0.5000 
     25 C          -0.3199  -21.7995  -43.0320 C.2       9 UNK         0.5000 
     26 O          -1.1460  -22.7053  -42.9281 O.2       9 UNK        -0.5000 
     27 CA         -0.6200  -20.4346  -42.3851 C.3       9 UNK         0.1400 
     28 CB          0.0799  -20.3011  -41.0248 C.3       9 UNK        -0.1800 
     29 N          -0.2554  -19.3090  -43.2450 N.am      9 UNK        -0.5000 
     30 C          -0.8063  -19.0613  -44.4424 C.2       8 UNK         0.5000 
     31 O          -1.7216  -19.7248  -44.9285 O.2       8 UNK        -0.5000 
     32 CA         -0.1906  -17.9153  -45.2622 C.3       8 UNK         0.1400 
     33 CB         -0.7322  -16.5673  -44.7749 C.3       8 UNK        -0.1800 
     34 N           1.2738  -17.9224  -45.2258 N.am      8 UNK        -0.5000 
     35 C           2.0335  -18.9381  -45.6595 C.2       7 UNK         0.5000 
     36 O           1.5745  -19.9488  -46.1884 O.2       7 UNK        -0.5000 
     37 CA          3.5437  -18.8604  -45.3799 C.3       7 UNK         0.1400 
     38 CB          4.3134  -18.0876  -46.4606 C.3       7 UNK        -0.1800 
     39 N           3.8272  -18.3122  -44.0532 N.am      7 UNK        -0.5000 
     40 C           3.6063  -19.0002  -42.9256 C.2       6 UNK         0.5000 
     41 O           3.1394  -20.1398  -42.9054 O.2       6 UNK        -0.5000 
     42 CA          3.9610  -18.3100  -41.5993 C.3       6 UNK         0.1400 
     43 CB          5.4735  -18.3844  -41.3400 C.3       6 UNK        -0.1800 
     44 N           3.5198  -16.9180  -41.4898 N.am      6 UNK        -0.5000 
     45 C           2.2404  -16.5174  -41.4756 C.2       5 UNK         0.5000 
     46 O           1.2900  -17.2342  -41.7875 O.2       5 UNK        -0.5000 
     47 CA          1.9831  -15.0766  -40.9977 C.3       5 UNK         0.1400 
     48 CB          2.1545  -14.9883  -39.4729 C.3       5 UNK        -0.1800 
     49 N           2.8984  -14.1253  -41.6331 N.am      5 UNK        -0.5000 
     50 C           2.7094  -13.4417  -42.7709 C.2       4 UNK         0.5000 
     51 O           3.5916  -12.7123  -43.2259 O.2       4 UNK        -0.5000 
     52 CA          1.3438  -13.5035  -43.4988 C.3       4 UNK         0.1400 
     53 CB          0.4570  -12.3374  -43.0361 C.3       4 UNK        -0.1800 
     54 N           1.4703  -13.4683  -44.9559 N.am      4 UNK        -0.5000 
     55 C           2.1173  -14.3964  -45.6755 C.2       3 UNK         0.5000 
     56 O           2.6458  -15.3842  -45.1615 O.2       3 UNK        -0.5000 
     57 CA          2.1459  -14.2408  -47.2111 C.3       3 UNK         0.1400 
     58 CB          1.7453  -15.5482  -47.9137 C.3       3 UNK        -0.1800 
     59 N           1.2689  -13.1768  -47.7008 N.am      3 UNK        -0.5000 
     60 C           1.6175  -11.8932  -47.8503 C.2       2 UNK         0.5000 
     61 O           2.7314  -11.4521  -47.5670 O.2       2 UNK        -0.5000 
     62 CA          0.5442  -10.9356  -48.4083 C.3       2 UNK         0.1400 
     63 CB          0.7754  -10.6974  -49.9087 C.3       2 UNK        -0.1800 
     64 N          -0.8369  -11.3905  -48.2133 N.am      2 UNK        -0.5000 
     65 C          -1.4458  -11.5178  -47.0263 C.2       1 UNK         0.5000 
     66 O          -0.8827  -11.2849  -45.9543 O.2       1 UNK        -0.5000 
     67 C          -2.5092  -22.6961  -46.9703 C.2       11 UNK         0.5000 
     68 O          -3.1708  -23.5127  -47.6120 O.2       11 UNK        -0.5000 
     69 N          -2.9196  -22.1623  -45.8112 N.am      12 UNK        -0.5000 
     70 CA         -4.1655  -22.5162  -45.1295 C.3       12 UNK         0.1400 
     71 CB         -4.3930  -21.5824  -43.9318 C.3       12 UNK        -0.1800 
     72 C          -4.2024  -23.9938  -44.7004 C.2       12 UNK         0.5000 
     73 O          -5.1822  -24.6813  -44.9928 O.2       12 UNK        -0.5000 
     74 N          -3.1141  -24.4642  -44.0721 N.am      13 UNK        -0.5000 
     75 CA         -2.9130  -25.8522  -43.6438 C.3       13 UNK         0.1400 
     76 CB         -1.6140  -25.9530  -42.8307 C.3       13 UNK        -0.1800 
     77 C          -2.9002  -26.8624  -44.8072 C.2       13 UNK         0.5000 
     78 O          -3.3311  -28.0011  -44.6259 O.2       13 UNK        -0.5000 
     79 N          -2.4677  -26.4152  -45.9929 N.am      14 UNK        -0.5000 
     80 CA         -2.5062  -27.1480  -47.2602 C.3       14 UNK         0.1400 
     81 CB         -1.3890  -26.6099  -48.1711 C.3       14 UNK        -0.1800 
     82 C          -3.8937  -27.1168  -47.9473 C.2       14 UNK         0.5000 
     83 O          -3.9698  -27.2762  -49.1660 O.2       14 UNK        -0.5000 
     84 N          -4.9628  -26.9301  -47.1586 N.am      15 UNK        -0.5000 
     85 CA         -6.3759  -26.8866  -47.5428 C.3       15 UNK         0.1400 
     86 CB         -6.8365  -28.2375  -48.1309 C.3       15 UNK        -0.1800 
     87 C          -6.7026  -25.6792  -48.4417 C.2       15 UNK         0.5000 
     88 O          -7.3402  -25.8355  -49.4848 O.2       15 UNK        -0.5000 
     89 N          -6.2586  -24.4938  -47.9972 N.am      16 UNK        -0.5000 
     90 CA         -6.4291  -23.1871  -48.6434 C.3       16 UNK         0.1400 
     91 CB         -7.9112  -22.7592  -48.6388 C.3       16 UNK        -0.1800 
     92 C          -5.7841  -23.1355  -50.0431 C.2       16 UNK         0.5000 
     93 O          -6.4265  -22.7542  -51.0237 O.2       16 UNK        -0.5000 
     94 N          -4.5002  -23.5109  -50.0979 N.am      17 UNK        -0.5000 
     95 CA         -3.6769  -23.5617  -51.3079 C.3       17 UNK         0.1400 
     96 CB         -2.3824  -24.3277  -51.0024 C.3       17 UNK        -0.1800 
     97 C          -3.3520  -22.1820  -51.9110 C.2       17 UNK         0.5000 
     98 O          -2.8772  -22.1277  -53.0446 O.2       17 UNK        -0.5000 
     99 N          -3.6331  -21.0969  -51.1732 N.am      18 UNK        -0.5000 
    100 CA        -3.4344  -19.6990  -51.5691 C.3       18 UNK         0.1400 
    101 CB        -4.0070  -18.7846  -50.4767 C.3       18 UNK        -0.1800 
    102 C         -4.0639  -19.3419  -52.9277 C.2       18 UNK         0.5000 
    103 O         -3.4562  -18.6086  -53.7081 O.2       18 UNK        -0.5000 
    104 N         -5.2479  -19.9076  -53.2008 N.am      19 UNK        -0.5000 
    105 CA        -5.9929  -19.7439  -54.4498 C.3       19 UNK         0.1400 
    106 CB        -7.3945  -20.3467  -54.2713 C.3       19 UNK        -0.1800 
    107 C         -5.2938  -20.3607  -55.6781 C.2       19 UNK         0.5000 
    108 O         -5.5159  -19.8881  -56.7932 O.2       19 UNK        -0.5000 
    109 N         -4.4668  -21.3909  -55.4577 N.am      20 UNK        -0.5000 
    110 CA        -3.6483  -22.0281  -56.4870 C.3       20 UNK         0.1400 
    111 CB        -3.5510  -23.5346  -56.1975 C.3       20 UNK        -0.1800 
    112 C         -2.2480  -21.3959  -56.5519 C.2       20 UNK         0.5000 
    113 O         -1.7140  -21.2233  -57.6481 O.2       20 UNK        -0.5000 
    114 N         -1.6785  -21.0723  -55.3819 N.am      21 UNK        -0.5000 
    115 CA        -0.3437  -20.4986  -55.2244 C.3       21 UNK         0.1400 
    116 CB         0.0479  -20.5072  -53.7370 C.3       21 UNK        -0.1800 
    117 C         -0.2234  -19.0820  -55.8102 C.2       21 UNK         0.5000 
    118 O          0.7068  -18.8262  -56.5771 O.2       21 UNK        -0.5000 
    119 N         -1.1583  -18.1990  -55.4386 N.am      22 UNK        -0.5000 
    120 CA        -1.1718  -16.7774  -55.8225 C.3       22 UNK         0.1400 
    121 C         -2.5600  -16.2922  -56.3200 C.2       22 UNK         0.5000 
    122 N         -3.6675  -16.8855  -55.8951 N.am      22 UNK        -0.7600 
    123 O         -2.6337  -15.3639  -57.1207 O.2       22 UNK        -0.5000 
    124 C124       -0.6560  -15.8621  -54.6809 C.3       23 UNK        -0.0398 
    125 S125        1.0880  -16.1846  -54.2491 S.3       23 UNK        -0.2404 
    126 C126        1.2070  -15.4352  -52.5975 C.3       23 UNK        -0.0205 
    127 H127       -3.2812  -14.5924  -45.0557 H         1 UNK         0.0600 
    128 H128       -1.7671  -13.6718  -45.0657 H         1 UNK         0.0600 
    129 H129       -2.5501  -14.0596  -43.5445 H         1 UNK         0.0600 
    130 H130       -4.1504  -10.9158  -45.7368 H         1 UNK         0.3000 
    131 H131       -3.4078  -11.2131  -47.6932 H         1 UNK         0.0600 
    132 H132       -3.5321  -13.1402  -48.7765 H         1 UNK         0.0800 
    133 H133       -4.1059  -13.8151  -47.2972 H         1 UNK         0.0800 
    134 H134       -3.0648  -15.1333  -49.8759 H         1 UNK         0.0800 
    135 H135       -3.1263  -16.4394  -48.7158 H         1 UNK         0.0800 
    136 H136       -1.0120  -14.6892  -51.2026 H         1 UNK         0.1150 
    137 H137        1.7904  -17.9022  -51.6035 H         1 UNK         0.1150 
    138 H138       -1.2907  -18.0896  -48.6215 H         1 UNK         0.1150 
    139 H139        1.8053  -19.7044  -50.1148 H         1 UNK         0.0800 
    140 H140        1.1574  -19.3765  -48.5407 H         1 UNK         0.0800 
    141 H141       -2.2320  -20.6841  -48.5547 H         1 UNK         0.0800 
    142 H142       -0.9022  -20.0963  -47.6102 H         1 UNK         0.0800 
    143 H143       -0.8175  -23.0481  -48.1966 H         1 UNK         0.0600 
    144 H144        0.3276  -21.3663  -46.2182 H         1 UNK         0.3000 
    145 H145        1.1079  -23.9609  -43.8508 H         1 UNK         0.0600 
    146 H146        3.3213  -22.8513  -44.1125 H         1 UNK         0.0600 
    147 H147        2.9654  -23.9069  -45.4719 H         1 UNK         0.0600 
    148 H148        2.8130  -22.1673  -45.6542 H         1 UNK         0.0600 
    149 H149        1.4705  -21.1351  -43.7349 H         1 UNK         0.3000 
    150 H150       -1.6969  -20.3812  -42.2140 H         1 UNK         0.0600 
    151 H151       -0.2038  -21.1169  -40.3588 H         1 UNK         0.0600 
    152 H152       -0.1934  -19.3682  -40.5316 H         1 UNK         0.0600 
    153 H153        1.1650  -20.3204  -41.1234 H         1 UNK         0.0600 
    154 H154        0.4658  -18.6841  -42.8977 H         1 UNK         0.3000 
    155 H155       -0.4958  -18.0450  -46.3017 H         1 UNK         0.0600 
    156 H156       -0.4265  -16.3544  -43.7511 H         1 UNK         0.0600 
    157 H157       -1.8222  -16.5621  -44.7986 H         1 UNK         0.0600 
    158 H158       -0.3953  -15.7514  -45.4104 H         1 UNK         0.0600 
    159 H159        1.7366  -17.1029  -44.8461 H         1 UNK         0.3000 
    160 H160        3.9158  -19.8870  -45.4078 H         1 UNK         0.0600 
    161 H161        4.1813  -17.0115  -46.3722 H         1 UNK         0.0600 
    162 H162        3.9946  -18.3840  -47.4609 H         1 UNK         0.0600 
    163 H163        5.3823  -18.2887  -46.3897 H         1 UNK         0.0600 
    164 H164        4.1606  -17.3599  -44.0018 H         1 UNK         0.3000 
    165 H165        3.4608  -18.8694  -40.8056 H         1 UNK         0.0600 
    166 H166        5.7224  -18.0130  -40.3457 H         1 UNK         0.0600 
    167 H167        5.8304  -19.4136  -41.3986 H         1 UNK         0.0600 
    168 H168        6.0370  -17.7997  -42.0681 H         1 UNK         0.0600 
    169 H169        4.2344  -16.2456  -41.2565 H         1 UNK         0.3000 
    170 H170        0.9422  -14.8226  -41.1980 H         1 UNK         0.0600 
    171 H171        1.4913  -15.6895  -38.9643 H         1 UNK         0.0600 
    172 H172        3.1743  -15.2166  -39.1606 H         1 UNK         0.0600 
    173 H173        1.9100  -13.9905  -39.1081 H         1 UNK         0.0600 
    174 H174        3.7873  -14.0100  -41.1701 H         1 UNK         0.3000 
    175 H175        0.8349  -14.4393  -43.2800 H         1 UNK         0.0600 
    176 H176        0.8882  -11.3738  -43.3103 H         1 UNK         0.0600 
    177 H177       -0.5376  -12.3909  -43.4736 H         1 UNK         0.0600 
    178 H178        0.3318  -12.3451  -41.9526 H         1 UNK         0.0600 
    179 H179        1.0504  -12.6825  -45.4331 H         1 UNK         0.3000 
    180 H180        3.1769  -14.0151  -47.4904 H         1 UNK         0.0600 
    181 H181        1.7290  -15.4235  -48.9958 H         1 UNK         0.0600 
    182 H182        0.7601  -15.8909  -47.6004 H         1 UNK         0.0600 
    183 H183        2.4473  -16.3505  -47.6997 H         1 UNK         0.0600 
    184 H184        0.3240  -13.4503  -47.9355 H         1 UNK         0.3000 
    185 H185        0.6590   -9.9819  -47.8889 H         1 UNK         0.0600 
    186 H186        0.0813   -9.9552  -50.3032 H         1 UNK         0.0600 
    187 H187        1.7844  -10.3271  -50.0957 H         1 UNK         0.0600 
    188 H188        0.6511  -11.6154  -50.4850 H         1 UNK         0.0600 
    189 H189       -1.3545  -11.6040  -49.0536 H         1 UNK         0.3000 
    190 H190       -2.3484  -21.4445  -45.3714 H         1 UNK         0.3000 
    191 H191       -4.9840  -22.3556  -45.8325 H         1 UNK         0.0600 
    192 H192       -5.3406  -21.8042  -43.4395 H         1 UNK         0.0600 
    193 H193       -4.4261  -20.5392  -44.2468 H         1 UNK         0.0600 
    194 H194       -3.6058  -21.6799  -43.1851 H         1 UNK         0.0600 
    195 H195       -2.3658  -23.8137  -43.8432 H         1 UNK         0.3000 
    196 H196       -3.7458  -26.1178  -42.9898 H         1 UNK         0.0600 
    197 H197       -0.7463  -25.6656  -43.4251 H         1 UNK         0.0600 
    198 H198       -1.6472  -25.3078  -41.9527 H         1 UNK         0.0600 
    199 H199       -1.4494  -26.9722  -42.4790 H         1 UNK         0.0600 
    200 H200       -2.0891  -25.4762  -46.0369 H         1 UNK         0.3000 
    201 H201       -2.2862  -28.1980  -47.0587 H         1 UNK         0.0600 
    202 H202       -1.5373  -25.5559  -48.4029 H         1 UNK         0.0600 
    203 H203       -1.3431  -27.1553  -49.1143 H         1 UNK         0.0600 
    204 H204       -0.4135  -26.7097  -47.6950 H         1 UNK         0.0600 
    205 H205       -4.7841  -26.7706  -46.1763 H         1 UNK         0.3000 
    206 H206       -6.9331  -26.7313  -46.6177 H         1 UNK         0.0600 
    207 H207       -6.6049  -29.0608  -47.4552 H         1 UNK         0.0600 
    208 H208       -7.9152  -28.2436  -48.2912 H         1 UNK         0.0600 
    209 H209       -6.3645  -28.4481  -49.0908 H         1 UNK         0.0600 
    210 H210       -5.7216  -24.4948  -47.1380 H         1 UNK         0.3000 
    211 H211       -5.8829  -22.4671  -48.0336 H         1 UNK         0.0600 
    212 H212       -8.0241  -21.7435  -49.0197 H         1 UNK         0.0600 
    213 H213       -8.3221  -22.7742  -47.6294 H         1 UNK         0.0600 
    214 H214       -8.5259  -23.4101  -49.2610 H         1 UNK         0.0600 
    215 H215       -4.0389  -23.7645  -49.2266 H         1 UNK         0.3000 
    216 H216       -4.2307  -24.1193  -52.0658 H         1 UNK         0.0600 
    217 H217       -1.7917  -23.8267  -50.2359 H         1 UNK         0.0600 
    218 H218       -1.7575  -24.4150  -51.8921 H         1 UNK         0.0600 
    219 H219       -2.5975  -25.3392  -50.6591 H         1 UNK         0.0600 
    220 H220       -4.0359  -21.2521  -50.2628 H         1 UNK         0.3000 
    221 H221       -2.3607  -19.5201  -51.6395 H         1 UNK         0.0600 
    222 H222       -3.4972  -18.9298  -49.5256 H         1 UNK         0.0600 
    223 H223       -5.0711  -18.9632  -50.3170 H         1 UNK         0.0600 
    224 H224       -3.8899  -17.7356  -50.7509 H         1 UNK         0.0600 
    225 H225       -5.6574  -20.5192  -52.5081 H         1 UNK         0.3000 
    226 H226       -6.1017  -18.6738  -54.6378 H         1 UNK         0.0600 
    227 H227       -7.3473  -21.4131  -54.0462 H         1 UNK         0.0600 
    228 H228       -7.9346  -19.8566  -53.4610 H         1 UNK         0.0600 
    229 H229       -7.9908  -20.2272  -55.1769 H         1 UNK         0.0600 
    230 H230       -4.2948  -21.6840  -54.5039 H         1 UNK         0.3000 
    231 H231       -4.1184  -21.9069  -57.4653 H         1 UNK         0.0600 
    232 H232       -3.0782  -23.7350  -55.2355 H         1 UNK         0.0600 
    233 H233       -2.9620  -24.0406  -56.9635 H         1 UNK         0.0600 
    234 H234       -4.5379  -23.9974  -56.1878 H         1 UNK         0.0600 
    235 H235       -2.1675  -21.3127  -54.5233 H         1 UNK         0.3000 
    236 H236        0.3576  -21.1421  -55.7596 H         1 UNK         0.0600 
    237 H237        0.0163  -21.5152  -53.3230 H         1 UNK         0.0600 
    238 H238        1.0610  -20.1282  -53.5975 H         1 UNK         0.0600 
    239 H239       -0.6160  -19.8817  -53.1408 H         1 UNK         0.0600 
    240 H240       -1.9034  -18.4978  -54.8177 H         1 UNK         0.3000 
    241 H241       -0.5072  -16.6368  -56.6771 H         1 UNK         0.0600 
    242 H242       -4.5580  -16.5680  -56.2419 H         1 UNK         0.3800 
    243 H243       -3.6326  -17.5902  -55.1628 H         1 UNK         0.3800 
    244 H244       -1.2780  -15.9916  -53.7938 H         1 UNK         0.0800 
    245 H245       -0.7344  -14.8105  -54.9625 H         1 UNK         0.0800 
    246 H246        0.8519  -14.4045  -52.6448 H         1 UNK         0.0800 
    247 H247        2.2592  -15.3796  -52.3153 H         1 UNK         0.0800 
@<TRIPOS>BOND
     1    1    2 1    
     2    1  127 1    
     3    1  128 1    
     4    1  129 1    
     5    2    3 2    
     6    2    4 am   BACKBONE|DICT|INTERRES
     7    4    5 1    
     8    4  130 1    
     9    5    6 1    
    10    5   65 1    
    11    5  131 1    
    12    6    7 1    
    13    6  132 1    
    14    6  133 1    
    15    7    8 1    
    16    8    9 1    
    17    8  134 1    
    18    8  135 1    
    19    9   10 ar   
    20    9   14 ar   
    21   10   11 ar   
    22   10  136 1    
    23   11   12 ar   
    24   11  126 1    
    25   12   13 ar   
    26   12  137 1    
    27   13   14 ar   
    28   13   15 1    
    29   14  138 1    
    30   15   16 1    
    31   15  139 1    
    32   15  140 1    
    33   16   17 1    
    34   17   18 1    
    35   17  141 1    
    36   17  142 1    
    37   18   19 1    
    38   18   67 1    
    39   18  143 1    
    40   19   20 am   BACKBONE|DICT|INTERRES
    41   19  144 1    
    42   20   21 2    
    43   20   22 1    
    44   22   23 1    
    45   22   24 1    
    46   22  145 1    
    47   23  146 1    
    48   23  147 1    
    49   23  148 1    
    50   24   25 am   BACKBONE|DICT|INTERRES
    51   24  149 1    
    52   25   26 2    
    53   25   27 1    
    54   27   28 1    
    55   27   29 1    
    56   27  150 1    
    57   28  151 1    
    58   28  152 1    
    59   28  153 1    
    60   29   30 am   BACKBONE|DICT|INTERRES
    61   29  154 1    
    62   30   31 2    
    63   30   32 1    
    64   32   33 1    
    65   32   34 1    
    66   32  155 1    
    67   33  156 1    
    68   33  157 1    
    69   33  158 1    
    70   34   35 am   BACKBONE|DICT|INTERRES
    71   34  159 1    
    72   35   36 2    
    73   35   37 1    
    74   37   38 1    
    75   37   39 1    
    76   37  160 1    
    77   38  161 1    
    78   38  162 1    
    79   38  163 1    
    80   39   40 am   BACKBONE|DICT|INTERRES
    81   39  164 1    
    82   40   41 2    
    83   40   42 1    
    84   42   43 1    
    85   42   44 1    
    86   42  165 1    
    87   43  166 1    
    88   43  167 1    
    89   43  168 1    
    90   44   45 am   BACKBONE|DICT|INTERRES
    91   44  169 1    
    92   45   46 2    
    93   45   47 1    
    94   47   48 1    
    95   47   49 1    
    96   47  170 1    
    97   48  171 1    
    98   48  172 1    
    99   48  173 1    
   100   49   50 am   BACKBONE|DICT|INTERRES
   101   49  174 1    
   102   50   51 2    
   103   50   52 1    
   104   52   53 1    
   105   52   54 1    
   106   52  175 1    
   107   53  176 1    
   108   53  177 1    
   109   53  178 1    
   110   54   55 am   BACKBONE|DICT|INTERRES
   111   54  179 1    
   112   55   56 2    
   113   55   57 1    
   114   57   58 1    
   115   57   59 1    
   116   57  180 1    
   117   58  181 1    
   118   58  182 1    
   119   58  183 1    
   120   59   60 am   BACKBONE|DICT|INTERRES
   121   59  184 1    
   122   60   61 2    
   123   60   62 1    
   124   62   63 1    
   125   62   64 1    
   126   62  185 1    
   127   63  186 1    
   128   63  187 1    
   129   63  188 1    
   130   64   65 am   BACKBONE|DICT|INTERRES
   131   64  189 1    
   132   65   66 2    
   133   67   68 2    
   134   67   69 am   BACKBONE|DICT|INTERRES
   135   69   70 1    
   136   69  190 1    
   137   70   71 1    
   138   70   72 1    
   139   70  191 1    
   140   71  192 1    
   141   71  193 1    
   142   71  194 1    
   143   72   73 2    
   144   72   74 am   BACKBONE|DICT|INTERRES
   145   74   75 1    
   146   74  195 1    
   147   75   76 1    
   148   75   77 1    
   149   75  196 1    
   150   76  197 1    
   151   76  198 1    
   152   76  199 1    
   153   77   78 2    
   154   77   79 am   BACKBONE|DICT|INTERRES
   155   79   80 1    
   156   79  200 1    
   157   80   81 1    
   158   80   82 1    
   159   80  201 1    
   160   81  202 1    
   161   81  203 1    
   162   81  204 1    
   163   82   83 2    
   164   82   84 am   BACKBONE|DICT|INTERRES
   165   84   85 1    
   166   84  205 1    
   167   85   86 1    
   168   85   87 1    
   169   85  206 1    
   170   86  207 1    
   171   86  208 1    
   172   86  209 1    
   173   87   88 2    
   174   87   89 am   BACKBONE|DICT|INTERRES
   175   89   90 1    
   176   89  210 1    
   177   90   91 1    
   178   90   92 1    
   179   90  211 1    
   180   91  212 1    
   181   91  213 1    
   182   91  214 1    
   183   92   93 2    
   184   92   94 am   BACKBONE|DICT|INTERRES
   185   94   95 1    
   186   94  215 1    
   187   95   96 1    
   188   95   97 1    
   189   95  216 1    
   190   96  217 1    
   191   96  218 1    
   192   96  219 1    
   193   97   98 2    
   194   97   99 am   BACKBONE|DICT|INTERRES
   195   99  100 1    
   196   99  220 1    
   197  100  101 1    
   198  100  102 1    
   199  100  221 1    
   200  101  222 1    
   201  101  223 1    
   202  101  224 1    
   203  102  103 2    
   204  102  104 am   BACKBONE|DICT|INTERRES
   205  104  105 1    
   206  104  225 1    
   207  105  106 1    
   208  105  107 1    
   209  105  226 1    
   210  106  227 1    
   211  106  228 1    
   212  106  229 1    
   213  107  108 2    
   214  107  109 am   BACKBONE|DICT|INTERRES
   215  109  110 1    
   216  109  230 1    
   217  110  111 1    
   218  110  112 1    
   219  110  231 1    
   220  111  232 1    
   221  111  233 1    
   222  111  234 1    
   223  112  113 2    
   224  112  114 am   BACKBONE|DICT|INTERRES
   225  114  115 1    
   226  114  235 1    
   227  115  116 1    
   228  115  117 1    
   229  115  236 1    
   230  116  237 1    
   231  116  238 1    
   232  116  239 1    
   233  117  118 2    
   234  117  119 am   BACKBONE|DICT|INTERRES
   235  119  120 1    
   236  119  240 1    
   237  120  121 1    
   238  120  124 1    
   239  120  241 1    
   240  121  122 am   BACKBONE|DICT|INTERRES
   241  121  123 2    
   242  122  242 1    
   243  122  243 1    
   244  124  125 1    
   245  124  244 1    
   246  124  245 1    
   247  125  126 1    
   248  126  246 1    
   249  126  247 1    
@<TRIPOS>SUBSTRUCTURE
     1 UNK         1 GROUP             0       ****    0 ROOT    
