@<TRIPOS>MOLECULE
3R540
247   249    1
SMALL
USER_CHARGES


@<TRIPOS>ATOM
      1 CA          4.3068  -12.3556  -49.1318 C.3       0 UNK        -0.1800 
      2 C           3.0641  -13.1653  -48.7649 C.2       0 UNK         0.5000 
      3 O           1.9751  -12.8242  -49.2198 O.2       0 UNK        -0.5000 
      4 N           3.1695  -14.2357  -47.9610 N.am      1 UNK        -0.5000 
      5 CA          4.3969  -14.7495  -47.3258 C.3       1 UNK         0.1400 
      6 C6          4.2781  -16.2089  -46.7931 C.3       23 UNK        -0.0398 
      7 S7          3.1595  -17.3465  -47.6802 S.3       23 UNK        -0.2404 
      8 C8          3.6811  -17.2480  -49.4137 C.3       23 UNK        -0.0205 
      9 C9          2.6570  -17.9418  -50.2972 C.ar      23 UNK        -0.0193 
     10 C10         1.4428  -17.3094  -50.5844 C.ar      23 UNK        -0.1150 
     11 C11         0.4979  -17.9269  -51.4088 C.ar      23 UNK        -0.0193 
     12 C12         0.7754  -19.1861  -51.9441 C.ar      23 UNK        -0.1150 
     13 C13         1.9780  -19.8355  -51.6538 C.ar      23 UNK        -0.0193 
     14 C14         2.9158  -19.2090  -50.8276 C.ar      23 UNK        -0.1150 
     15 C15         2.2767  -21.1988  -52.2588 C.3       23 UNK        -0.0205 
     16 S16         1.9861  -22.5565  -51.0826 S.3       23 UNK        -0.2404 
     17 C17         0.1653  -22.5723  -50.9582 C.3       23 UNK        -0.0398 
     18 CA         -0.3190  -22.7199  -49.4994 C.3       11 UNK         0.1400 
     19 N           0.1778  -21.6605  -48.6145 N.am      11 UNK        -0.5000 
     20 C           0.2146  -21.7755  -47.2807 C.2       10 UNK         0.5000 
     21 O          -0.1960  -22.7629  -46.6725 O.2       10 UNK        -0.5000 
     22 CA          0.7586  -20.5756  -46.4888 C.3       10 UNK         0.1400 
     23 CB          2.2937  -20.5743  -46.5342 C.3       10 UNK        -0.1800 
     24 N           0.2422  -19.2718  -46.9208 N.am      10 UNK        -0.5000 
     25 C          -1.0547  -18.9472  -47.0420 C.2       9 UNK         0.5000 
     26 O          -1.9720  -19.7564  -46.9011 O.2       9 UNK        -0.5000 
     27 CA         -1.3676  -17.4681  -47.3223 C.3       9 UNK         0.1400 
     28 CB         -2.8761  -17.1638  -47.3623 C.3       9 UNK        -0.1800 
     29 N          -0.7583  -16.6663  -46.2683 N.am      9 UNK        -0.5000 
     30 C           0.1581  -15.7120  -46.4612 C.2       8 UNK         0.5000 
     31 O           0.5096  -15.3207  -47.5724 O.2       8 UNK        -0.5000 
     32 CA          0.8295  -15.0969  -45.2166 C.3       8 UNK         0.1400 
     33 CB          0.3366  -13.6596  -44.9908 C.3       8 UNK        -0.1800 
     34 N           0.6506  -15.8771  -43.9920 N.am      8 UNK        -0.5000 
     35 C           1.1465  -17.1037  -43.7760 C.2       7 UNK         0.5000 
     36 O           1.9342  -17.6560  -44.5389 O.2       7 UNK        -0.5000 
     37 CA          0.6658  -17.8627  -42.5252 C.3       7 UNK         0.1400 
     38 CB          1.7846  -17.9629  -41.4798 C.3       7 UNK        -0.1800 
     39 N          -0.5356  -17.2986  -41.9033 N.am      7 UNK        -0.5000 
     40 C          -1.7615  -17.3212  -42.4476 C.2       6 UNK         0.5000 
     41 O          -1.9964  -17.7422  -43.5810 O.2       6 UNK        -0.5000 
     42 CA         -2.9056  -16.7670  -41.5814 C.3       6 UNK         0.1400 
     43 CB         -3.3692  -17.8221  -40.5651 C.3       6 UNK        -0.1800 
     44 N          -2.5045  -15.5510  -40.8701 N.am      6 UNK        -0.5000 
     45 C          -2.5943  -14.3184  -41.3877 C.2       5 UNK         0.5000 
     46 O          -3.0780  -14.0717  -42.4930 O.2       5 UNK        -0.5000 
     47 CA         -2.0178  -13.1673  -40.5375 C.3       5 UNK         0.1400 
     48 CB         -3.0159  -12.7440  -39.4485 C.3       5 UNK        -0.1800 
     49 N          -0.7191  -13.4654  -39.9197 N.am      5 UNK        -0.5000 
     50 C           0.3807  -13.8181  -40.5978 C.2       4 UNK         0.5000 
     51 O           0.3954  -13.9953  -41.8177 O.2       4 UNK        -0.5000 
     52 CA          1.6741  -14.0283  -39.7941 C.3       4 UNK         0.1400 
     53 CB          1.5167  -15.1873  -38.7865 C.3       4 UNK        -0.1800 
     54 N           2.7388  -14.2950  -40.7603 N.am      4 UNK        -0.5000 
     55 C           4.0517  -14.4040  -40.5334 C.2       3 UNK         0.5000 
     56 O           4.5689  -14.3052  -39.4203 O.2       3 UNK        -0.5000 
     57 CA          4.9427  -14.6517  -41.7674 C.3       3 UNK         0.1400 
     58 CB          5.0458  -16.1516  -42.0841 C.3       3 UNK        -0.1800 
     59 N           4.4825  -13.9468  -42.9665 N.am      3 UNK        -0.5000 
     60 C           4.6367  -12.6327  -43.1794 C.2       2 UNK         0.5000 
     61 O           5.1495  -11.8739  -42.3550 O.2       2 UNK        -0.5000 
     62 CA          4.1302  -12.0659  -44.5265 C.3       2 UNK         0.1400 
     63 CB          4.9886  -10.8866  -45.0296 C.3       2 UNK        -0.1800 
     64 N           3.9526  -13.0617  -45.5937 N.am      2 UNK        -0.5000 
     65 C           4.8872  -13.8268  -46.1844 C.2       1 UNK         0.5000 
     66 O           6.0761  -13.8336  -45.8684 O.2       1 UNK        -0.5000 
     67 C          -1.8536  -22.8629  -49.4449 C.2       11 UNK         0.5000 
     68 O          -2.3613  -23.9378  -49.7655 O.2       11 UNK        -0.5000 
     69 N          -2.5705  -21.8109  -49.0272 N.am      12 UNK        -0.5000 
     70 CA         -4.0090  -21.8662  -48.7777 C.3       12 UNK         0.1400 
     71 CB         -4.6154  -20.4608  -48.8669 C.3       12 UNK        -0.1800 
     72 C          -4.2977  -22.5095  -47.4136 C.2       12 UNK         0.5000 
     73 O          -5.1693  -23.3727  -47.3252 O.2       12 UNK        -0.5000 
     74 N          -3.5220  -22.1225  -46.3905 N.am      13 UNK        -0.5000 
     75 CA         -3.5722  -22.6758  -45.0352 C.3       13 UNK         0.1400 
     76 CB         -2.6401  -21.8643  -44.1215 C.3       13 UNK        -0.1800 
     77 C          -3.2257  -24.1776  -44.9877 C.2       13 UNK         0.5000 
     78 O          -3.8683  -24.9290  -44.2539 O.2       13 UNK        -0.5000 
     79 N          -2.2486  -24.5921  -45.8056 N.am      14 UNK        -0.5000 
     80 CA         -1.8554  -25.9877  -46.0127 C.3       14 UNK         0.1400 
     81 CB         -0.4455  -26.0138  -46.6248 C.3       14 UNK        -0.1800 
     82 C          -2.8317  -26.7831  -46.9055 C.2       14 UNK         0.5000 
     83 O          -2.6970  -28.0043  -46.9904 O.2       14 UNK        -0.5000 
     84 N          -3.7680  -26.0881  -47.5713 N.am      15 UNK        -0.5000 
     85 CA         -4.7408  -26.6010  -48.5439 C.3       15 UNK         0.1400 
     86 CB         -5.7512  -27.5510  -47.8688 C.3       15 UNK        -0.1800 
     87 C          -4.0842  -27.2064  -49.8045 C.2       15 UNK         0.5000 
     88 O          -4.6351  -28.1261  -50.4117 O.2       15 UNK        -0.5000 
     89 N          -2.9179  -26.6679  -50.1786 N.am      16 UNK        -0.5000 
     90 CA         -2.1377  -27.0642  -51.3476 C.3       16 UNK         0.1400 
     91 CB         -0.6459  -26.8625  -51.0372 C.3       16 UNK        -0.1800 
     92 C          -2.5390  -26.2648  -52.5991 C.2       16 UNK         0.5000 
     93 O          -2.4988  -26.8124  -53.7014 O.2       16 UNK        -0.5000 
     94 N          -2.9196  -24.9937  -52.4116 N.am      17 UNK        -0.5000 
     95 CA         -3.3079  -24.0704  -53.4798 C.3       17 UNK         0.1400 
     96 CB         -2.0697  -23.3207  -54.0036 C.3       17 UNK        -0.1800 
     97 C          -4.4282  -23.1204  -53.0213 C.2       17 UNK         0.5000 
     98 O          -4.4972  -21.9789  -53.4882 O.2       17 UNK        -0.5000 
     99 N          -5.2948  -23.6111  -52.1237 N.am      18 UNK        -0.5000 
    100 CA        -6.4743  -22.9085  -51.6191 C.3       18 UNK         0.1400 
    101 CB        -7.1512  -23.7561  -50.5313 C.3       18 UNK        -0.1800 
    102 C         -7.4604  -22.5749  -52.7517 C.2       18 UNK         0.5000 
    103 O         -7.9357  -23.4847  -53.4336 O.2       18 UNK        -0.5000 
    104 N         -7.7007  -21.2727  -52.9428 N.am      19 UNK        -0.5000 
    105 CA        -8.4992  -20.6363  -53.9954 C.3       19 UNK         0.1400 
    106 CB        -9.9601  -21.1323  -53.9758 C.3       19 UNK        -0.1800 
    107 C         -7.8690  -20.7153  -55.4034 C.2       19 UNK         0.5000 
    108 O         -8.5030  -20.2781  -56.3653 O.2       19 UNK        -0.5000 
    109 N         -6.6377  -21.2336  -55.5081 N.am      20 UNK        -0.5000 
    110 CA        -5.8586  -21.2936  -56.7423 C.3       20 UNK         0.1400 
    111 CB        -5.2325  -22.6896  -56.8959 C.3       20 UNK        -0.1800 
    112 C         -4.7839  -20.1978  -56.7329 C.2       20 UNK         0.5000 
    113 O         -4.7141  -19.4122  -57.6790 O.2       20 UNK        -0.5000 
    114 N         -3.9855  -20.1496  -55.6580 N.am      21 UNK        -0.5000 
    115 CA        -2.9499  -19.1380  -55.4483 C.3       21 UNK         0.1400 
    116 CB        -1.6982  -19.8051  -54.8597 C.3       21 UNK        -0.1800 
    117 C         -3.4426  -18.0199  -54.5178 C.2       21 UNK         0.5000 
    118 O         -3.1576  -16.8492  -54.7720 O.2       21 UNK        -0.5000 
    119 N         -4.1681  -18.3966  -53.4603 N.am      22 UNK        -0.5000 
    120 CA        -4.6810  -17.5059  -52.4126 C.3       22 UNK         0.1400 
    121 C         -5.7810  -18.2033  -51.5690 C.2       22 UNK         0.5000 
    122 N         -6.4440  -17.4856  -50.6731 N.am      22 UNK        -0.7600 
    123 O         -6.0603  -19.3892  -51.7270 O.2       22 UNK        -0.5000 
    124 C124       -3.5620  -16.8479  -51.5482 C.3       23 UNK        -0.0398 
    125 S125       -2.2473  -17.9805  -50.9607 S.3       23 UNK        -0.2404 
    126 C126       -0.8001  -17.2186  -51.7611 C.3       23 UNK        -0.0205 
    127 H127        5.0936  -12.9940  -49.5321 H         1 UNK         0.0600 
    128 H128        4.6918  -11.8165  -48.2669 H         1 UNK         0.0600 
    129 H129        4.0655  -11.6184  -49.8979 H         1 UNK         0.0600 
    130 H130        2.3254  -14.7801  -47.8006 H         1 UNK         0.3000 
    131 H131        5.1776  -14.7601  -48.0879 H         1 UNK         0.0600 
    132 H132        5.2681  -16.6672  -46.7670 H         1 UNK         0.0800 
    133 H133        3.9348  -16.2216  -45.7573 H         1 UNK         0.0800 
    134 H134        4.6665  -17.7031  -49.5231 H         1 UNK         0.0800 
    135 H135        3.7785  -16.2095  -49.7292 H         1 UNK         0.0800 
    136 H136        1.2399  -16.3322  -50.1672 H         1 UNK         0.1150 
    137 H137        0.0517  -19.6583  -52.5909 H         1 UNK         0.1150 
    138 H138        3.8491  -19.7067  -50.6042 H         1 UNK         0.1150 
    139 H139        1.6806  -21.3628  -53.1581 H         1 UNK         0.0800 
    140 H140        3.3194  -21.2297  -52.5781 H         1 UNK         0.0800 
    141 H141       -0.1881  -23.4105  -51.5609 H         1 UNK         0.0800 
    142 H142       -0.2570  -21.6747  -51.4081 H         1 UNK         0.0800 
    143 H143        0.0838  -23.6657  -49.1303 H         1 UNK         0.0600 
    144 H144        0.5391  -20.8245  -49.0515 H         1 UNK         0.3000 
    145 H145        0.4532  -20.7070  -45.4490 H         1 UNK         0.0600 
    146 H146        2.6662  -20.3850  -47.5419 H         1 UNK         0.0600 
    147 H147        2.7105  -19.8151  -45.8735 H         1 UNK         0.0600 
    148 H148        2.6961  -21.5353  -46.2114 H         1 UNK         0.0600 
    149 H149        0.9324  -18.5396  -47.0276 H         1 UNK         0.3000 
    150 H150       -0.9401  -17.2298  -48.2982 H         1 UNK         0.0600 
    151 H151       -3.0573  -16.1051  -47.5468 H         1 UNK         0.0600 
    152 H152       -3.3660  -17.4300  -46.4246 H         1 UNK         0.0600 
    153 H153       -3.3665  -17.7174  -48.1623 H         1 UNK         0.0600 
    154 H154       -0.9886  -16.9444  -45.3203 H         1 UNK         0.3000 
    155 H155        1.8978  -15.0568  -45.4237 H         1 UNK         0.0600 
    156 H156        0.4011  -13.0692  -45.9060 H         1 UNK         0.0600 
    157 H157        0.9382  -13.1495  -44.2392 H         1 UNK         0.0600 
    158 H158       -0.7025  -13.6405  -44.6592 H         1 UNK         0.0600 
    159 H159        0.0843  -15.4492  -43.2682 H         1 UNK         0.3000 
    160 H160        0.4209  -18.8769  -42.8483 H         1 UNK         0.0600 
    161 H161        2.1268  -16.9794  -41.1644 H         1 UNK         0.0600 
    162 H162        2.6472  -18.4937  -41.8848 H         1 UNK         0.0600 
    163 H163        1.4568  -18.5090  -40.5952 H         1 UNK         0.0600 
    164 H164       -0.4264  -16.9145  -40.9781 H         1 UNK         0.3000 
    165 H165       -3.7481  -16.5463  -42.2406 H         1 UNK         0.0600 
    166 H166       -4.2216  -17.4633  -39.9880 H         1 UNK         0.0600 
    167 H167       -3.6814  -18.7378  -41.0692 H         1 UNK         0.0600 
    168 H168       -2.5774  -18.0872  -39.8635 H         1 UNK         0.0600 
    169 H169       -2.1084  -15.6604  -39.9483 H         1 UNK         0.3000 
    170 H170       -1.8693  -12.3165  -41.2059 H         1 UNK         0.0600 
    171 H171       -3.9873  -12.5013  -39.8815 H         1 UNK         0.0600 
    172 H172       -3.1721  -13.5352  -38.7143 H         1 UNK         0.0600 
    173 H173       -2.6684  -11.8573  -38.9180 H         1 UNK         0.0600 
    174 H174       -0.6600  -13.3443  -38.9190 H         1 UNK         0.3000 
    175 H175        1.9087  -13.1036  -39.2639 H         1 UNK         0.0600 
    176 H176        1.1836  -16.1057  -39.2675 H         1 UNK         0.0600 
    177 H177        2.4484  -15.4037  -38.2650 H         1 UNK         0.0600 
    178 H178        0.7809  -14.9407  -38.0207 H         1 UNK         0.0600 
    179 H179        2.3944  -14.3389  -41.7120 H         1 UNK         0.3000 
    180 H180        5.9449  -14.2950  -41.5197 H         1 UNK         0.0600 
    181 H181        4.1094  -16.5468  -42.4759 H         1 UNK         0.0600 
    182 H182        5.3040  -16.7275  -41.1944 H         1 UNK         0.0600 
    183 H183        5.8198  -16.3403  -42.8283 H         1 UNK         0.0600 
    184 H184        4.0576  -14.5040  -43.6905 H         1 UNK         0.3000 
    185 H185        3.1338  -11.6734  -44.3187 H         1 UNK         0.0600 
    186 H186        6.0232  -11.1839  -45.2025 H         1 UNK         0.0600 
    187 H187        4.5952  -10.4822  -45.9622 H         1 UNK         0.0600 
    188 H188        5.0004  -10.0705  -44.3062 H         1 UNK         0.0600 
    189 H189        3.0159  -13.1254  -45.9656 H         1 UNK         0.3000 
    190 H190       -2.0903  -20.9774  -48.7136 H         1 UNK         0.3000 
    191 H191       -4.4703  -22.4809  -49.5508 H         1 UNK         0.0600 
    192 H192       -4.2757  -19.9474  -49.7646 H         1 UNK         0.0600 
    193 H193       -5.7039  -20.5106  -48.9086 H         1 UNK         0.0600 
    194 H194       -4.3518  -19.8443  -48.0086 H         1 UNK         0.0600 
    195 H195       -2.8538  -21.3719  -46.5504 H         1 UNK         0.3000 
    196 H196       -4.5943  -22.5598  -44.6692 H         1 UNK         0.0600 
    197 H197       -2.6906  -22.2240  -43.0932 H         1 UNK         0.0600 
    198 H198       -2.9155  -20.8091  -44.1122 H         1 UNK         0.0600 
    199 H199       -1.6007  -21.9330  -44.4431 H         1 UNK         0.0600 
    200 H200       -1.7042  -23.8916  -46.3022 H         1 UNK         0.3000 
    201 H201       -1.8171  -26.4862  -45.0421 H         1 UNK         0.0600 
    202 H202        0.2713  -25.4943  -45.9885 H         1 UNK         0.0600 
    203 H203       -0.4269  -25.5406  -47.6071 H         1 UNK         0.0600 
    204 H204       -0.0879  -27.0369  -46.7470 H         1 UNK         0.0600 
    205 H205       -3.8188  -25.0909  -47.4058 H         1 UNK         0.3000 
    206 H206       -5.2975  -25.7316  -48.8913 H         1 UNK         0.0600 
    207 H207       -5.2840  -28.4842  -47.5536 H         1 UNK         0.0600 
    208 H208       -6.2009  -27.0866  -46.9911 H         1 UNK         0.0600 
    209 H209       -6.5632  -27.8066  -48.5505 H         1 UNK         0.0600 
    210 H210       -2.5831  -25.8549  -49.6717 H         1 UNK         0.3000 
    211 H211       -2.3017  -28.1238  -51.5551 H         1 UNK         0.0600 
    212 H212       -0.0265  -27.1597  -51.8844 H         1 UNK         0.0600 
    213 H213       -0.3383  -27.4645  -50.1819 H         1 UNK         0.0600 
    214 H214       -0.4161  -25.8209  -50.8111 H         1 UNK         0.0600 
    215 H215       -2.8974  -24.6122  -51.4694 H         1 UNK         0.3000 
    216 H216       -3.7311  -24.6419  -54.3083 H         1 UNK         0.0600 
    217 H217       -2.3129  -22.7475  -54.8981 H         1 UNK         0.0600 
    218 H218       -1.2688  -24.0094  -54.2725 H         1 UNK         0.0600 
    219 H219       -1.6816  -22.6243  -53.2617 H         1 UNK         0.0600 
    220 H220       -5.1915  -24.5747  -51.8443 H         1 UNK         0.3000 
    221 H221       -6.1374  -21.9778  -51.1601 H         1 UNK         0.0600 
    222 H222       -7.4358  -24.7409  -50.9036 H         1 UNK         0.0600 
    223 H223       -6.4948  -23.8953  -49.6743 H         1 UNK         0.0600 
    224 H224       -8.0558  -23.2690  -50.1650 H         1 UNK         0.0600 
    225 H225       -7.1765  -20.6127  -52.3664 H         1 UNK         0.3000 
    226 H226       -8.5144  -19.5755  -53.7414 H         1 UNK         0.0600 
    227 H227      -10.3859  -21.0673  -52.9745 H         1 UNK         0.0600 
    228 H228      -10.5860  -20.5272  -54.6325 H         1 UNK         0.0600 
    229 H229      -10.0447  -22.1658  -54.3120 H         1 UNK         0.0600 
    230 H230       -6.1701  -21.5368  -54.6624 H         1 UNK         0.3000 
    231 H231       -6.5015  -21.1254  -57.6089 H         1 UNK         0.0600 
    232 H232       -4.5476  -22.9256  -56.0830 H         1 UNK         0.0600 
    233 H233       -4.6700  -22.7617  -57.8275 H         1 UNK         0.0600 
    234 H234       -6.0007  -23.4627  -56.9189 H         1 UNK         0.0600 
    235 H235       -4.1206  -20.8253  -54.9109 H         1 UNK         0.3000 
    236 H236       -2.6660  -18.6827  -56.3995 H         1 UNK         0.0600 
    237 H237       -1.3149  -20.5800  -55.5233 H         1 UNK         0.0600 
    238 H238       -0.9002  -19.0749  -54.7215 H         1 UNK         0.0600 
    239 H239       -1.9039  -20.2596  -53.8900 H         1 UNK         0.0600 
    240 H240       -4.3867  -19.3738  -53.3141 H         1 UNK         0.3000 
    241 H241       -5.2087  -16.7040  -52.9321 H         1 UNK         0.0600 
    242 H242       -7.1625  -17.9360  -50.1293 H         1 UNK         0.3800 
    243 H243       -6.2635  -16.5044  -50.5326 H         1 UNK         0.3800 
    244 H244       -3.1020  -16.0513  -52.1336 H         1 UNK         0.0800 
    245 H245       -3.9797  -16.3393  -50.6786 H         1 UNK         0.0800 
    246 H246       -0.9348  -17.2337  -52.8433 H         1 UNK         0.0800 
    247 H247       -0.7454  -16.1679  -51.4715 H         1 UNK         0.0800 
@<TRIPOS>BOND
     1    1    2 1    
     2    1  127 1    
     3    1  128 1    
     4    1  129 1    
     5    2    3 2    
     6    2    4 am   BACKBONE|DICT|INTERRES
     7    4    5 1    
     8    4  130 1    
     9    5    6 1    
    10    5   65 1    
    11    5  131 1    
    12    6    7 1    
    13    6  132 1    
    14    6  133 1    
    15    7    8 1    
    16    8    9 1    
    17    8  134 1    
    18    8  135 1    
    19    9   10 ar   
    20    9   14 ar   
    21   10   11 ar   
    22   10  136 1    
    23   11   12 ar   
    24   11  126 1    
    25   12   13 ar   
    26   12  137 1    
    27   13   14 ar   
    28   13   15 1    
    29   14  138 1    
    30   15   16 1    
    31   15  139 1    
    32   15  140 1    
    33   16   17 1    
    34   17   18 1    
    35   17  141 1    
    36   17  142 1    
    37   18   19 1    
    38   18   67 1    
    39   18  143 1    
    40   19   20 am   BACKBONE|DICT|INTERRES
    41   19  144 1    
    42   20   21 2    
    43   20   22 1    
    44   22   23 1    
    45   22   24 1    
    46   22  145 1    
    47   23  146 1    
    48   23  147 1    
    49   23  148 1    
    50   24   25 am   BACKBONE|DICT|INTERRES
    51   24  149 1    
    52   25   26 2    
    53   25   27 1    
    54   27   28 1    
    55   27   29 1    
    56   27  150 1    
    57   28  151 1    
    58   28  152 1    
    59   28  153 1    
    60   29   30 am   BACKBONE|DICT|INTERRES
    61   29  154 1    
    62   30   31 2    
    63   30   32 1    
    64   32   33 1    
    65   32   34 1    
    66   32  155 1    
    67   33  156 1    
    68   33  157 1    
    69   33  158 1    
    70   34   35 am   BACKBONE|DICT|INTERRES
    71   34  159 1    
    72   35   36 2    
    73   35   37 1    
    74   37   38 1    
    75   37   39 1    
    76   37  160 1    
    77   38  161 1    
    78   38  162 1    
    79   38  163 1    
    80   39   40 am   BACKBONE|DICT|INTERRES
    81   39  164 1    
    82   40   41 2    
    83   40   42 1    
    84   42   43 1    
    85   42   44 1    
    86   42  165 1    
    87   43  166 1    
    88   43  167 1    
    89   43  168 1    
    90   44   45 am   BACKBONE|DICT|INTERRES
    91   44  169 1    
    92   45   46 2    
    93   45   47 1    
    94   47   48 1    
    95   47   49 1    
    96   47  170 1    
    97   48  171 1    
    98   48  172 1    
    99   48  173 1    
   100   49   50 am   BACKBONE|DICT|INTERRES
   101   49  174 1    
   102   50   51 2    
   103   50   52 1    
   104   52   53 1    
   105   52   54 1    
   106   52  175 1    
   107   53  176 1    
   108   53  177 1    
   109   53  178 1    
   110   54   55 am   BACKBONE|DICT|INTERRES
   111   54  179 1    
   112   55   56 2    
   113   55   57 1    
   114   57   58 1    
   115   57   59 1    
   116   57  180 1    
   117   58  181 1    
   118   58  182 1    
   119   58  183 1    
   120   59   60 am   BACKBONE|DICT|INTERRES
   121   59  184 1    
   122   60   61 2    
   123   60   62 1    
   124   62   63 1    
   125   62   64 1    
   126   62  185 1    
   127   63  186 1    
   128   63  187 1    
   129   63  188 1    
   130   64   65 am   BACKBONE|DICT|INTERRES
   131   64  189 1    
   132   65   66 2    
   133   67   68 2    
   134   67   69 am   BACKBONE|DICT|INTERRES
   135   69   70 1    
   136   69  190 1    
   137   70   71 1    
   138   70   72 1    
   139   70  191 1    
   140   71  192 1    
   141   71  193 1    
   142   71  194 1    
   143   72   73 2    
   144   72   74 am   BACKBONE|DICT|INTERRES
   145   74   75 1    
   146   74  195 1    
   147   75   76 1    
   148   75   77 1    
   149   75  196 1    
   150   76  197 1    
   151   76  198 1    
   152   76  199 1    
   153   77   78 2    
   154   77   79 am   BACKBONE|DICT|INTERRES
   155   79   80 1    
   156   79  200 1    
   157   80   81 1    
   158   80   82 1    
   159   80  201 1    
   160   81  202 1    
   161   81  203 1    
   162   81  204 1    
   163   82   83 2    
   164   82   84 am   BACKBONE|DICT|INTERRES
   165   84   85 1    
   166   84  205 1    
   167   85   86 1    
   168   85   87 1    
   169   85  206 1    
   170   86  207 1    
   171   86  208 1    
   172   86  209 1    
   173   87   88 2    
   174   87   89 am   BACKBONE|DICT|INTERRES
   175   89   90 1    
   176   89  210 1    
   177   90   91 1    
   178   90   92 1    
   179   90  211 1    
   180   91  212 1    
   181   91  213 1    
   182   91  214 1    
   183   92   93 2    
   184   92   94 am   BACKBONE|DICT|INTERRES
   185   94   95 1    
   186   94  215 1    
   187   95   96 1    
   188   95   97 1    
   189   95  216 1    
   190   96  217 1    
   191   96  218 1    
   192   96  219 1    
   193   97   98 2    
   194   97   99 am   BACKBONE|DICT|INTERRES
   195   99  100 1    
   196   99  220 1    
   197  100  101 1    
   198  100  102 1    
   199  100  221 1    
   200  101  222 1    
   201  101  223 1    
   202  101  224 1    
   203  102  103 2    
   204  102  104 am   BACKBONE|DICT|INTERRES
   205  104  105 1    
   206  104  225 1    
   207  105  106 1    
   208  105  107 1    
   209  105  226 1    
   210  106  227 1    
   211  106  228 1    
   212  106  229 1    
   213  107  108 2    
   214  107  109 am   BACKBONE|DICT|INTERRES
   215  109  110 1    
   216  109  230 1    
   217  110  111 1    
   218  110  112 1    
   219  110  231 1    
   220  111  232 1    
   221  111  233 1    
   222  111  234 1    
   223  112  113 2    
   224  112  114 am   BACKBONE|DICT|INTERRES
   225  114  115 1    
   226  114  235 1    
   227  115  116 1    
   228  115  117 1    
   229  115  236 1    
   230  116  237 1    
   231  116  238 1    
   232  116  239 1    
   233  117  118 2    
   234  117  119 am   BACKBONE|DICT|INTERRES
   235  119  120 1    
   236  119  240 1    
   237  120  121 1    
   238  120  124 1    
   239  120  241 1    
   240  121  122 am   BACKBONE|DICT|INTERRES
   241  121  123 2    
   242  122  242 1    
   243  122  243 1    
   244  124  125 1    
   245  124  244 1    
   246  124  245 1    
   247  125  126 1    
   248  126  246 1    
   249  126  247 1    
@<TRIPOS>SUBSTRUCTURE
     1 UNK         1 GROUP             0       ****    0 ROOT    
