@<TRIPOS>MOLECULE
3R540
247   249    1
SMALL
USER_CHARGES


@<TRIPOS>ATOM
      1 CA         -4.2615   -8.0488  -48.2199 C.3       0 UNK        -0.1800 
      2 C          -4.9862   -9.3935  -48.2678 C.2       0 UNK         0.5000 
      3 O          -6.1669   -9.4514  -47.9290 O.2       0 UNK        -0.5000 
      4 N          -4.3450  -10.4919  -48.6905 N.am      1 UNK        -0.5000 
      5 CA         -2.9281  -10.6164  -49.0495 C.3       1 UNK         0.1400 
      6 C6         -2.6259  -11.9828  -49.7072 C.3       23 UNK        -0.0398 
      7 S7         -3.3985  -12.1711  -51.3505 S.3       23 UNK        -0.2404 
      8 C8         -3.7481  -13.9636  -51.4135 C.3       23 UNK        -0.0205 
      9 C9         -2.5835  -14.8151  -50.9211 C.ar      23 UNK        -0.0193 
     10 C10        -1.3316  -14.7364  -51.5387 C.ar      23 UNK        -0.1150 
     11 C11        -0.2467  -15.4648  -51.0420 C.ar      23 UNK        -0.0193 
     12 C12        -0.4273  -16.2970  -49.9340 C.ar      23 UNK        -0.1150 
     13 C13        -1.6785  -16.4010  -49.3222 C.ar      23 UNK        -0.0193 
     14 C14        -2.7522  -15.6586  -49.8196 C.ar      23 UNK        -0.1150 
     15 C15        -1.8686  -17.2845  -48.1022 C.3       23 UNK        -0.0205 
     16 S16        -2.3508  -18.9736  -48.5701 S.3       23 UNK        -0.2404 
     17 C17        -3.1747  -19.4994  -47.0326 C.3       23 UNK        -0.0398 
     18 CA         -3.1298  -21.0293  -46.8216 C.3       11 UNK         0.1400 
     19 N          -1.7860  -21.5095  -46.4923 N.am      11 UNK        -0.5000 
     20 C          -1.3793  -22.7831  -46.5708 C.2       10 UNK         0.5000 
     21 O          -2.0642  -23.6943  -47.0386 O.2       10 UNK        -0.5000 
     22 CA          0.0301  -23.1001  -46.0338 C.3       10 UNK         0.1400 
     23 CB          1.0806  -22.9695  -47.1462 C.3       10 UNK        -0.1800 
     24 N           0.4104  -22.2722  -44.8858 N.am      10 UNK        -0.5000 
     25 C          -0.1779  -22.3452  -43.6830 C.2       9 UNK         0.5000 
     26 O          -1.0779  -23.1403  -43.4170 O.2       9 UNK        -0.5000 
     27 CA          0.2702  -21.3344  -42.6109 C.3       9 UNK         0.1400 
     28 CB          1.5632  -21.7980  -41.9245 C.3       9 UNK        -0.1800 
     29 N           0.4448  -19.9838  -43.1452 N.am      9 UNK        -0.5000 
     30 C          -0.5456  -19.2432  -43.6642 C.2       8 UNK         0.5000 
     31 O          -1.7237  -19.5968  -43.6827 O.2       8 UNK        -0.5000 
     32 CA         -0.1488  -17.9166  -44.3365 C.3       8 UNK         0.1400 
     33 CB          0.0168  -16.7984  -43.2977 C.3       8 UNK        -0.1800 
     34 N           1.0734  -18.0329  -45.1304 N.am      8 UNK        -0.5000 
     35 C           1.2421  -18.8595  -46.1710 C.2       7 UNK         0.5000 
     36 O           0.3554  -19.5905  -46.6038 O.2       7 UNK        -0.5000 
     37 CA          2.6527  -18.9281  -46.7784 C.3       7 UNK         0.1400 
     38 CB          2.9286  -17.7336  -47.7037 C.3       7 UNK        -0.1800 
     39 N           3.6776  -18.9865  -45.7382 N.am      7 UNK        -0.5000 
     40 C           3.9015  -20.0529  -44.9593 C.2       6 UNK         0.5000 
     41 O           3.2897  -21.1162  -45.0633 O.2       6 UNK        -0.5000 
     42 CA          4.9693  -19.8900  -43.8614 C.3       6 UNK         0.1400 
     43 CB          6.3701  -20.1766  -44.4225 C.3       6 UNK        -0.1800 
     44 N           4.9553  -18.5586  -43.2505 N.am      6 UNK        -0.5000 
     45 C           3.9702  -18.1042  -42.4637 C.2       5 UNK         0.5000 
     46 O           2.9783  -18.7673  -42.1608 O.2       5 UNK        -0.5000 
     47 CA          4.0907  -16.6484  -41.9700 C.3       5 UNK         0.1400 
     48 CB          4.9999  -16.5711  -40.7344 C.3       5 UNK        -0.1800 
     49 N           4.5653  -15.6986  -42.9850 N.am      5 UNK        -0.5000 
     50 C           3.9791  -15.4973  -44.1724 C.2       4 UNK         0.5000 
     51 O           3.0347  -16.1716  -44.5834 O.2       4 UNK        -0.5000 
     52 CA          4.5620  -14.3909  -45.0710 C.3       4 UNK         0.1400 
     53 CB          5.8115  -14.9055  -45.8029 C.3       4 UNK        -0.1800 
     54 N           3.5817  -13.9560  -46.0692 N.am      4 UNK        -0.5000 
     55 C           2.4684  -13.2649  -45.7929 C.2       3 UNK         0.5000 
     56 O           2.2156  -12.7791  -44.6868 O.2       3 UNK        -0.5000 
     57 CA          1.4487  -13.1421  -46.9412 C.3       3 UNK         0.1400 
     58 CB          0.4725  -14.3305  -46.9232 C.3       3 UNK        -0.1800 
     59 N           0.6741  -11.9048  -46.8673 N.am      3 UNK        -0.5000 
     60 C           1.1570  -10.6767  -47.0893 C.2       2 UNK         0.5000 
     61 O           2.3243  -10.4516  -47.4151 O.2       2 UNK        -0.5000 
     62 CA          0.1366   -9.5239  -46.9873 C.3       2 UNK         0.1400 
     63 CB          0.7777   -8.1380  -47.1834 C.3       2 UNK        -0.1800 
     64 N          -0.9215   -9.6985  -47.9841 N.am      2 UNK        -0.5000 
     65 C          -2.0217  -10.4410  -47.8149 C.2       1 UNK         0.5000 
     66 O          -2.3017  -11.0159  -46.7606 O.2       1 UNK        -0.5000 
     67 C          -4.1742  -21.4484  -45.7665 C.2       11 UNK         0.5000 
     68 O          -5.3232  -21.6959  -46.1309 O.2       11 UNK        -0.5000 
     69 N          -3.7796  -21.5033  -44.4867 N.am      12 UNK        -0.5000 
     70 CA         -4.6218  -21.9809  -43.3880 C.3       12 UNK         0.1400 
     71 CB         -4.0114  -21.5499  -42.0455 C.3       12 UNK        -0.1800 
     72 C          -4.8200  -23.5069  -43.4400 C.2       12 UNK         0.5000 
     73 O          -5.9272  -23.9907  -43.1985 O.2       12 UNK        -0.5000 
     74 N          -3.7432  -24.2290  -43.7704 N.am      13 UNK        -0.5000 
     75 CA         -3.7332  -25.6620  -44.0464 C.3       13 UNK         0.1400 
     76 CB         -2.2800  -26.1588  -43.9419 C.3       13 UNK        -0.1800 
     77 C          -4.3204  -25.9895  -45.4345 C.2       13 UNK         0.5000 
     78 O          -4.6239  -25.0955  -46.2253 O.2       13 UNK        -0.5000 
     79 N          -4.4253  -27.2902  -45.7290 N.am      14 UNK        -0.5000 
     80 CA         -4.8185  -27.8121  -47.0410 C.3       14 UNK         0.1400 
     81 CB         -5.3318  -29.2498  -46.8584 C.3       14 UNK        -0.1800 
     82 C          -3.6787  -27.7694  -48.0846 C.2       14 UNK         0.5000 
     83 O          -3.9232  -28.0904  -49.2479 O.2       14 UNK        -0.5000 
     84 N          -2.4580  -27.4155  -47.6510 N.am      15 UNK        -0.5000 
     85 CA         -1.2269  -27.4032  -48.4442 C.3       15 UNK         0.1400 
     86 CB         -0.0443  -27.0284  -47.5373 C.3       15 UNK        -0.1800 
     87 C          -1.2906  -26.4793  -49.6734 C.2       15 UNK         0.5000 
     88 O          -0.9653  -26.9217  -50.7762 O.2       15 UNK        -0.5000 
     89 N          -1.7269  -25.2320  -49.4622 N.am      16 UNK        -0.5000 
     90 CA         -1.9986  -24.2623  -50.5231 C.3       16 UNK         0.1400 
     91 CB         -1.1174  -23.0193  -50.3351 C.3       16 UNK        -0.1800 
     92 C          -3.4797  -23.8665  -50.5311 C.2       16 UNK         0.5000 
     93 O          -4.0338  -23.6467  -51.6082 O.2       16 UNK        -0.5000 
     94 N          -4.0934  -23.7591  -49.3398 N.am      17 UNK        -0.5000 
     95 CA         -5.5110  -23.4476  -49.0963 C.3       17 UNK         0.1400 
     96 CB         -6.3962  -24.6058  -49.6017 C.3       17 UNK        -0.1800 
     97 C          -5.9858  -22.0817  -49.6502 C.2       17 UNK         0.5000 
     98 O          -7.1929  -21.8485  -49.7276 O.2       17 UNK        -0.5000 
     99 N          -5.0362  -21.2250  -50.0619 N.am      18 UNK        -0.5000 
    100 CA        -5.2121  -19.9915  -50.8375 C.3       18 UNK         0.1400 
    101 CB        -5.9517  -18.9163  -50.0147 C.3       18 UNK        -0.1800 
    102 C         -5.8603  -20.2312  -52.2212 C.2       18 UNK         0.5000 
    103 O         -6.4648  -19.3148  -52.7822 O.2       18 UNK        -0.5000 
    104 N         -5.7254  -21.4510  -52.7641 N.am      19 UNK        -0.5000 
    105 CA        -6.3404  -21.9027  -54.0135 C.3       19 UNK         0.1400 
    106 CB        -6.4960  -23.4331  -53.9604 C.3       19 UNK        -0.1800 
    107 C         -5.5481  -21.4236  -55.2464 C.2       19 UNK         0.5000 
    108 O         -5.0490  -22.2411  -56.0218 O.2       19 UNK        -0.5000 
    109 N         -5.4297  -20.0948  -55.3805 N.am      20 UNK        -0.5000 
    110 CA        -4.6846  -19.3600  -56.4108 C.3       20 UNK         0.1400 
    111 CB        -5.3215  -19.5658  -57.8014 C.3       20 UNK        -0.1800 
    112 C         -3.1671  -19.6524  -56.3936 C.2       20 UNK         0.5000 
    113 O         -2.5095  -19.5761  -57.4333 O.2       20 UNK        -0.5000 
    114 N         -2.6370  -19.9726  -55.2084 N.am      21 UNK        -0.5000 
    115 CA        -1.2363  -20.2743  -54.9508 C.3       21 UNK         0.1400 
    116 CB        -0.9704  -21.7672  -55.2110 C.3       21 UNK        -0.1800 
    117 C         -0.9210  -19.9067  -53.4963 C.2       21 UNK         0.5000 
    118 O         -1.8051  -19.9973  -52.6398 O.2       21 UNK        -0.5000 
    119 N          0.3329  -19.5132  -53.2547 N.am      22 UNK        -0.5000 
    120 CA         0.8515  -19.1215  -51.9331 C.3       22 UNK         0.1400 
    121 C          1.4079  -20.3119  -51.0995 C.2       22 UNK         0.5000 
    122 N          1.5750  -21.5011  -51.6660 N.am      22 UNK        -0.7600 
    123 O          1.7098  -20.1501  -49.9224 O.2       22 UNK        -0.5000 
    124 C124        1.9310  -18.0130  -52.0488 C.3       23 UNK        -0.0398 
    125 S125        1.3911  -16.5477  -52.9979 S.3       23 UNK        -0.2404 
    126 C126        1.1238  -15.3192  -51.6835 C.3       23 UNK        -0.0205 
    127 H127       -3.6730   -7.8742  -49.1198 H         1 UNK         0.0600 
    128 H128       -3.6047   -7.9969  -47.3517 H         1 UNK         0.0600 
    129 H129       -4.9816   -7.2341  -48.1402 H         1 UNK         0.0600 
    130 H130       -4.8593  -11.3601  -48.7102 H         1 UNK         0.3000 
    131 H131       -2.6874   -9.8355  -49.7732 H         1 UNK         0.0600 
    132 H132       -2.9536  -12.7919  -49.0517 H         1 UNK         0.0800 
    133 H133       -1.5512  -12.1206  -49.8455 H         1 UNK         0.0800 
    134 H134       -3.9861  -14.2437  -52.4404 H         1 UNK         0.0800 
    135 H135       -4.6457  -14.1621  -50.8257 H         1 UNK         0.0800 
    136 H136       -1.1962  -14.0827  -52.3891 H         1 UNK         0.1150 
    137 H137        0.4044  -16.8623  -49.5436 H         1 UNK         0.1150 
    138 H138       -3.7167  -15.7280  -49.3363 H         1 UNK         0.1150 
    139 H139       -0.9501  -17.3185  -47.5165 H         1 UNK         0.0800 
    140 H140       -2.6300  -16.8478  -47.4541 H         1 UNK         0.0800 
    141 H141       -4.2044  -19.1419  -47.0864 H         1 UNK         0.0800 
    142 H142       -2.7217  -18.9905  -46.1808 H         1 UNK         0.0800 
    143 H143       -3.4261  -21.5044  -47.7568 H         1 UNK         0.0600 
    144 H144       -1.1040  -20.8044  -46.2259 H         1 UNK         0.3000 
    145 H145        0.0267  -24.1381  -45.6977 H         1 UNK         0.0600 
    146 H146        2.0780  -23.2113  -46.7789 H         1 UNK         0.0600 
    147 H147        0.8619  -23.6526  -47.9676 H         1 UNK         0.0600 
    148 H148        1.1114  -21.9611  -47.5599 H         1 UNK         0.0600 
    149 H149        1.1591  -21.6048  -45.0306 H         1 UNK         0.3000 
    150 H150       -0.5140  -21.2903  -41.8524 H         1 UNK         0.0600 
    151 H151        1.4450  -22.7975  -41.5042 H         1 UNK         0.0600 
    152 H152        1.8348  -21.1314  -41.1059 H         1 UNK         0.0600 
    153 H153        2.4015  -21.8314  -42.6201 H         1 UNK         0.0600 
    154 H154        1.3825  -19.5972  -43.1138 H         1 UNK         0.3000 
    155 H155       -0.9559  -17.6326  -45.0138 H         1 UNK         0.0600 
    156 H156        0.8235  -17.0165  -42.5978 H         1 UNK         0.0600 
    157 H157       -0.8969  -16.6660  -42.7171 H         1 UNK         0.0600 
    158 H158        0.2406  -15.8451  -43.7773 H         1 UNK         0.0600 
    159 H159        1.8502  -17.4320  -44.8563 H         1 UNK         0.3000 
    160 H160        2.7159  -19.8405  -47.3752 H         1 UNK         0.0600 
    161 H161        3.9142  -17.8114  -48.1624 H         1 UNK         0.0600 
    162 H162        2.8794  -16.7837  -47.1730 H         1 UNK         0.0600 
    163 H163        2.2001  -17.7008  -48.5118 H         1 UNK         0.0600 
    164 H164        4.1712  -18.1294  -45.5389 H         1 UNK         0.3000 
    165 H165        4.7582  -20.6256  -43.0821 H         1 UNK         0.0600 
    166 H166        7.1246  -20.1404  -43.6365 H         1 UNK         0.0600 
    167 H167        6.4150  -21.1708  -44.8692 H         1 UNK         0.0600 
    168 H168        6.6519  -19.4575  -45.1927 H         1 UNK         0.0600 
    169 H169        5.7322  -17.9479  -43.4559 H         1 UNK         0.3000 
    170 H170        3.0909  -16.3268  -41.6717 H         1 UNK         0.0600 
    171 H171        4.6602  -17.2557  -39.9558 H         1 UNK         0.0600 
    172 H172        6.0309  -16.8331  -40.9751 H         1 UNK         0.0600 
    173 H173        4.9990  -15.5689  -40.3056 H         1 UNK         0.0600 
    174 H174        5.3512  -15.1207  -42.7241 H         1 UNK         0.3000 
    175 H175        4.8352  -13.5368  -44.4480 H         1 UNK         0.0600 
    176 H176        5.5842  -15.7667  -46.4330 H         1 UNK         0.0600 
    177 H177        6.2432  -14.1310  -46.4372 H         1 UNK         0.0600 
    178 H178        6.5843  -15.2107  -45.0964 H         1 UNK         0.0600 
    179 H179        3.6971  -14.3384  -46.9955 H         1 UNK         0.3000 
    180 H180        1.9867  -13.1489  -47.8916 H         1 UNK         0.0600 
    181 H181       -0.0939  -14.3718  -45.9920 H         1 UNK         0.0600 
    182 H182        1.0010  -15.2787  -47.0238 H         1 UNK         0.0600 
    183 H183       -0.2401  -14.2669  -47.7456 H         1 UNK         0.0600 
    184 H184       -0.2956  -11.9907  -46.5907 H         1 UNK         0.3000 
    185 H185       -0.2920   -9.5511  -45.9830 H         1 UNK         0.0600 
    186 H186        1.5620   -7.9627  -46.4459 H         1 UNK         0.0600 
    187 H187        1.2261   -8.0348  -48.1724 H         1 UNK         0.0600 
    188 H188        0.0401   -7.3438  -47.0659 H         1 UNK         0.0600 
    189 H189       -0.7387   -9.2909  -48.8903 H         1 UNK         0.3000 
    190 H190       -2.8450  -21.1914  -44.2459 H         1 UNK         0.3000 
    191 H191       -5.6039  -21.5117  -43.4776 H         1 UNK         0.0600 
    192 H192       -3.0217  -21.9806  -41.8937 H         1 UNK         0.0600 
    193 H193       -4.6391  -21.8679  -41.2123 H         1 UNK         0.0600 
    194 H194       -3.9159  -20.4655  -41.9865 H         1 UNK         0.0600 
    195 H195       -2.8623  -23.7431  -43.9071 H         1 UNK         0.3000 
    196 H196       -4.3360  -26.1694  -43.2906 H         1 UNK         0.0600 
    197 H197       -2.2152  -27.2420  -44.0479 H         1 UNK         0.0600 
    198 H198       -1.8481  -25.9073  -42.9728 H         1 UNK         0.0600 
    199 H199       -1.6486  -25.7124  -44.7111 H         1 UNK         0.0600 
    200 H200       -4.1678  -27.9761  -45.0336 H         1 UNK         0.3000 
    201 H201       -5.6400  -27.2072  -47.4299 H         1 UNK         0.0600 
    202 H202       -6.1696  -29.2842  -46.1617 H         1 UNK         0.0600 
    203 H203       -4.5514  -29.9109  -46.4796 H         1 UNK         0.0600 
    204 H204       -5.6827  -29.6647  -47.8043 H         1 UNK         0.0600 
    205 H205       -2.3665  -27.1612  -46.6801 H         1 UNK         0.3000 
    206 H206       -1.0647  -28.4203  -48.8068 H         1 UNK         0.0600 
    207 H207        0.0748  -27.7466  -46.7259 H         1 UNK         0.0600 
    208 H208        0.8908  -27.0149  -48.0987 H         1 UNK         0.0600 
    209 H209       -0.1754  -26.0416  -47.0945 H         1 UNK         0.0600 
    210 H210       -1.9442  -24.9391  -48.5143 H         1 UNK         0.3000 
    211 H211       -1.7724  -24.6878  -51.5029 H         1 UNK         0.0600 
    212 H212       -1.3720  -22.4609  -49.4352 H         1 UNK         0.0600 
    213 H213       -1.2287  -22.3368  -51.1783 H         1 UNK         0.0600 
    214 H214       -0.0651  -23.2931  -50.2727 H         1 UNK         0.0600 
    215 H215       -3.5480  -23.9161  -48.4985 H         1 UNK         0.3000 
    216 H216       -5.6308  -23.3982  -48.0156 H         1 UNK         0.0600 
    217 H217       -7.4306  -24.4788  -49.2808 H         1 UNK         0.0600 
    218 H218       -6.0527  -25.5629  -49.2104 H         1 UNK         0.0600 
    219 H219       -6.3968  -24.6698  -50.6902 H         1 UNK         0.0600 
    220 H220       -4.0790  -21.5306  -49.9679 H         1 UNK         0.3000 
    221 H221       -4.2074  -19.6173  -51.0394 H         1 UNK         0.0600 
    222 H222       -6.9965  -19.1790  -49.8483 H         1 UNK         0.0600 
    223 H223       -5.4841  -18.7696  -49.0426 H         1 UNK         0.0600 
    224 H224       -5.9345  -17.9534  -50.5266 H         1 UNK         0.0600 
    225 H225       -5.1703  -22.1451  -52.2717 H         1 UNK         0.3000 
    226 H226       -7.3423  -21.4747  -54.0869 H         1 UNK         0.0600 
    227 H227       -7.0030  -23.8063  -54.8510 H         1 UNK         0.0600 
    228 H228       -5.5296  -23.9347  -53.8970 H         1 UNK         0.0600 
    229 H229       -7.0878  -23.7389  -53.0975 H         1 UNK         0.0600 
    230 H230       -5.8576  -19.5273  -54.6541 H         1 UNK         0.3000 
    231 H231       -4.7866  -18.3036  -56.1588 H         1 UNK         0.0600 
    232 H232       -6.3889  -19.3456  -57.7828 H         1 UNK         0.0600 
    233 H233       -5.1956  -20.5884  -58.1582 H         1 UNK         0.0600 
    234 H234       -4.8688  -18.9046  -58.5411 H         1 UNK         0.0600 
    235 H235       -3.2234  -19.9812  -54.3842 H         1 UNK         0.3000 
    236 H236       -0.6073  -19.6696  -55.6079 H         1 UNK         0.0600 
    237 H237       -1.1875  -22.0328  -56.2458 H         1 UNK         0.0600 
    238 H238        0.0739  -22.0190  -55.0236 H         1 UNK         0.0600 
    239 H239       -1.5840  -22.4006  -54.5685 H         1 UNK         0.0600 
    240 H240        0.9916  -19.4615  -54.0179 H         1 UNK         0.3000 
    241 H241        0.0240  -18.7132  -51.3503 H         1 UNK         0.0600 
    242 H242        1.9527  -22.2557  -51.1171 H         1 UNK         0.3800 
    243 H243        1.3408  -21.6497  -52.6332 H         1 UNK         0.3800 
    244 H244        2.8202  -18.4091  -52.5424 H         1 UNK         0.0800 
    245 H245        2.2612  -17.6976  -51.0581 H         1 UNK         0.0800 
    246 H246        1.9097  -15.3887  -50.9300 H         1 UNK         0.0800 
    247 H247        1.2181  -14.3231  -52.1186 H         1 UNK         0.0800 
@<TRIPOS>BOND
     1    1    2 1    
     2    1  127 1    
     3    1  128 1    
     4    1  129 1    
     5    2    3 2    
     6    2    4 am   BACKBONE|DICT|INTERRES
     7    4    5 1    
     8    4  130 1    
     9    5    6 1    
    10    5   65 1    
    11    5  131 1    
    12    6    7 1    
    13    6  132 1    
    14    6  133 1    
    15    7    8 1    
    16    8    9 1    
    17    8  134 1    
    18    8  135 1    
    19    9   10 ar   
    20    9   14 ar   
    21   10   11 ar   
    22   10  136 1    
    23   11   12 ar   
    24   11  126 1    
    25   12   13 ar   
    26   12  137 1    
    27   13   14 ar   
    28   13   15 1    
    29   14  138 1    
    30   15   16 1    
    31   15  139 1    
    32   15  140 1    
    33   16   17 1    
    34   17   18 1    
    35   17  141 1    
    36   17  142 1    
    37   18   19 1    
    38   18   67 1    
    39   18  143 1    
    40   19   20 am   BACKBONE|DICT|INTERRES
    41   19  144 1    
    42   20   21 2    
    43   20   22 1    
    44   22   23 1    
    45   22   24 1    
    46   22  145 1    
    47   23  146 1    
    48   23  147 1    
    49   23  148 1    
    50   24   25 am   BACKBONE|DICT|INTERRES
    51   24  149 1    
    52   25   26 2    
    53   25   27 1    
    54   27   28 1    
    55   27   29 1    
    56   27  150 1    
    57   28  151 1    
    58   28  152 1    
    59   28  153 1    
    60   29   30 am   BACKBONE|DICT|INTERRES
    61   29  154 1    
    62   30   31 2    
    63   30   32 1    
    64   32   33 1    
    65   32   34 1    
    66   32  155 1    
    67   33  156 1    
    68   33  157 1    
    69   33  158 1    
    70   34   35 am   BACKBONE|DICT|INTERRES
    71   34  159 1    
    72   35   36 2    
    73   35   37 1    
    74   37   38 1    
    75   37   39 1    
    76   37  160 1    
    77   38  161 1    
    78   38  162 1    
    79   38  163 1    
    80   39   40 am   BACKBONE|DICT|INTERRES
    81   39  164 1    
    82   40   41 2    
    83   40   42 1    
    84   42   43 1    
    85   42   44 1    
    86   42  165 1    
    87   43  166 1    
    88   43  167 1    
    89   43  168 1    
    90   44   45 am   BACKBONE|DICT|INTERRES
    91   44  169 1    
    92   45   46 2    
    93   45   47 1    
    94   47   48 1    
    95   47   49 1    
    96   47  170 1    
    97   48  171 1    
    98   48  172 1    
    99   48  173 1    
   100   49   50 am   BACKBONE|DICT|INTERRES
   101   49  174 1    
   102   50   51 2    
   103   50   52 1    
   104   52   53 1    
   105   52   54 1    
   106   52  175 1    
   107   53  176 1    
   108   53  177 1    
   109   53  178 1    
   110   54   55 am   BACKBONE|DICT|INTERRES
   111   54  179 1    
   112   55   56 2    
   113   55   57 1    
   114   57   58 1    
   115   57   59 1    
   116   57  180 1    
   117   58  181 1    
   118   58  182 1    
   119   58  183 1    
   120   59   60 am   BACKBONE|DICT|INTERRES
   121   59  184 1    
   122   60   61 2    
   123   60   62 1    
   124   62   63 1    
   125   62   64 1    
   126   62  185 1    
   127   63  186 1    
   128   63  187 1    
   129   63  188 1    
   130   64   65 am   BACKBONE|DICT|INTERRES
   131   64  189 1    
   132   65   66 2    
   133   67   68 2    
   134   67   69 am   BACKBONE|DICT|INTERRES
   135   69   70 1    
   136   69  190 1    
   137   70   71 1    
   138   70   72 1    
   139   70  191 1    
   140   71  192 1    
   141   71  193 1    
   142   71  194 1    
   143   72   73 2    
   144   72   74 am   BACKBONE|DICT|INTERRES
   145   74   75 1    
   146   74  195 1    
   147   75   76 1    
   148   75   77 1    
   149   75  196 1    
   150   76  197 1    
   151   76  198 1    
   152   76  199 1    
   153   77   78 2    
   154   77   79 am   BACKBONE|DICT|INTERRES
   155   79   80 1    
   156   79  200 1    
   157   80   81 1    
   158   80   82 1    
   159   80  201 1    
   160   81  202 1    
   161   81  203 1    
   162   81  204 1    
   163   82   83 2    
   164   82   84 am   BACKBONE|DICT|INTERRES
   165   84   85 1    
   166   84  205 1    
   167   85   86 1    
   168   85   87 1    
   169   85  206 1    
   170   86  207 1    
   171   86  208 1    
   172   86  209 1    
   173   87   88 2    
   174   87   89 am   BACKBONE|DICT|INTERRES
   175   89   90 1    
   176   89  210 1    
   177   90   91 1    
   178   90   92 1    
   179   90  211 1    
   180   91  212 1    
   181   91  213 1    
   182   91  214 1    
   183   92   93 2    
   184   92   94 am   BACKBONE|DICT|INTERRES
   185   94   95 1    
   186   94  215 1    
   187   95   96 1    
   188   95   97 1    
   189   95  216 1    
   190   96  217 1    
   191   96  218 1    
   192   96  219 1    
   193   97   98 2    
   194   97   99 am   BACKBONE|DICT|INTERRES
   195   99  100 1    
   196   99  220 1    
   197  100  101 1    
   198  100  102 1    
   199  100  221 1    
   200  101  222 1    
   201  101  223 1    
   202  101  224 1    
   203  102  103 2    
   204  102  104 am   BACKBONE|DICT|INTERRES
   205  104  105 1    
   206  104  225 1    
   207  105  106 1    
   208  105  107 1    
   209  105  226 1    
   210  106  227 1    
   211  106  228 1    
   212  106  229 1    
   213  107  108 2    
   214  107  109 am   BACKBONE|DICT|INTERRES
   215  109  110 1    
   216  109  230 1    
   217  110  111 1    
   218  110  112 1    
   219  110  231 1    
   220  111  232 1    
   221  111  233 1    
   222  111  234 1    
   223  112  113 2    
   224  112  114 am   BACKBONE|DICT|INTERRES
   225  114  115 1    
   226  114  235 1    
   227  115  116 1    
   228  115  117 1    
   229  115  236 1    
   230  116  237 1    
   231  116  238 1    
   232  116  239 1    
   233  117  118 2    
   234  117  119 am   BACKBONE|DICT|INTERRES
   235  119  120 1    
   236  119  240 1    
   237  120  121 1    
   238  120  124 1    
   239  120  241 1    
   240  121  122 am   BACKBONE|DICT|INTERRES
   241  121  123 2    
   242  122  242 1    
   243  122  243 1    
   244  124  125 1    
   245  124  244 1    
   246  124  245 1    
   247  125  126 1    
   248  126  246 1    
   249  126  247 1    
@<TRIPOS>SUBSTRUCTURE
     1 UNK         1 GROUP             0       ****    0 ROOT    
