@<TRIPOS>MOLECULE
3R540
247   249    1
SMALL
USER_CHARGES


@<TRIPOS>ATOM
      1 CA          5.4073  -15.0672  -46.3911 C.3       0 UNK        -0.1800 
      2 C           4.4452  -14.8272  -47.5464 C.2       0 UNK         0.5000 
      3 O           4.5720  -13.8203  -48.2430 O.2       0 UNK        -0.5000 
      4 N           3.4877  -15.7451  -47.7392 N.am      1 UNK        -0.5000 
      5 CA          2.4194  -15.7067  -48.7499 C.3       1 UNK         0.1400 
      6 C6          2.9405  -15.6966  -50.2171 C.3       23 UNK        -0.0398 
      7 S7          3.8097  -17.2351  -50.6806 S.3       23 UNK        -0.2404 
      8 C8          3.0622  -17.6183  -52.3014 C.3       23 UNK        -0.0205 
      9 C9          1.7476  -18.3739  -52.1655 C.ar      23 UNK        -0.0193 
     10 C10         0.5440  -17.6821  -52.0132 C.ar      23 UNK        -0.1150 
     11 C11        -0.6650  -18.3708  -51.8925 C.ar      23 UNK        -0.0193 
     12 C12        -0.6608  -19.7683  -51.9026 C.ar      23 UNK        -0.1150 
     13 C13         0.5354  -20.4795  -52.0472 C.ar      23 UNK        -0.0193 
     14 C14         1.7331  -19.7708  -52.2051 C.ar      23 UNK        -0.1150 
     15 C15         0.4975  -22.0081  -52.0423 C.3       23 UNK        -0.0205 
     16 S16         1.9297  -22.8428  -51.2583 S.3       23 UNK        -0.2404 
     17 C17         2.1715  -21.9435  -49.6840 C.3       23 UNK        -0.0398 
     18 CA          1.3990  -22.5109  -48.4705 C.3       11 UNK         0.1400 
     19 N           1.9413  -21.9483  -47.2322 N.am      11 UNK        -0.5000 
     20 C           1.4766  -22.1207  -45.9887 C.2       10 UNK         0.5000 
     21 O           0.5478  -22.8733  -45.6966 O.2       10 UNK        -0.5000 
     22 CA          2.1199  -21.2486  -44.8947 C.3       10 UNK         0.1400 
     23 CB          3.5781  -20.8483  -45.2077 C.3       10 UNK        -0.1800 
     24 N           1.3312  -20.0492  -44.5998 N.am      10 UNK        -0.5000 
     25 C           0.8724  -19.1232  -45.4589 C.2       9 UNK         0.5000 
     26 O           0.9681  -19.1899  -46.6849 O.2       9 UNK        -0.5000 
     27 CA          0.2403  -17.8731  -44.8277 C.3       9 UNK         0.1400 
     28 CB         -1.1392  -18.1881  -44.2305 C.3       9 UNK        -0.1800 
     29 N           1.0983  -17.3010  -43.7938 N.am      9 UNK        -0.5000 
     30 C           2.3283  -16.8087  -43.9997 C.2       8 UNK         0.5000 
     31 O           2.8592  -16.7344  -45.1075 O.2       8 UNK        -0.5000 
     32 CA          3.1032  -16.3467  -42.7551 C.3       8 UNK         0.1400 
     33 CB          2.6953  -14.9232  -42.3464 C.3       8 UNK        -0.1800 
     34 N           2.8903  -17.2635  -41.6348 N.am      8 UNK        -0.5000 
     35 C           3.5574  -18.4144  -41.4686 C.2       7 UNK         0.5000 
     36 O           4.4904  -18.7724  -42.1871 O.2       7 UNK        -0.5000 
     37 CA          3.1147  -19.3245  -40.3058 C.3       7 UNK         0.1400 
     38 CB          3.9834  -19.0685  -39.0648 C.3       7 UNK        -0.1800 
     39 N           1.7070  -19.1578  -39.9413 N.am      7 UNK        -0.5000 
     40 C           0.6690  -19.5672  -40.6840 C.2       6 UNK         0.5000 
     41 O           0.7835  -20.1554  -41.7595 O.2       6 UNK        -0.5000 
     42 CA         -0.7329  -19.1990  -40.1567 C.3       6 UNK         0.1400 
     43 CB         -1.2366  -20.2624  -39.1701 C.3       6 UNK        -0.1800 
     44 N          -0.7785  -17.8761  -39.5198 N.am      6 UNK        -0.5000 
     45 C          -0.5016  -16.7325  -40.1584 C.2       5 UNK         0.5000 
     46 O          -0.1918  -16.6845  -41.3523 O.2       5 UNK        -0.5000 
     47 CA         -0.5105  -15.4390  -39.3325 C.3       5 UNK         0.1400 
     48 CB          0.7454  -15.3587  -38.4432 C.3       5 UNK        -0.1800 
     49 N          -0.5290  -14.3354  -40.2830 N.am      5 UNK        -0.5000 
     50 C          -0.7447  -13.0387  -40.0436 C.2       4 UNK         0.5000 
     51 O          -0.9593  -12.5698  -38.9254 O.2       4 UNK        -0.5000 
     52 CA         -0.7261  -12.1115  -41.2757 C.3       4 UNK         0.1400 
     53 CB          0.6684  -11.4952  -41.4659 C.3       4 UNK        -0.1800 
     54 N          -1.1049  -12.8126  -42.5054 N.am      4 UNK        -0.5000 
     55 C          -2.3539  -13.1663  -42.8312 C.2       3 UNK         0.5000 
     56 O          -3.3381  -12.8533  -42.1590 O.2       3 UNK        -0.5000 
     57 CA         -2.5268  -14.0145  -44.1124 C.3       3 UNK         0.1400 
     58 CB         -3.9946  -14.1138  -44.5658 C.3       3 UNK        -0.1800 
     59 N          -1.7176  -13.5513  -45.2445 N.am      3 UNK        -0.5000 
     60 C          -0.4078  -13.7689  -45.4042 C.2       2 UNK         0.5000 
     61 O           0.2999  -14.3111  -44.5552 O.2       2 UNK        -0.5000 
     62 CA          0.2261  -13.2721  -46.7059 C.3       2 UNK         0.1400 
     63 CB          0.9629  -11.9412  -46.4841 C.3       2 UNK        -0.1800 
     64 N           1.1675  -14.2824  -47.1773 N.am      2 UNK        -0.5000 
     65 C           1.4078  -14.5695  -48.4632 C.2       1 UNK         0.5000 
     66 O           0.8589  -13.9794  -49.3957 O.2       1 UNK        -0.5000 
     67 C          -0.1147  -22.2523  -48.6166 C.2       11 UNK         0.5000 
     68 O          -0.8569  -23.1743  -48.9493 O.2       11 UNK        -0.5000 
     69 N          -0.5499  -21.0173  -48.3293 N.am      12 UNK        -0.5000 
     70 CA         -1.9469  -20.5977  -48.4216 C.3       12 UNK         0.1400 
     71 CB         -2.0285  -19.0695  -48.2960 C.3       12 UNK        -0.1800 
     72 C          -2.8395  -21.2825  -47.3726 C.2       12 UNK         0.5000 
     73 O          -3.9760  -21.6345  -47.6845 O.2       12 UNK        -0.5000 
     74 N          -2.3000  -21.4919  -46.1636 N.am      13 UNK        -0.5000 
     75 CA         -2.9732  -22.2070  -45.0795 C.3       13 UNK         0.1400 
     76 CB         -2.2699  -21.9096  -43.7454 C.3       13 UNK        -0.1800 
     77 C          -3.0441  -23.7211  -45.3441 C.2       13 UNK         0.5000 
     78 O          -4.0712  -24.3378  -45.0608 O.2       13 UNK        -0.5000 
     79 N          -1.9607  -24.2842  -45.8963 N.am      14 UNK        -0.5000 
     80 CA         -1.8533  -25.6906  -46.2789 C.3       14 UNK         0.1400 
     81 CB         -0.3877  -26.0204  -46.6026 C.3       14 UNK        -0.1800 
     82 C          -2.7713  -26.0554  -47.4592 C.2       14 UNK         0.5000 
     83 O          -3.4535  -27.0794  -47.4014 O.2       14 UNK        -0.5000 
     84 N          -2.7744  -25.2148  -48.5030 N.am      15 UNK        -0.5000 
     85 CA         -3.5976  -25.3890  -49.6987 C.3       15 UNK         0.1400 
     86 CB         -3.0410  -24.5159  -50.8328 C.3       15 UNK        -0.1800 
     87 C          -5.0848  -25.0856  -49.4451 C.2       15 UNK         0.5000 
     88 O          -5.9396  -25.7713  -50.0074 O.2       15 UNK        -0.5000 
     89 N          -5.3686  -24.0820  -48.6001 N.am      16 UNK        -0.5000 
     90 CA         -6.6970  -23.6274  -48.1809 C.3       16 UNK         0.1400 
     91 CB         -7.3458  -24.6664  -47.2397 C.3       16 UNK        -0.1800 
     92 C          -7.5711  -23.2403  -49.3911 C.2       16 UNK         0.5000 
     93 O          -7.3061  -22.2189  -50.0238 O.2       16 UNK        -0.5000 
     94 N          -8.5657  -24.0725  -49.7260 N.am      17 UNK        -0.5000 
     95 CA         -9.4330  -23.9139  -50.8958 C.3       17 UNK         0.1400 
     96 CB        -10.5738  -24.9393  -50.8104 C.3       17 UNK        -0.1800 
     97 C          -8.6926  -24.0421  -52.2443 C.2       17 UNK         0.5000 
     98 O          -9.1706  -23.5060  -53.2445 O.2       17 UNK        -0.5000 
     99 N          -7.5427  -24.7316  -52.2531 N.am      18 UNK        -0.5000 
    100 CA        -6.6957  -24.9296  -53.4300 C.3       18 UNK         0.1400 
    101 CB        -6.0154  -26.3058  -53.3304 C.3       18 UNK        -0.1800 
    102 C         -5.6537  -23.8089  -53.6272 C.2       18 UNK         0.5000 
    103 O         -4.8457  -23.9092  -54.5523 O.2       18 UNK        -0.5000 
    104 N         -5.6608  -22.7693  -52.7767 N.am      19 UNK        -0.5000 
    105 CA        -4.7697  -21.6060  -52.8509 C.3       19 UNK         0.1400 
    106 CB        -4.7455  -20.8994  -51.4832 C.3       19 UNK        -0.1800 
    107 C         -5.1635  -20.6498  -53.9996 C.2       19 UNK         0.5000 
    108 O         -5.5866  -19.5185  -53.7569 O.2       19 UNK        -0.5000 
    109 N         -5.0512  -21.1416  -55.2365 N.am      20 UNK        -0.5000 
    110 CA        -5.2886  -20.3981  -56.4688 C.3       20 UNK         0.1400 
    111 CB        -5.7379  -21.3873  -57.5555 C.3       20 UNK        -0.1800 
    112 C         -4.0170  -19.6552  -56.9128 C.2       20 UNK         0.5000 
    113 O         -2.9054  -20.1027  -56.6159 O.2       20 UNK        -0.5000 
    114 N         -4.2152  -18.5568  -57.6541 N.am      21 UNK        -0.5000 
    115 CA        -3.2228  -17.6664  -58.2724 C.3       21 UNK         0.1400 
    116 CB        -2.3452  -18.4161  -59.2943 C.3       21 UNK        -0.1800 
    117 C         -2.3665  -16.8685  -57.2698 C.2       21 UNK         0.5000 
    118 O         -2.3517  -15.6391  -57.3413 O.2       21 UNK        -0.5000 
    119 N         -1.6818  -17.5725  -56.3604 N.am      22 UNK        -0.5000 
    120 CA        -0.8336  -17.0320  -55.2813 C.3       22 UNK         0.1400 
    121 C          0.4325  -16.2534  -55.7583 C.2       22 UNK         0.5000 
    122 N          0.8858  -16.4257  -56.9941 N.am      22 UNK        -0.7600 
    123 O          1.0387  -15.5079  -54.9935 O.2       22 UNK        -0.5000 
    124 C124       -1.6584  -16.2572  -54.2136 C.3       23 UNK        -0.0398 
    125 S125       -2.8206  -17.3555  -53.3320 S.3       23 UNK        -0.2404 
    126 C126       -1.9703  -17.6013  -51.7400 C.3       23 UNK        -0.0205 
    127 H127        6.4317  -14.8642  -46.7031 H         1 UNK         0.0600 
    128 H128        5.3620  -16.0972  -46.0365 H         1 UNK         0.0600 
    129 H129        5.1640  -14.4075  -45.5582 H         1 UNK         0.0600 
    130 H130        3.4018  -16.4870  -47.0513 H         1 UNK         0.3000 
    131 H131        1.8505  -16.6283  -48.6146 H         1 UNK         0.0600 
    132 H132        2.1177  -15.5477  -50.9130 H         1 UNK         0.0800 
    133 H133        3.6112  -14.8553  -50.3912 H         1 UNK         0.0800 
    134 H134        3.7707  -18.2179  -52.8748 H         1 UNK         0.0800 
    135 H135        2.9160  -16.7019  -52.8757 H         1 UNK         0.0800 
    136 H136        0.5428  -16.6030  -52.0030 H         1 UNK         0.1150 
    137 H137       -1.5940  -20.3030  -51.8005 H         1 UNK         0.1150 
    138 H138        2.6627  -20.3067  -52.3336 H         1 UNK         0.1150 
    139 H139       -0.4108  -22.3577  -51.5498 H         1 UNK         0.0800 
    140 H140        0.4267  -22.3498  -53.0754 H         1 UNK         0.0800 
    141 H141        1.9685  -20.8793  -49.8020 H         1 UNK         0.0800 
    142 H142        3.2417  -22.0019  -49.4807 H         1 UNK         0.0800 
    143 H143        1.5530  -23.5907  -48.4266 H         1 UNK         0.0600 
    144 H144        2.6741  -21.2641  -47.3490 H         1 UNK         0.3000 
    145 H145        2.1274  -21.8496  -43.9841 H         1 UNK         0.0600 
    146 H146        3.6469  -20.1425  -46.0362 H         1 UNK         0.0600 
    147 H147        4.0409  -20.3755  -44.3420 H         1 UNK         0.0600 
    148 H148        4.1835  -21.7207  -45.4570 H         1 UNK         0.0600 
    149 H149        1.1461  -19.9062  -43.6097 H         1 UNK         0.3000 
    150 H150        0.1132  -17.1248  -45.6127 H         1 UNK         0.0600 
    151 H151       -1.8034  -18.6360  -44.9692 H         1 UNK         0.0600 
    152 H152       -1.6229  -17.2845  -43.8627 H         1 UNK         0.0600 
    153 H153       -1.0624  -18.8812  -43.3942 H         1 UNK         0.0600 
    154 H154        0.7018  -17.2413  -42.8602 H         1 UNK         0.3000 
    155 H155        4.1654  -16.3289  -43.0088 H         1 UNK         0.0600 
    156 H156        1.6354  -14.8594  -42.1049 H         1 UNK         0.0600 
    157 H157        3.2593  -14.5825  -41.4782 H         1 UNK         0.0600 
    158 H158        2.8849  -14.2186  -43.1573 H         1 UNK         0.0600 
    159 H159        2.1074  -17.0652  -41.0300 H         1 UNK         0.3000 
    160 H160        3.2656  -20.3589  -40.6220 H         1 UNK         0.0600 
    161 H161        5.0409  -19.2098  -39.2923 H         1 UNK         0.0600 
    162 H162        3.8613  -18.0513  -38.6904 H         1 UNK         0.0600 
    163 H163        3.7316  -19.7569  -38.2579 H         1 UNK         0.0600 
    164 H164        1.5166  -18.6831  -39.0713 H         1 UNK         0.3000 
    165 H165       -1.4126  -19.1819  -41.0109 H         1 UNK         0.0600 
    166 H166       -2.2605  -20.0565  -38.8574 H         1 UNK         0.0600 
    167 H167       -1.2313  -21.2526  -39.6281 H         1 UNK         0.0600 
    168 H168       -0.6147  -20.3106  -38.2754 H         1 UNK         0.0600 
    169 H169       -1.0219  -17.8511  -38.5398 H         1 UNK         0.3000 
    170 H170       -1.4149  -15.4086  -38.7223 H         1 UNK         0.0600 
    171 H171        0.7919  -16.1974  -37.7479 H         1 UNK         0.0600 
    172 H172        1.6599  -15.3719  -39.0379 H         1 UNK         0.0600 
    173 H173        0.7524  -14.4483  -37.8441 H         1 UNK         0.0600 
    174 H174       -0.3974  -14.6414  -41.2396 H         1 UNK         0.3000 
    175 H175       -1.4377  -11.3025  -41.0975 H         1 UNK         0.0600 
    176 H176        1.4240  -12.2578  -41.6570 H         1 UNK         0.0600 
    177 H177        0.6793  -10.7960  -42.3022 H         1 UNK         0.0600 
    178 H178        0.9760  -10.9434  -40.5767 H         1 UNK         0.0600 
    179 H179       -0.3555  -13.1390  -43.1074 H         1 UNK         0.3000 
    180 H180       -2.1996  -15.0223  -43.8520 H         1 UNK         0.0600 
    181 H181       -4.4014  -13.1359  -44.8261 H         1 UNK         0.0600 
    182 H182       -4.6229  -14.5342  -43.7795 H         1 UNK         0.0600 
    183 H183       -4.0954  -14.7627  -45.4361 H         1 UNK         0.0600 
    184 H184       -2.2176  -13.0494  -45.9642 H         1 UNK         0.3000 
    185 H185       -0.5664  -13.1266  -47.4432 H         1 UNK         0.0600 
    186 H186        1.4004  -11.5741  -47.4127 H         1 UNK         0.0600 
    187 H187        0.2815  -11.1724  -46.1179 H         1 UNK         0.0600 
    188 H188        1.7670  -12.0447  -45.7542 H         1 UNK         0.0600 
    189 H189        1.6227  -14.8200  -46.4491 H         1 UNK         0.3000 
    190 H190        0.1120  -20.3281  -47.9814 H         1 UNK         0.3000 
    191 H191       -2.3157  -20.8791  -49.4100 H         1 UNK         0.0600 
    192 H192       -1.7399  -18.7283  -47.3030 H         1 UNK         0.0600 
    193 H193       -3.0436  -18.7170  -48.4827 H         1 UNK         0.0600 
    194 H194       -1.3711  -18.5784  -49.0125 H         1 UNK         0.0600 
    195 H195       -1.3335  -21.2422  -46.0147 H         1 UNK         0.3000 
    196 H196       -3.9984  -21.8372  -45.0069 H         1 UNK         0.0600 
    197 H197       -2.7251  -22.4730  -42.9299 H         1 UNK         0.0600 
    198 H198       -2.3493  -20.8546  -43.4879 H         1 UNK         0.0600 
    199 H199       -1.2117  -22.1708  -43.7725 H         1 UNK         0.0600 
    200 H200       -1.1321  -23.7120  -46.0339 H         1 UNK         0.3000 
    201 H201       -2.1547  -26.2962  -45.4217 H         1 UNK         0.0600 
    202 H202        0.2567  -25.8324  -45.7436 H         1 UNK         0.0600 
    203 H203       -0.0143  -25.4240  -47.4356 H         1 UNK         0.0600 
    204 H204       -0.2737  -27.0710  -46.8724 H         1 UNK         0.0600 
    205 H205       -2.1397  -24.4187  -48.5026 H         1 UNK         0.3000 
    206 H206       -3.5234  -26.4318  -50.0146 H         1 UNK         0.0600 
    207 H207       -2.0015  -24.7652  -51.0466 H         1 UNK         0.0600 
    208 H208       -3.6025  -24.6643  -51.7538 H         1 UNK         0.0600 
    209 H209       -3.0825  -23.4560  -50.5833 H         1 UNK         0.0600 
    210 H210       -4.6030  -23.5245  -48.2382 H         1 UNK         0.3000 
    211 H211       -6.5461  -22.7121  -47.6070 H         1 UNK         0.0600 
    212 H212       -7.4745  -25.6385  -47.7165 H         1 UNK         0.0600 
    213 H213       -8.3246  -24.3292  -46.8961 H         1 UNK         0.0600 
    214 H214       -6.7299  -24.8181  -46.3529 H         1 UNK         0.0600 
    215 H215       -8.6942  -24.9102  -49.1772 H         1 UNK         0.3000 
    216 H216       -9.8685  -22.9133  -50.8570 H         1 UNK         0.0600 
    217 H217      -11.2601  -24.8320  -51.6515 H         1 UNK         0.0600 
    218 H218      -11.1567  -24.8069  -49.8987 H         1 UNK         0.0600 
    219 H219      -10.1960  -25.9625  -50.8233 H         1 UNK         0.0600 
    220 H220       -7.1949  -25.1247  -51.3826 H         1 UNK         0.3000 
    221 H221       -7.3223  -24.9389  -54.3241 H         1 UNK         0.0600 
    222 H222       -5.3032  -26.3491  -52.5069 H         1 UNK         0.0600 
    223 H223       -6.7482  -27.0990  -53.1822 H         1 UNK         0.0600 
    224 H224       -5.4686  -26.5392  -54.2448 H         1 UNK         0.0600 
    225 H225       -6.3643  -22.7422  -52.0495 H         1 UNK         0.3000 
    226 H226       -3.7562  -21.9595  -53.0531 H         1 UNK         0.0600 
    227 H227       -4.4771  -21.5842  -50.6794 H         1 UNK         0.0600 
    228 H228       -4.0190  -20.0874  -51.4783 H         1 UNK         0.0600 
    229 H229       -5.7154  -20.4667  -51.2370 H         1 UNK         0.0600 
    230 H230       -4.7150  -22.0941  -55.3354 H         1 UNK         0.3000 
    231 H231       -6.0878  -19.6716  -56.3065 H         1 UNK         0.0600 
    232 H232       -5.9506  -20.8717  -58.4928 H         1 UNK         0.0600 
    233 H233       -6.6472  -21.9110  -57.2596 H         1 UNK         0.0600 
    234 H234       -4.9715  -22.1366  -57.7592 H         1 UNK         0.0600 
    235 H235       -5.1733  -18.2781  -57.8152 H         1 UNK         0.3000 
    236 H236       -3.8044  -16.9324  -58.8326 H         1 UNK         0.0600 
    237 H237       -1.6808  -17.7255  -59.8150 H         1 UNK         0.0600 
    238 H238       -2.9567  -18.9092  -60.0500 H         1 UNK         0.0600 
    239 H239       -1.7198  -19.1750  -58.8237 H         1 UNK         0.0600 
    240 H240       -1.8129  -18.5806  -56.3650 H         1 UNK         0.3000 
    241 H241       -0.4167  -17.9107  -54.7887 H         1 UNK         0.0600 
    242 H242        0.4110  -17.0433  -57.6325 H         1 UNK         0.3800 
    243 H243        1.7100  -15.9288  -57.2938 H         1 UNK         0.3800 
    244 H244       -1.0150  -15.7713  -53.4807 H         1 UNK         0.0800 
    245 H245       -2.2257  -15.4493  -54.6762 H         1 UNK         0.0800 
    246 H246       -1.7914  -16.6342  -51.2675 H         1 UNK         0.0800 
    247 H247       -2.6402  -18.1423  -51.0717 H         1 UNK         0.0800 
@<TRIPOS>BOND
     1    1    2 1    
     2    1  127 1    
     3    1  128 1    
     4    1  129 1    
     5    2    3 2    
     6    2    4 am   BACKBONE|DICT|INTERRES
     7    4    5 1    
     8    4  130 1    
     9    5    6 1    
    10    5   65 1    
    11    5  131 1    
    12    6    7 1    
    13    6  132 1    
    14    6  133 1    
    15    7    8 1    
    16    8    9 1    
    17    8  134 1    
    18    8  135 1    
    19    9   10 ar   
    20    9   14 ar   
    21   10   11 ar   
    22   10  136 1    
    23   11   12 ar   
    24   11  126 1    
    25   12   13 ar   
    26   12  137 1    
    27   13   14 ar   
    28   13   15 1    
    29   14  138 1    
    30   15   16 1    
    31   15  139 1    
    32   15  140 1    
    33   16   17 1    
    34   17   18 1    
    35   17  141 1    
    36   17  142 1    
    37   18   19 1    
    38   18   67 1    
    39   18  143 1    
    40   19   20 am   BACKBONE|DICT|INTERRES
    41   19  144 1    
    42   20   21 2    
    43   20   22 1    
    44   22   23 1    
    45   22   24 1    
    46   22  145 1    
    47   23  146 1    
    48   23  147 1    
    49   23  148 1    
    50   24   25 am   BACKBONE|DICT|INTERRES
    51   24  149 1    
    52   25   26 2    
    53   25   27 1    
    54   27   28 1    
    55   27   29 1    
    56   27  150 1    
    57   28  151 1    
    58   28  152 1    
    59   28  153 1    
    60   29   30 am   BACKBONE|DICT|INTERRES
    61   29  154 1    
    62   30   31 2    
    63   30   32 1    
    64   32   33 1    
    65   32   34 1    
    66   32  155 1    
    67   33  156 1    
    68   33  157 1    
    69   33  158 1    
    70   34   35 am   BACKBONE|DICT|INTERRES
    71   34  159 1    
    72   35   36 2    
    73   35   37 1    
    74   37   38 1    
    75   37   39 1    
    76   37  160 1    
    77   38  161 1    
    78   38  162 1    
    79   38  163 1    
    80   39   40 am   BACKBONE|DICT|INTERRES
    81   39  164 1    
    82   40   41 2    
    83   40   42 1    
    84   42   43 1    
    85   42   44 1    
    86   42  165 1    
    87   43  166 1    
    88   43  167 1    
    89   43  168 1    
    90   44   45 am   BACKBONE|DICT|INTERRES
    91   44  169 1    
    92   45   46 2    
    93   45   47 1    
    94   47   48 1    
    95   47   49 1    
    96   47  170 1    
    97   48  171 1    
    98   48  172 1    
    99   48  173 1    
   100   49   50 am   BACKBONE|DICT|INTERRES
   101   49  174 1    
   102   50   51 2    
   103   50   52 1    
   104   52   53 1    
   105   52   54 1    
   106   52  175 1    
   107   53  176 1    
   108   53  177 1    
   109   53  178 1    
   110   54   55 am   BACKBONE|DICT|INTERRES
   111   54  179 1    
   112   55   56 2    
   113   55   57 1    
   114   57   58 1    
   115   57   59 1    
   116   57  180 1    
   117   58  181 1    
   118   58  182 1    
   119   58  183 1    
   120   59   60 am   BACKBONE|DICT|INTERRES
   121   59  184 1    
   122   60   61 2    
   123   60   62 1    
   124   62   63 1    
   125   62   64 1    
   126   62  185 1    
   127   63  186 1    
   128   63  187 1    
   129   63  188 1    
   130   64   65 am   BACKBONE|DICT|INTERRES
   131   64  189 1    
   132   65   66 2    
   133   67   68 2    
   134   67   69 am   BACKBONE|DICT|INTERRES
   135   69   70 1    
   136   69  190 1    
   137   70   71 1    
   138   70   72 1    
   139   70  191 1    
   140   71  192 1    
   141   71  193 1    
   142   71  194 1    
   143   72   73 2    
   144   72   74 am   BACKBONE|DICT|INTERRES
   145   74   75 1    
   146   74  195 1    
   147   75   76 1    
   148   75   77 1    
   149   75  196 1    
   150   76  197 1    
   151   76  198 1    
   152   76  199 1    
   153   77   78 2    
   154   77   79 am   BACKBONE|DICT|INTERRES
   155   79   80 1    
   156   79  200 1    
   157   80   81 1    
   158   80   82 1    
   159   80  201 1    
   160   81  202 1    
   161   81  203 1    
   162   81  204 1    
   163   82   83 2    
   164   82   84 am   BACKBONE|DICT|INTERRES
   165   84   85 1    
   166   84  205 1    
   167   85   86 1    
   168   85   87 1    
   169   85  206 1    
   170   86  207 1    
   171   86  208 1    
   172   86  209 1    
   173   87   88 2    
   174   87   89 am   BACKBONE|DICT|INTERRES
   175   89   90 1    
   176   89  210 1    
   177   90   91 1    
   178   90   92 1    
   179   90  211 1    
   180   91  212 1    
   181   91  213 1    
   182   91  214 1    
   183   92   93 2    
   184   92   94 am   BACKBONE|DICT|INTERRES
   185   94   95 1    
   186   94  215 1    
   187   95   96 1    
   188   95   97 1    
   189   95  216 1    
   190   96  217 1    
   191   96  218 1    
   192   96  219 1    
   193   97   98 2    
   194   97   99 am   BACKBONE|DICT|INTERRES
   195   99  100 1    
   196   99  220 1    
   197  100  101 1    
   198  100  102 1    
   199  100  221 1    
   200  101  222 1    
   201  101  223 1    
   202  101  224 1    
   203  102  103 2    
   204  102  104 am   BACKBONE|DICT|INTERRES
   205  104  105 1    
   206  104  225 1    
   207  105  106 1    
   208  105  107 1    
   209  105  226 1    
   210  106  227 1    
   211  106  228 1    
   212  106  229 1    
   213  107  108 2    
   214  107  109 am   BACKBONE|DICT|INTERRES
   215  109  110 1    
   216  109  230 1    
   217  110  111 1    
   218  110  112 1    
   219  110  231 1    
   220  111  232 1    
   221  111  233 1    
   222  111  234 1    
   223  112  113 2    
   224  112  114 am   BACKBONE|DICT|INTERRES
   225  114  115 1    
   226  114  235 1    
   227  115  116 1    
   228  115  117 1    
   229  115  236 1    
   230  116  237 1    
   231  116  238 1    
   232  116  239 1    
   233  117  118 2    
   234  117  119 am   BACKBONE|DICT|INTERRES
   235  119  120 1    
   236  119  240 1    
   237  120  121 1    
   238  120  124 1    
   239  120  241 1    
   240  121  122 am   BACKBONE|DICT|INTERRES
   241  121  123 2    
   242  122  242 1    
   243  122  243 1    
   244  124  125 1    
   245  124  244 1    
   246  124  245 1    
   247  125  126 1    
   248  126  246 1    
   249  126  247 1    
@<TRIPOS>SUBSTRUCTURE
     1 UNK         1 GROUP             0       ****    0 ROOT    
