@<TRIPOS>MOLECULE
3R540
247   249    1
SMALL
USER_CHARGES


@<TRIPOS>ATOM
      1 CA         -3.5437  -19.1152  -46.7624 C.3       0 UNK        -0.1800 
      2 C          -3.4587  -17.6086  -46.9543 C.2       0 UNK         0.5000 
      3 O          -4.4345  -16.9019  -46.6997 O.2       0 UNK        -0.5000 
      4 N          -2.2983  -17.1120  -47.4015 N.am      1 UNK        -0.5000 
      5 CA         -2.0022  -15.6879  -47.5891 C.3       1 UNK         0.1400 
      6 C6         -0.7932  -15.4700  -48.5311 C.3       23 UNK        -0.0398 
      7 S7         -1.1769  -15.9480  -50.2470 S.3       23 UNK        -0.2404 
      8 C8          0.4889  -16.1365  -50.9539 C.3       23 UNK        -0.0205 
      9 C9          0.9172  -17.5948  -51.0204 C.ar      23 UNK        -0.0193 
     10 C10         0.8627  -18.2878  -52.2341 C.ar      23 UNK        -0.1150 
     11 C11         1.2981  -19.6138  -52.3156 C.ar      23 UNK        -0.0193 
     12 C12         1.7708  -20.2493  -51.1633 C.ar      23 UNK        -0.1150 
     13 C13         1.8340  -19.5721  -49.9423 C.ar      23 UNK        -0.0193 
     14 C14         1.4115  -18.2390  -49.8823 C.ar      23 UNK        -0.1150 
     15 C15         2.4402  -20.2806  -48.7324 C.3       23 UNK        -0.0205 
     16 S16         1.6997  -19.8360  -47.1267 S.3       23 UNK        -0.2404 
     17 C17         0.0798  -20.6643  -47.2156 C.3       23 UNK        -0.0398 
     18 CA          0.1059  -22.1515  -46.7822 C.3       11 UNK         0.1400 
     19 N           0.7514  -22.3757  -45.4841 N.am      11 UNK        -0.5000 
     20 C           1.0189  -23.5844  -44.9674 C.2       10 UNK         0.5000 
     21 O           0.8035  -24.6436  -45.5558 O.2       10 UNK        -0.5000 
     22 CA          1.5686  -23.6207  -43.5328 C.3       10 UNK         0.1400 
     23 CB          3.0961  -23.4570  -43.5230 C.3       10 UNK        -0.1800 
     24 N           0.9498  -22.5920  -42.6982 N.am      10 UNK        -0.5000 
     25 C          -0.3022  -22.6611  -42.2250 C.2       9 UNK         0.5000 
     26 O          -1.0467  -23.6250  -42.4054 O.2       9 UNK        -0.5000 
     27 CA         -0.8238  -21.4312  -41.4567 C.3       9 UNK         0.1400 
     28 CB         -0.3794  -21.4811  -39.9875 C.3       9 UNK        -0.1800 
     29 N          -0.3964  -20.1617  -42.0470 N.am      9 UNK        -0.5000 
     30 C          -0.7503  -19.7385  -43.2676 C.2       8 UNK         0.5000 
     31 O          -1.5044  -20.3593  -44.0135 O.2       8 UNK        -0.5000 
     32 CA         -0.1354  -18.4188  -43.7608 C.3       8 UNK         0.1400 
     33 CB         -1.0046  -17.2431  -43.2974 C.3       8 UNK        -0.1800 
     34 N           1.2537  -18.1813  -43.3576 N.am      8 UNK        -0.5000 
     35 C           2.2861  -19.0303  -43.4772 C.2       7 UNK         0.5000 
     36 O           2.1742  -20.2049  -43.8252 O.2       7 UNK        -0.5000 
     37 CA          3.6823  -18.4798  -43.1476 C.3       7 UNK         0.1400 
     38 CB          4.3301  -17.8978  -44.4136 C.3       7 UNK        -0.1800 
     39 N           3.6248  -17.4430  -42.1179 N.am      7 UNK        -0.5000 
     40 C           3.7929  -17.6585  -40.8067 C.2       6 UNK         0.5000 
     41 O           4.0635  -18.7586  -40.3238 O.2       6 UNK        -0.5000 
     42 CA          3.6324  -16.4433  -39.8704 C.3       6 UNK         0.1400 
     43 CB          4.9908  -15.7664  -39.6324 C.3       6 UNK        -0.1800 
     44 N           2.6836  -15.4453  -40.3685 N.am      6 UNK        -0.5000 
     45 C           1.3584  -15.6282  -40.4436 C.2       5 UNK         0.5000 
     46 O           0.7872  -16.6496  -40.0607 O.2       5 UNK        -0.5000 
     47 CA          0.5293  -14.4894  -41.0717 C.3       5 UNK         0.1400 
     48 CB          0.0663  -13.5127  -39.9801 C.3       5 UNK        -0.1800 
     49 N           1.1858  -13.7281  -42.1431 N.am      5 UNK        -0.5000 
     50 C           1.7937  -14.2289  -43.2284 C.2       4 UNK         0.5000 
     51 O           2.0115  -15.4287  -43.3949 O.2       4 UNK        -0.5000 
     52 CA          2.1753  -13.2144  -44.3186 C.3       4 UNK         0.1400 
     53 CB          2.8992  -13.8700  -45.5091 C.3       4 UNK        -0.1800 
     54 N           0.9459  -12.5949  -44.8003 N.am      4 UNK        -0.5000 
     55 C           0.5616  -11.3315  -44.5775 C.2       3 UNK         0.5000 
     56 O           1.2631  -10.4941  -44.0093 O.2       3 UNK        -0.5000 
     57 CA         -0.8613  -10.9434  -45.0354 C.3       3 UNK         0.1400 
     58 CB         -0.8205  -10.3078  -46.4332 C.3       3 UNK        -0.1800 
     59 N          -1.7907  -12.0761  -45.0551 N.am      3 UNK        -0.5000 
     60 C          -2.1738  -12.7743  -43.9768 C.2       2 UNK         0.5000 
     61 O          -1.8897  -12.4497  -42.8240 O.2       2 UNK        -0.5000 
     62 CA         -2.9827  -14.0669  -44.2132 C.3       2 UNK         0.1400 
     63 CB         -4.4627  -13.8415  -43.8695 C.3       2 UNK        -0.1800 
     64 N          -2.8978  -14.6432  -45.5618 N.am      2 UNK        -0.5000 
     65 C          -1.7889  -15.0031  -46.2231 C.2       1 UNK         0.5000 
     66 O          -0.6480  -14.8198  -45.7976 O.2       1 UNK        -0.5000 
     67 C          -1.3142  -22.7543  -46.8022 C.2       11 UNK         0.5000 
     68 O          -1.6415  -23.5054  -47.7194 O.2       11 UNK        -0.5000 
     69 N          -2.1032  -22.4762  -45.7536 N.am      12 UNK        -0.5000 
     70 CA         -3.4444  -23.0198  -45.5419 C.3       12 UNK         0.1400 
     71 CB         -4.0786  -22.3661  -44.3051 C.3       12 UNK        -0.1800 
     72 C          -3.4605  -24.5530  -45.4116 C.2       12 UNK         0.5000 
     73 O          -4.3296  -25.1946  -46.0013 O.2       12 UNK        -0.5000 
     74 N          -2.4817  -25.1181  -44.6885 N.am      13 UNK        -0.5000 
     75 CA         -2.2888  -26.5648  -44.5453 C.3       13 UNK         0.1400 
     76 CB         -1.2142  -26.8404  -43.4833 C.3       13 UNK        -0.1800 
     77 C          -1.9349  -27.2616  -45.8746 C.2       13 UNK         0.5000 
     78 O          -2.3914  -28.3795  -46.1156 O.2       13 UNK        -0.5000 
     79 N          -1.1619  -26.5750  -46.7263 N.am      14 UNK        -0.5000 
     80 CA         -0.8237  -26.9992  -48.0867 C.3       14 UNK         0.1400 
     81 CB          0.4546  -26.2652  -48.5251 C.3       14 UNK        -0.1800 
     82 C          -1.9591  -26.7614  -49.1067 C.2       14 UNK         0.5000 
     83 O          -1.8464  -27.2283  -50.2409 O.2       14 UNK        -0.5000 
     84 N          -3.0107  -26.0331  -48.6997 N.am      15 UNK        -0.5000 
     85 CA         -4.1416  -25.5539  -49.5023 C.3       15 UNK         0.1400 
     86 CB         -5.0046  -26.7307  -50.0030 C.3       15 UNK        -0.1800 
     87 C          -3.7047  -24.5911  -50.6285 C.2       15 UNK         0.5000 
     88 O          -4.2636  -24.6225  -51.7265 O.2       15 UNK        -0.5000 
     89 N          -2.7040  -23.7567  -50.3295 N.am      16 UNK        -0.5000 
     90 CA         -2.1053  -22.7791  -51.2270 C.3       16 UNK         0.1400 
     91 CB         -0.5832  -22.9866  -51.1961 C.3       16 UNK        -0.1800 
     92 C          -2.4673  -21.3661  -50.7466 C.2       16 UNK         0.5000 
     93 O          -2.4162  -21.1013  -49.5452 O.2       16 UNK        -0.5000 
     94 N          -2.8020  -20.4776  -51.6854 N.am      17 UNK        -0.5000 
     95 CA         -3.0872  -19.0645  -51.4562 C.3       17 UNK         0.1400 
     96 CB         -4.3771  -18.8754  -50.6343 C.3       17 UNK        -0.1800 
     97 C          -3.2213  -18.3703  -52.8156 C.2       17 UNK         0.5000 
     98 O          -3.6579  -19.0032  -53.7829 O.2       17 UNK        -0.5000 
     99 N          -2.8582  -17.0832  -52.8647 N.am      18 UNK        -0.5000 
    100 CA        -2.9653  -16.2080  -54.0334 C.3       18 UNK         0.1400 
    101 CB        -2.4190  -14.8191  -53.6730 C.3       18 UNK        -0.1800 
    102 C         -4.4090  -16.1029  -54.5543 C.2       18 UNK         0.5000 
    103 O         -5.3405  -15.9969  -53.7534 O.2       18 UNK        -0.5000 
    104 N         -4.5594  -16.1664  -55.8840 N.am      19 UNK        -0.5000 
    105 CA        -5.7996  -16.1687  -56.6748 C.3       19 UNK         0.1400 
    106 CB        -6.6233  -14.8874  -56.4437 C.3       19 UNK        -0.1800 
    107 C         -6.6705  -17.4312  -56.5019 C.2       19 UNK         0.5000 
    108 O         -7.2266  -17.9144  -57.4884 O.2       19 UNK        -0.5000 
    109 N         -6.7641  -17.9526  -55.2730 N.am      20 UNK        -0.5000 
    110 CA        -7.5115  -19.1567  -54.9134 C.3       20 UNK         0.1400 
    111 CB        -7.6113  -19.2442  -53.3837 C.3       20 UNK        -0.1800 
    112 C         -6.8919  -20.4436  -55.4875 C.2       20 UNK         0.5000 
    113 O         -7.6321  -21.3302  -55.9161 O.2       20 UNK        -0.5000 
    114 N         -5.5553  -20.5172  -55.4917 N.am      21 UNK        -0.5000 
    115 CA        -4.7879  -21.6481  -56.0132 C.3       21 UNK         0.1400 
    116 CB        -4.4504  -22.6150  -54.8656 C.3       21 UNK        -0.1800 
    117 C         -3.5118  -21.1797  -56.7272 C.2       21 UNK         0.5000 
    118 O         -3.1761  -21.7149  -57.7841 O.2       21 UNK        -0.5000 
    119 N         -2.8301  -20.1874  -56.1449 N.am      22 UNK        -0.5000 
    120 CA        -1.5441  -19.6453  -56.6128 C.3       22 UNK         0.1400 
    121 C         -1.6868  -18.4528  -57.6047 C.2       22 UNK         0.5000 
    122 N         -2.8863  -18.0863  -58.0410 N.am      22 UNK        -0.7600 
    123 O         -0.6909  -17.8514  -57.9966 O.2       22 UNK        -0.5000 
    124 C124       -0.6178  -19.2871  -55.4202 C.3       23 UNK        -0.0398 
    125 S125       -0.3356  -20.7028  -54.3008 S.3       23 UNK        -0.2404 
    126 C126        1.3279  -20.3463  -53.6520 C.3       23 UNK        -0.0205 
    127 H127       -2.7902  -19.6375  -47.3496 H         1 UNK         0.0600 
    128 H128       -4.5216  -19.4848  -47.0705 H         1 UNK         0.0600 
    129 H129       -3.3986  -19.3656  -45.7124 H         1 UNK         0.0600 
    130 H130       -1.5360  -17.7411  -47.6038 H         1 UNK         0.3000 
    131 H131       -2.8692  -15.2133  -48.0547 H         1 UNK         0.0600 
    132 H132       -0.5002  -14.4185  -48.5473 H         1 UNK         0.0800 
    133 H133        0.0755  -16.0245  -48.1737 H         1 UNK         0.0800 
    134 H134        0.4918  -15.7014  -51.9540 H         1 UNK         0.0800 
    135 H135        1.2142  -15.5600  -50.3776 H         1 UNK         0.0800 
    136 H136        0.5061  -17.7865  -53.1220 H         1 UNK         0.1150 
    137 H137        2.1242  -21.2690  -51.2239 H         1 UNK         0.1150 
    138 H138        1.4855  -17.6940  -48.9531 H         1 UNK         0.1150 
    139 H139        2.3812  -21.3632  -48.8537 H         1 UNK         0.0800 
    140 H140        3.5020  -20.0349  -48.6963 H         1 UNK         0.0800 
    141 H141       -0.2978  -20.5698  -48.2337 H         1 UNK         0.0800 
    142 H142       -0.6037  -20.0980  -46.5838 H         1 UNK         0.0800 
    143 H143        0.6929  -22.6968  -47.5240 H         1 UNK         0.0600 
    144 H144        1.0102  -21.5520  -44.9521 H         1 UNK         0.3000 
    145 H145        1.3341  -24.5983  -43.1066 H         1 UNK         0.0600 
    146 H146        3.4900  -23.4905  -42.5072 H         1 UNK         0.0600 
    147 H147        3.5741  -24.2607  -44.0843 H         1 UNK         0.0600 
    148 H148        3.4093  -22.5153  -43.9739 H         1 UNK         0.0600 
    149 H149        1.4597  -21.7209  -42.6103 H         1 UNK         0.3000 
    150 H150       -1.9151  -21.4629  -41.4848 H         1 UNK         0.0600 
    151 H151       -0.6993  -22.4105  -39.5144 H         1 UNK         0.0600 
    152 H152       -0.8134  -20.6603  -39.4162 H         1 UNK         0.0600 
    153 H153        0.7055  -21.4198  -39.8922 H         1 UNK         0.0600 
    154 H154        0.2349  -19.5892  -41.5052 H         1 UNK         0.3000 
    155 H155       -0.1445  -18.4364  -44.8517 H         1 UNK         0.0600 
    156 H156       -1.0766  -17.2018  -42.2101 H         1 UNK         0.0600 
    157 H157       -0.5976  -16.2937  -43.6404 H         1 UNK         0.0600 
    158 H158       -2.0177  -17.3269  -43.6932 H         1 UNK         0.0600 
    159 H159        1.4801  -17.2168  -43.1343 H         1 UNK         0.3000 
    160 H160        4.2990  -19.3138  -42.8062 H         1 UNK         0.0600 
    161 H161        5.3398  -17.5407  -44.2113 H         1 UNK         0.0600 
    162 H162        3.7534  -17.0641  -44.8165 H         1 UNK         0.0600 
    163 H163        4.4016  -18.6537  -45.1970 H         1 UNK         0.0600 
    164 H164        3.3319  -16.5232  -42.4300 H         1 UNK         0.3000 
    165 H165        3.2641  -16.8133  -38.9112 H         1 UNK         0.0600 
    166 H166        4.9058  -14.9535  -38.9110 H         1 UNK         0.0600 
    167 H167        5.7170  -16.4770  -39.2353 H         1 UNK         0.0600 
    168 H168        5.4035  -15.3563  -40.5550 H         1 UNK         0.0600 
    169 H169        3.0686  -14.5765  -40.7089 H         1 UNK         0.3000 
    170 H170       -0.3602  -14.9435  -41.5105 H         1 UNK         0.0600 
    171 H171       -0.4547  -14.0381  -39.1785 H         1 UNK         0.0600 
    172 H172        0.9078  -12.9821  -39.5331 H         1 UNK         0.0600 
    173 H173       -0.6245  -12.7702  -40.3798 H         1 UNK         0.0600 
    174 H174        1.0397  -12.7291  -42.1148 H         1 UNK         0.3000 
    175 H175        2.8441  -12.4767  -43.8713 H         1 UNK         0.0600 
    176 H176        3.1622  -13.1296  -46.2645 H         1 UNK         0.0600 
    177 H177        2.2803  -14.6304  -45.9883 H         1 UNK         0.0600 
    178 H178        3.8237  -14.3513  -45.1881 H         1 UNK         0.0600 
    179 H179        0.2839  -13.2409  -45.2235 H         1 UNK         0.3000 
    180 H180       -1.2455  -10.2032  -44.3305 H         1 UNK         0.0600 
    181 H181       -0.4613  -11.0118  -47.1850 H         1 UNK         0.0600 
    182 H182       -0.1561   -9.4428  -46.4494 H         1 UNK         0.0600 
    183 H183       -1.8083   -9.9628  -46.7393 H         1 UNK         0.0600 
    184 H184       -2.0800  -12.4095  -45.9622 H         1 UNK         0.3000 
    185 H185       -2.5873  -14.8108  -43.5204 H         1 UNK         0.0600 
    186 H186       -4.9288  -13.1307  -44.5530 H         1 UNK         0.0600 
    187 H187       -5.0256  -14.7739  -43.9183 H         1 UNK         0.0600 
    188 H188       -4.5766  -13.4485  -42.8582 H         1 UNK         0.0600 
    189 H189       -3.7816  -14.9126  -45.9770 H         1 UNK         0.3000 
    190 H190       -1.7724  -21.8183  -45.0501 H         1 UNK         0.3000 
    191 H191       -4.0461  -22.7546  -46.4138 H         1 UNK         0.0600 
    192 H192       -4.1671  -21.2873  -44.4296 H         1 UNK         0.0600 
    193 H193       -5.0819  -22.7550  -44.1274 H         1 UNK         0.0600 
    194 H194       -3.4894  -22.5505  -43.4062 H         1 UNK         0.0600 
    195 H195       -1.8294  -24.5204  -44.1938 H         1 UNK         0.3000 
    196 H196       -3.2298  -26.9908  -44.1912 H         1 UNK         0.0600 
    197 H197       -1.0795  -27.9123  -43.3336 H         1 UNK         0.0600 
    198 H198       -1.4911  -26.4104  -42.5206 H         1 UNK         0.0600 
    199 H199       -0.2480  -26.4258  -43.7703 H         1 UNK         0.0600 
    200 H200       -0.7797  -25.6841  -46.4262 H         1 UNK         0.3000 
    201 H201       -0.6133  -28.0705  -48.0766 H         1 UNK         0.0600 
    202 H202        1.2771  -26.4600  -47.8366 H         1 UNK         0.0600 
    203 H203        0.3046  -25.1861  -48.5687 H         1 UNK         0.0600 
    204 H204        0.7754  -26.5912  -49.5151 H         1 UNK         0.0600 
    205 H205       -2.9895  -25.6882  -47.7487 H         1 UNK         0.3000 
    206 H206       -4.7588  -24.9614  -48.8258 H         1 UNK         0.0600 
    207 H207       -5.2972  -27.3821  -49.1794 H         1 UNK         0.0600 
    208 H208       -5.9208  -26.3702  -50.4719 H         1 UNK         0.0600 
    209 H209       -4.4781  -27.3368  -50.7406 H         1 UNK         0.0600 
    210 H210       -2.3461  -23.7379  -49.3750 H         1 UNK         0.3000 
    211 H211       -2.4585  -22.9215  -52.2500 H         1 UNK         0.0600 
    212 H212       -0.1694  -22.8000  -50.2039 H         1 UNK         0.0600 
    213 H213       -0.0851  -22.3150  -51.8917 H         1 UNK         0.0600 
    214 H214       -0.3180  -24.0044  -51.4825 H         1 UNK         0.0600 
    215 H215       -2.8084  -20.7442  -52.6609 H         1 UNK         0.3000 
    216 H216       -2.2422  -18.6301  -50.9195 H         1 UNK         0.0600 
    217 H217       -4.6465  -17.8209  -50.5609 H         1 UNK         0.0600 
    218 H218       -4.2625  -19.2440  -49.6164 H         1 UNK         0.0600 
    219 H219       -5.2184  -19.4024  -51.0827 H         1 UNK         0.0600 
    220 H220       -2.5234  -16.6445  -52.0168 H         1 UNK         0.3000 
    221 H221       -2.3412  -16.6238  -54.8248 H         1 UNK         0.0600 
    222 H222       -2.9734  -14.3716  -52.8470 H         1 UNK         0.0600 
    223 H223       -1.3696  -14.8706  -53.3838 H         1 UNK         0.0600 
    224 H224       -2.4872  -14.1381  -54.5224 H         1 UNK         0.0600 
    225 H225       -3.7218  -16.2829  -56.4380 H         1 UNK         0.3000 
    226 H226       -5.4772  -16.1597  -57.7172 H         1 UNK         0.0600 
    227 H227       -6.0214  -13.9952  -56.6158 H         1 UNK         0.0600 
    228 H228       -7.4716  -14.8441  -57.1279 H         1 UNK         0.0600 
    229 H229       -7.0228  -14.8332  -55.4308 H         1 UNK         0.0600 
    230 H230       -6.2927  -17.4571  -54.5217 H         1 UNK         0.3000 
    231 H231       -8.5215  -19.0621  -55.3177 H         1 UNK         0.0600 
    232 H232       -6.6248  -19.3127  -52.9261 H         1 UNK         0.0600 
    233 H233       -8.1794  -20.1234  -53.0771 H         1 UNK         0.0600 
    234 H234       -8.1136  -18.3698  -52.9694 H         1 UNK         0.0600 
    235 H235       -5.0262  -19.7554  -55.0827 H         1 UNK         0.3000 
    236 H236       -5.3818  -22.1867  -56.7549 H         1 UNK         0.0600 
    237 H237       -5.3545  -23.0281  -54.4181 H         1 UNK         0.0600 
    238 H238       -3.8506  -23.4540  -55.2205 H         1 UNK         0.0600 
    239 H239       -3.8871  -22.1171  -54.0766 H         1 UNK         0.0600 
    240 H240       -3.1635  -19.8004  -55.2652 H         1 UNK         0.3000 
    241 H241       -1.0337  -20.4245  -57.1817 H         1 UNK         0.0600 
    242 H242       -3.6995  -18.6254  -57.7926 H         1 UNK         0.3800 
    243 H243       -2.9545  -17.3478  -58.7236 H         1 UNK         0.3800 
    244 H244        0.3453  -18.9353  -55.7926 H         1 UNK         0.0800 
    245 H245       -1.0349  -18.4692  -54.8374 H         1 UNK         0.0800 
    246 H246        1.9103  -19.7694  -54.3709 H         1 UNK         0.0800 
    247 H247        1.8529  -21.2967  -53.5461 H         1 UNK         0.0800 
@<TRIPOS>BOND
     1    1    2 1    
     2    1  127 1    
     3    1  128 1    
     4    1  129 1    
     5    2    3 2    
     6    2    4 am   BACKBONE|DICT|INTERRES
     7    4    5 1    
     8    4  130 1    
     9    5    6 1    
    10    5   65 1    
    11    5  131 1    
    12    6    7 1    
    13    6  132 1    
    14    6  133 1    
    15    7    8 1    
    16    8    9 1    
    17    8  134 1    
    18    8  135 1    
    19    9   10 ar   
    20    9   14 ar   
    21   10   11 ar   
    22   10  136 1    
    23   11   12 ar   
    24   11  126 1    
    25   12   13 ar   
    26   12  137 1    
    27   13   14 ar   
    28   13   15 1    
    29   14  138 1    
    30   15   16 1    
    31   15  139 1    
    32   15  140 1    
    33   16   17 1    
    34   17   18 1    
    35   17  141 1    
    36   17  142 1    
    37   18   19 1    
    38   18   67 1    
    39   18  143 1    
    40   19   20 am   BACKBONE|DICT|INTERRES
    41   19  144 1    
    42   20   21 2    
    43   20   22 1    
    44   22   23 1    
    45   22   24 1    
    46   22  145 1    
    47   23  146 1    
    48   23  147 1    
    49   23  148 1    
    50   24   25 am   BACKBONE|DICT|INTERRES
    51   24  149 1    
    52   25   26 2    
    53   25   27 1    
    54   27   28 1    
    55   27   29 1    
    56   27  150 1    
    57   28  151 1    
    58   28  152 1    
    59   28  153 1    
    60   29   30 am   BACKBONE|DICT|INTERRES
    61   29  154 1    
    62   30   31 2    
    63   30   32 1    
    64   32   33 1    
    65   32   34 1    
    66   32  155 1    
    67   33  156 1    
    68   33  157 1    
    69   33  158 1    
    70   34   35 am   BACKBONE|DICT|INTERRES
    71   34  159 1    
    72   35   36 2    
    73   35   37 1    
    74   37   38 1    
    75   37   39 1    
    76   37  160 1    
    77   38  161 1    
    78   38  162 1    
    79   38  163 1    
    80   39   40 am   BACKBONE|DICT|INTERRES
    81   39  164 1    
    82   40   41 2    
    83   40   42 1    
    84   42   43 1    
    85   42   44 1    
    86   42  165 1    
    87   43  166 1    
    88   43  167 1    
    89   43  168 1    
    90   44   45 am   BACKBONE|DICT|INTERRES
    91   44  169 1    
    92   45   46 2    
    93   45   47 1    
    94   47   48 1    
    95   47   49 1    
    96   47  170 1    
    97   48  171 1    
    98   48  172 1    
    99   48  173 1    
   100   49   50 am   BACKBONE|DICT|INTERRES
   101   49  174 1    
   102   50   51 2    
   103   50   52 1    
   104   52   53 1    
   105   52   54 1    
   106   52  175 1    
   107   53  176 1    
   108   53  177 1    
   109   53  178 1    
   110   54   55 am   BACKBONE|DICT|INTERRES
   111   54  179 1    
   112   55   56 2    
   113   55   57 1    
   114   57   58 1    
   115   57   59 1    
   116   57  180 1    
   117   58  181 1    
   118   58  182 1    
   119   58  183 1    
   120   59   60 am   BACKBONE|DICT|INTERRES
   121   59  184 1    
   122   60   61 2    
   123   60   62 1    
   124   62   63 1    
   125   62   64 1    
   126   62  185 1    
   127   63  186 1    
   128   63  187 1    
   129   63  188 1    
   130   64   65 am   BACKBONE|DICT|INTERRES
   131   64  189 1    
   132   65   66 2    
   133   67   68 2    
   134   67   69 am   BACKBONE|DICT|INTERRES
   135   69   70 1    
   136   69  190 1    
   137   70   71 1    
   138   70   72 1    
   139   70  191 1    
   140   71  192 1    
   141   71  193 1    
   142   71  194 1    
   143   72   73 2    
   144   72   74 am   BACKBONE|DICT|INTERRES
   145   74   75 1    
   146   74  195 1    
   147   75   76 1    
   148   75   77 1    
   149   75  196 1    
   150   76  197 1    
   151   76  198 1    
   152   76  199 1    
   153   77   78 2    
   154   77   79 am   BACKBONE|DICT|INTERRES
   155   79   80 1    
   156   79  200 1    
   157   80   81 1    
   158   80   82 1    
   159   80  201 1    
   160   81  202 1    
   161   81  203 1    
   162   81  204 1    
   163   82   83 2    
   164   82   84 am   BACKBONE|DICT|INTERRES
   165   84   85 1    
   166   84  205 1    
   167   85   86 1    
   168   85   87 1    
   169   85  206 1    
   170   86  207 1    
   171   86  208 1    
   172   86  209 1    
   173   87   88 2    
   174   87   89 am   BACKBONE|DICT|INTERRES
   175   89   90 1    
   176   89  210 1    
   177   90   91 1    
   178   90   92 1    
   179   90  211 1    
   180   91  212 1    
   181   91  213 1    
   182   91  214 1    
   183   92   93 2    
   184   92   94 am   BACKBONE|DICT|INTERRES
   185   94   95 1    
   186   94  215 1    
   187   95   96 1    
   188   95   97 1    
   189   95  216 1    
   190   96  217 1    
   191   96  218 1    
   192   96  219 1    
   193   97   98 2    
   194   97   99 am   BACKBONE|DICT|INTERRES
   195   99  100 1    
   196   99  220 1    
   197  100  101 1    
   198  100  102 1    
   199  100  221 1    
   200  101  222 1    
   201  101  223 1    
   202  101  224 1    
   203  102  103 2    
   204  102  104 am   BACKBONE|DICT|INTERRES
   205  104  105 1    
   206  104  225 1    
   207  105  106 1    
   208  105  107 1    
   209  105  226 1    
   210  106  227 1    
   211  106  228 1    
   212  106  229 1    
   213  107  108 2    
   214  107  109 am   BACKBONE|DICT|INTERRES
   215  109  110 1    
   216  109  230 1    
   217  110  111 1    
   218  110  112 1    
   219  110  231 1    
   220  111  232 1    
   221  111  233 1    
   222  111  234 1    
   223  112  113 2    
   224  112  114 am   BACKBONE|DICT|INTERRES
   225  114  115 1    
   226  114  235 1    
   227  115  116 1    
   228  115  117 1    
   229  115  236 1    
   230  116  237 1    
   231  116  238 1    
   232  116  239 1    
   233  117  118 2    
   234  117  119 am   BACKBONE|DICT|INTERRES
   235  119  120 1    
   236  119  240 1    
   237  120  121 1    
   238  120  124 1    
   239  120  241 1    
   240  121  122 am   BACKBONE|DICT|INTERRES
   241  121  123 2    
   242  122  242 1    
   243  122  243 1    
   244  124  125 1    
   245  124  244 1    
   246  124  245 1    
   247  125  126 1    
   248  126  246 1    
   249  126  247 1    
@<TRIPOS>SUBSTRUCTURE
     1 UNK         1 GROUP             0       ****    0 ROOT    
