@<TRIPOS>MOLECULE
3R540
247   249    1
SMALL
USER_CHARGES


@<TRIPOS>ATOM
      1 CA         -0.9263  -12.9997  -52.5196 C.3       0 UNK        -0.1800 
      2 C           0.5219  -12.9772  -52.0552 C.2       0 UNK         0.5000 
      3 O           1.0269  -11.9143  -51.6929 O.2       0 UNK        -0.5000 
      4 N           1.1876  -14.1411  -52.0711 N.am      1 UNK        -0.5000 
      5 CA          2.5687  -14.3393  -51.6067 C.3       1 UNK         0.1400 
      6 C6          3.0716  -15.7864  -51.8051 C.3       23 UNK        -0.0398 
      7 S7          3.0594  -16.3809  -53.5275 S.3       23 UNK        -0.2404 
      8 C8          4.0093  -17.9313  -53.3521 C.3       23 UNK        -0.0205 
      9 C9          3.3521  -18.8915  -52.3695 C.ar      23 UNK        -0.0193 
     10 C10         2.3551  -19.7724  -52.8014 C.ar      23 UNK        -0.1150 
     11 C11         1.6973  -20.5972  -51.8842 C.ar      23 UNK        -0.0193 
     12 C12         2.0516  -20.5448  -50.5343 C.ar      23 UNK        -0.1150 
     13 C13         3.0413  -19.6689  -50.0913 C.ar      23 UNK        -0.0193 
     14 C14         3.7088  -18.8639  -51.0161 C.ar      23 UNK        -0.1150 
     15 C15         3.3290  -19.5513  -48.6057 C.3       23 UNK        -0.0205 
     16 S16         4.7877  -20.5133  -48.1161 S.3       23 UNK        -0.2404 
     17 C17         4.5071  -20.6251  -46.3082 C.3       23 UNK        -0.0398 
     18 CA          4.1484  -22.0156  -45.6884 C.3       11 UNK         0.1400 
     19 N           3.0951  -21.9128  -44.6692 N.am      11 UNK        -0.5000 
     20 C           2.8548  -22.8380  -43.7264 C.2       10 UNK         0.5000 
     21 O           3.5001  -23.8804  -43.6105 O.2       10 UNK        -0.5000 
     22 CA          1.7067  -22.5573  -42.7444 C.3       10 UNK         0.1400 
     23 CB          2.1702  -21.6157  -41.6225 C.3       10 UNK        -0.1800 
     24 N           0.5446  -21.9884  -43.4234 N.am      10 UNK        -0.5000 
     25 C          -0.4186  -22.7160  -44.0043 C.2       9 UNK         0.5000 
     26 O          -0.4733  -23.9461  -43.9534 O.2       9 UNK        -0.5000 
     27 CA         -1.5376  -21.9601  -44.7453 C.3       9 UNK         0.1400 
     28 CB         -2.7992  -21.9087  -43.8697 C.3       9 UNK        -0.1800 
     29 N          -1.1886  -20.5987  -45.1500 N.am      9 UNK        -0.5000 
     30 C          -0.2782  -20.2687  -46.0773 C.2       8 UNK         0.5000 
     31 O           0.3933  -21.0830  -46.7108 O.2       8 UNK        -0.5000 
     32 CA         -0.0329  -18.7604  -46.2720 C.3       8 UNK         0.1400 
     33 CB         -1.1942  -18.1081  -47.0350 C.3       8 UNK        -0.1800 
     34 N           0.1680  -18.0542  -45.0053 N.am      8 UNK        -0.5000 
     35 C           1.1175  -18.3447  -44.1043 C.2       7 UNK         0.5000 
     36 O           1.9611  -19.2287  -44.2555 O.2       7 UNK        -0.5000 
     37 CA          1.0767  -17.5565  -42.7862 C.3       7 UNK         0.1400 
     38 CB          1.6823  -16.1560  -42.9581 C.3       7 UNK        -0.1800 
     39 N          -0.2891  -17.4506  -42.2733 N.am      7 UNK        -0.5000 
     40 C          -0.9520  -18.4615  -41.6928 C.2       6 UNK         0.5000 
     41 O          -0.4601  -19.5687  -41.4817 O.2       6 UNK        -0.5000 
     42 CA         -2.4194  -18.2036  -41.3031 C.3       6 UNK         0.1400 
     43 CB         -2.5042  -17.5823  -39.9010 C.3       6 UNK        -0.1800 
     44 N          -3.1224  -17.3432  -42.2549 N.am      6 UNK        -0.5000 
     45 C          -3.3866  -17.6752  -43.5263 C.2       5 UNK         0.5000 
     46 O          -3.0827  -18.7551  -44.0280 O.2       5 UNK        -0.5000 
     47 CA         -4.0533  -16.5961  -44.3977 C.3       5 UNK         0.1400 
     48 CB         -5.5816  -16.6620  -44.2634 C.3       5 UNK        -0.1800 
     49 N          -3.5908  -15.2409  -44.0876 N.am      5 UNK        -0.5000 
     50 C          -2.3237  -14.8251  -44.2113 C.2       4 UNK         0.5000 
     51 O          -1.3938  -15.5485  -44.5783 O.2       4 UNK        -0.5000 
     52 CA         -2.0375  -13.3697  -43.8169 C.3       4 UNK         0.1400 
     53 CB         -1.1595  -13.3080  -42.5571 C.3       4 UNK        -0.1800 
     54 N          -1.3583  -12.6920  -44.9147 N.am      4 UNK        -0.5000 
     55 C          -1.9829  -12.1480  -45.9670 C.2       3 UNK         0.5000 
     56 O          -3.2078  -12.0729  -46.0730 O.2       3 UNK        -0.5000 
     57 CA         -1.0887  -11.5939  -47.0909 C.3       3 UNK         0.1400 
     58 CB         -0.7861  -10.1060  -46.8556 C.3       3 UNK        -0.1800 
     59 N           0.1733  -12.3244  -47.2302 N.am      3 UNK        -0.5000 
     60 C           0.2739  -13.5486  -47.7619 C.2       2 UNK         0.5000 
     61 O          -0.6870  -14.2004  -48.1789 O.2       2 UNK        -0.5000 
     62 CA          1.6880  -14.1302  -47.8786 C.3       2 UNK         0.1400 
     63 CB          1.8625  -15.3607  -46.9760 C.3       2 UNK        -0.1800 
     64 N           1.8738  -14.5192  -49.2688 N.am      2 UNK        -0.5000 
     65 C           2.7303  -13.9472  -50.1228 C.2       1 UNK         0.5000 
     66 O           3.5920  -13.1297  -49.7953 O.2       1 UNK        -0.5000 
     67 C           3.8652  -23.1652  -46.6859 C.2       11 UNK         0.5000 
     68 O           4.7953  -23.8890  -47.0483 O.2       11 UNK        -0.5000 
     69 N           2.5939  -23.3528  -47.0607 N.am      12 UNK        -0.5000 
     70 CA          2.1164  -24.5092  -47.8091 C.3       12 UNK         0.1400 
     71 CB          1.9206  -24.1346  -49.2847 C.3       12 UNK        -0.1800 
     72 C           0.8125  -24.9656  -47.1475 C.2       12 UNK         0.5000 
     73 O          -0.1142  -24.1622  -47.0369 O.2       12 UNK        -0.5000 
     74 N           0.7914  -26.2261  -46.6921 N.am      13 UNK        -0.5000 
     75 CA         -0.2275  -26.8528  -45.8434 C.3       13 UNK         0.1400 
     76 CB          0.0676  -28.3596  -45.7505 C.3       13 UNK        -0.1800 
     77 C          -1.6819  -26.5955  -46.2864 C.2       13 UNK         0.5000 
     78 O          -2.1668  -27.2489  -47.2122 O.2       13 UNK        -0.5000 
     79 N          -2.3277  -25.6308  -45.6153 N.am      14 UNK        -0.5000 
     80 CA         -3.7067  -25.1684  -45.8172 C.3       14 UNK         0.1400 
     81 CB         -4.7139  -26.2860  -45.4761 C.3       14 UNK        -0.1800 
     82 C          -3.9772  -24.5363  -47.2009 C.2       14 UNK         0.5000 
     83 O          -5.1380  -24.4306  -47.6018 O.2       14 UNK        -0.5000 
     84 N          -2.9237  -24.0922  -47.9038 N.am      15 UNK        -0.5000 
     85 CA         -3.0016  -23.5753  -49.2740 C.3       15 UNK         0.1400 
     86 CB         -1.5910  -23.3833  -49.8322 C.3       15 UNK        -0.1800 
     87 C          -3.8149  -22.2782  -49.4260 C.2       15 UNK         0.5000 
     88 O          -4.3223  -22.0167  -50.5148 O.2       15 UNK        -0.5000 
     89 N          -3.9839  -21.5260  -48.3300 N.am      16 UNK        -0.5000 
     90 CA         -4.8374  -20.3381  -48.2444 C.3       16 UNK         0.1400 
     91 CB         -4.7239  -19.7550  -46.8291 C.3       16 UNK        -0.1800 
     92 C          -6.3183  -20.6172  -48.5758 C.2       16 UNK         0.5000 
     93 O          -7.0047  -19.7286  -49.0806 O.2       16 UNK        -0.5000 
     94 N          -6.7799  -21.8456  -48.2963 N.am      17 UNK        -0.5000 
     95 CA         -8.1217  -22.3169  -48.6358 C.3       17 UNK         0.1400 
     96 CB         -8.5039  -23.4633  -47.6867 C.3       17 UNK        -0.1800 
     97 C          -8.2309  -22.7729  -50.1034 C.2       17 UNK         0.5000 
     98 O          -9.3360  -22.7816  -50.6471 O.2       17 UNK        -0.5000 
     99 N          -7.1000  -23.1500  -50.7168 N.am      18 UNK        -0.5000 
    100 CA        -7.0196  -23.5770  -52.1121 C.3       18 UNK         0.1400 
    101 CB        -5.8125  -24.5095  -52.3043 C.3       18 UNK        -0.1800 
    102 C         -6.9483  -22.3745  -53.0673 C.2       18 UNK         0.5000 
    103 O         -7.6243  -22.3857  -54.0973 O.2       18 UNK        -0.5000 
    104 N         -6.1564  -21.3553  -52.7094 N.am      19 UNK        -0.5000 
    105 CA        -6.0073  -20.1214  -53.4718 C.3       19 UNK         0.1400 
    106 CB        -4.9613  -20.3121  -54.5851 C.3       19 UNK        -0.1800 
    107 C         -5.5963  -18.9767  -52.5397 C.2       19 UNK         0.5000 
    108 O         -4.6781  -19.1391  -51.7350 O.2       19 UNK        -0.5000 
    109 N         -6.2318  -17.8105  -52.7145 N.am      20 UNK        -0.5000 
    110 CA        -5.8865  -16.5685  -52.0142 C.3       20 UNK         0.1400 
    111 CB        -6.9973  -15.5333  -52.2453 C.3       20 UNK        -0.1800 
    112 C         -4.5188  -15.9993  -52.4435 C.2       20 UNK         0.5000 
    113 O         -3.8753  -15.3023  -51.6587 O.2       20 UNK        -0.5000 
    114 N         -4.0799  -16.3471  -53.6635 N.am      21 UNK        -0.5000 
    115 CA        -2.7808  -16.0032  -54.2490 C.3       21 UNK         0.1400 
    116 CB        -2.7386  -16.5182  -55.6956 C.3       21 UNK        -0.1800 
    117 C         -1.5685  -16.5327  -53.4560 C.2       21 UNK         0.5000 
    118 O         -0.4729  -15.9915  -53.5991 O.2       21 UNK        -0.5000 
    119 N         -1.7841  -17.5510  -52.6164 N.am      22 UNK        -0.5000 
    120 CA        -0.7998  -18.0498  -51.6479 C.3       22 UNK         0.1400 
    121 C         -0.5661  -17.0981  -50.4374 C.2       22 UNK         0.5000 
    122 N         -1.4127  -16.1065  -50.1810 N.am      22 UNK        -0.7600 
    123 O          0.4331  -17.2314  -49.7400 O.2       22 UNK        -0.5000 
    124 C124       -1.1429  -19.4948  -51.2022 C.3       23 UNK        -0.0398 
    125 S125       -1.0081  -20.6557  -52.6127 S.3       23 UNK        -0.2404 
    126 C126        0.5759  -21.5224  -52.3300 C.3       23 UNK        -0.0205 
    127 H127       -1.4275  -12.0637  -52.2721 H         1 UNK         0.0600 
    128 H128       -1.4725  -13.8088  -52.0355 H         1 UNK         0.0600 
    129 H129       -0.9760  -13.1393  -53.5994 H         1 UNK         0.0600 
    130 H130        0.7240  -14.9588  -52.4594 H         1 UNK         0.3000 
    131 H131        3.2055  -13.6756  -52.1950 H         1 UNK         0.0600 
    132 H132        4.0930  -15.8786  -51.4308 H         1 UNK         0.0800 
    133 H133        2.4611  -16.4705  -51.2163 H         1 UNK         0.0800 
    134 H134        5.0267  -17.7004  -53.0326 H         1 UNK         0.0800 
    135 H135        4.0977  -18.4059  -54.3304 H         1 UNK         0.0800 
    136 H136        2.0651  -19.7901  -53.8426 H         1 UNK         0.1150 
    137 H137        1.5253  -21.1540  -49.8144 H         1 UNK         0.1150 
    138 H138        4.4714  -18.1804  -50.6714 H         1 UNK         0.1150 
    139 H139        3.4685  -18.5040  -48.3329 H         1 UNK         0.0800 
    140 H140        2.4644  -19.9040  -48.0430 H         1 UNK         0.0800 
    141 H141        3.7454  -19.8910  -46.0461 H         1 UNK         0.0800 
    142 H142        5.4109  -20.2510  -45.8256 H         1 UNK         0.0800 
    143 H143        5.0456  -22.3354  -45.1530 H         1 UNK         0.0600 
    144 H144        2.5437  -21.0599  -44.6677 H         1 UNK         0.3000 
    145 H145        1.4255  -23.5057  -42.2814 H         1 UNK         0.0600 
    146 H146        2.4383  -20.6297  -42.0017 H         1 UNK         0.0600 
    147 H147        1.3894  -21.4852  -40.8734 H         1 UNK         0.0600 
    148 H148        3.0447  -22.0192  -41.1105 H         1 UNK         0.0600 
    149 H149        0.5006  -20.9807  -43.4875 H         1 UNK         0.3000 
    150 H150       -1.7672  -22.5268  -45.6486 H         1 UNK         0.0600 
    151 H151       -3.0708  -22.8971  -43.4989 H         1 UNK         0.0600 
    152 H152       -3.6522  -21.5213  -44.4262 H         1 UNK         0.0600 
    153 H153       -2.6505  -21.2707  -42.9977 H         1 UNK         0.0600 
    154 H154       -1.7101  -19.8540  -44.6924 H         1 UNK         0.3000 
    155 H155        0.8732  -18.6421  -46.8676 H         1 UNK         0.0600 
    156 H156       -0.9556  -17.0836  -47.3183 H         1 UNK         0.0600 
    157 H157       -1.4260  -18.6565  -47.9488 H         1 UNK         0.0600 
    158 H158       -2.0976  -18.0683  -46.4328 H         1 UNK         0.0600 
    159 H159       -0.4682  -17.2871  -44.8090 H         1 UNK         0.3000 
    160 H160        1.6829  -18.0954  -42.0546 H         1 UNK         0.0600 
    161 H161        1.1181  -15.5556  -43.6704 H         1 UNK         0.0600 
    162 H162        2.7083  -16.2179  -43.3231 H         1 UNK         0.0600 
    163 H163        1.7055  -15.6180  -42.0104 H         1 UNK         0.0600 
    164 H164       -0.7828  -16.5919  -42.4671 H         1 UNK         0.3000 
    165 H165       -2.9300  -19.1688  -41.2814 H         1 UNK         0.0600 
    166 H166       -3.5403  -17.4700  -39.5811 H         1 UNK         0.0600 
    167 H167       -2.0045  -18.2129  -39.1643 H         1 UNK         0.0600 
    168 H168       -2.0325  -16.5994  -39.8658 H         1 UNK         0.0600 
    169 H169       -3.4064  -16.4326  -41.9258 H         1 UNK         0.3000 
    170 H170       -3.7967  -16.8036  -45.4379 H         1 UNK         0.0600 
    171 H171       -5.9514  -17.6606  -44.5002 H         1 UNK         0.0600 
    172 H172       -5.9089  -16.4225  -43.2509 H         1 UNK         0.0600 
    173 H173       -6.0679  -15.9666  -44.9478 H         1 UNK         0.0600 
    174 H174       -4.2951  -14.5840  -43.7836 H         1 UNK         0.3000 
    175 H175       -2.9782  -12.8595  -43.5986 H         1 UNK         0.0600 
    176 H176       -0.1830  -13.7643  -42.7185 H         1 UNK         0.0600 
    177 H177       -0.9961  -12.2765  -42.2443 H         1 UNK         0.0600 
    178 H178       -1.6328  -13.8286  -41.7235 H         1 UNK         0.0600 
    179 H179       -0.3520  -12.7590  -44.9346 H         1 UNK         0.3000 
    180 H180       -1.6431  -11.6826  -48.0280 H         1 UNK         0.0600 
    181 H181       -0.2164   -9.9499  -45.9387 H         1 UNK         0.0600 
    182 H182       -1.7080   -9.5290  -46.7715 H         1 UNK         0.0600 
    183 H183       -0.2150   -9.6841  -47.6829 H         1 UNK         0.0600 
    184 H184        1.0091  -11.8437  -46.9300 H         1 UNK         0.3000 
    185 H185        2.4166  -13.3742  -47.5788 H         1 UNK         0.0600 
    186 H186        1.1811  -16.1631  -47.2548 H         1 UNK         0.0600 
    187 H187        2.8776  -15.7529  -47.0366 H         1 UNK         0.0600 
    188 H188        1.6679  -15.1106  -45.9335 H         1 UNK         0.0600 
    189 H189        1.1924  -15.1843  -49.6191 H         1 UNK         0.3000 
    190 H190        1.8675  -22.7271  -46.7243 H         1 UNK         0.3000 
    191 H191        2.8396  -25.3257  -47.7536 H         1 UNK         0.0600 
    192 H192        1.2062  -23.3221  -49.3932 H         1 UNK         0.0600 
    193 H193        1.5480  -24.9834  -49.8588 H         1 UNK         0.0600 
    194 H194        2.8589  -23.8154  -49.7386 H         1 UNK         0.0600 
    195 H195        1.6047  -26.7976  -46.8669 H         1 UNK         0.3000 
    196 H196       -0.1023  -26.4396  -44.8412 H         1 UNK         0.0600 
    197 H197        0.0499  -28.8350  -46.7321 H         1 UNK         0.0600 
    198 H198       -0.6717  -28.8651  -45.1276 H         1 UNK         0.0600 
    199 H199        1.0454  -28.5449  -45.3054 H         1 UNK         0.0600 
    200 H200       -1.7876  -25.1128  -44.9275 H         1 UNK         0.3000 
    201 H201       -3.8640  -24.3674  -45.0967 H         1 UNK         0.0600 
    202 H202       -4.5190  -26.7052  -44.4890 H         1 UNK         0.0600 
    203 H203       -4.6768  -27.1001  -46.2004 H         1 UNK         0.0600 
    204 H204       -5.7358  -25.9050  -45.4677 H         1 UNK         0.0600 
    205 H205       -1.9897  -24.1928  -47.5125 H         1 UNK         0.3000 
    206 H206       -3.4989  -24.3366  -49.8786 H         1 UNK         0.0600 
    207 H207       -1.0214  -24.3111  -49.7875 H         1 UNK         0.0600 
    208 H208       -1.6362  -23.0811  -50.8781 H         1 UNK         0.0600 
    209 H209       -1.0448  -22.6149  -49.2830 H         1 UNK         0.0600 
    210 H210       -3.5329  -21.8250  -47.4793 H         1 UNK         0.3000 
    211 H211       -4.4593  -19.6053  -48.9603 H         1 UNK         0.0600 
    212 H212       -5.1997  -20.3973  -46.0869 H         1 UNK         0.0600 
    213 H213       -5.2006  -18.7760  -46.7710 H         1 UNK         0.0600 
    214 H214       -3.6841  -19.6331  -46.5356 H         1 UNK         0.0600 
    215 H215       -6.1492  -22.5332  -47.9003 H         1 UNK         0.3000 
    216 H216       -8.8342  -21.5030  -48.4857 H         1 UNK         0.0600 
    217 H217       -9.5235  -23.8018  -47.8755 H         1 UNK         0.0600 
    218 H218       -8.4542  -23.1471  -46.6447 H         1 UNK         0.0600 
    219 H219       -7.8459  -24.3245  -47.8082 H         1 UNK         0.0600 
    220 H220       -6.2221  -23.0448  -50.2269 H         1 UNK         0.3000 
    221 H221       -7.9179  -24.1481  -52.3572 H         1 UNK         0.0600 
    222 H222       -4.8659  -23.9957  -52.1386 H         1 UNK         0.0600 
    223 H223       -5.8571  -25.3593  -51.6229 H         1 UNK         0.0600 
    224 H224       -5.7907  -24.9074  -53.3195 H         1 UNK         0.0600 
    225 H225       -5.5964  -21.4179  -51.8609 H         1 UNK         0.3000 
    226 H226       -6.9664  -19.8653  -53.9273 H         1 UNK         0.0600 
    227 H227       -5.2643  -21.0898  -55.2862 H         1 UNK         0.0600 
    228 H228       -4.8255  -19.3944  -55.1584 H         1 UNK         0.0600 
    229 H229       -3.9892  -20.5914  -54.1757 H         1 UNK         0.0600 
    230 H230       -6.9773  -17.7508  -53.3935 H         1 UNK         0.3000 
    231 H231       -5.8333  -16.7829  -50.9445 H         1 UNK         0.0600 
    232 H232       -6.7812  -14.6045  -51.7154 H         1 UNK         0.0600 
    233 H233       -7.9580  -15.8975  -51.8807 H         1 UNK         0.0600 
    234 H234       -7.1083  -15.2896  -53.3027 H         1 UNK         0.0600 
    235 H235       -4.6846  -16.9216  -54.2308 H         1 UNK         0.3000 
    236 H236       -2.7062  -14.9144  -54.2683 H         1 UNK         0.0600 
    237 H237       -1.7972  -16.2513  -56.1779 H         1 UNK         0.0600 
    238 H238       -3.5415  -16.0867  -56.2935 H         1 UNK         0.0600 
    239 H239       -2.8320  -17.6043  -55.7378 H         1 UNK         0.0600 
    240 H240       -2.7111  -17.9483  -52.5511 H         1 UNK         0.3000 
    241 H241        0.1642  -18.0869  -52.1582 H         1 UNK         0.0600 
    242 H242       -1.2251  -15.4854  -49.3975 H         1 UNK         0.3800 
    243 H243       -2.2376  -15.9470  -50.7485 H         1 UNK         0.3800 
    244 H244       -2.1617  -19.5401  -50.8144 H         1 UNK         0.0800 
    245 H245       -0.5081  -19.8268  -50.3817 H         1 UNK         0.0800 
    246 H246        0.8681  -22.0273  -53.2517 H         1 UNK         0.0800 
    247 H247        0.4294  -22.3110  -51.5929 H         1 UNK         0.0800 
@<TRIPOS>BOND
     1    1    2 1    
     2    1  127 1    
     3    1  128 1    
     4    1  129 1    
     5    2    3 2    
     6    2    4 am   BACKBONE|DICT|INTERRES
     7    4    5 1    
     8    4  130 1    
     9    5    6 1    
    10    5   65 1    
    11    5  131 1    
    12    6    7 1    
    13    6  132 1    
    14    6  133 1    
    15    7    8 1    
    16    8    9 1    
    17    8  134 1    
    18    8  135 1    
    19    9   10 ar   
    20    9   14 ar   
    21   10   11 ar   
    22   10  136 1    
    23   11   12 ar   
    24   11  126 1    
    25   12   13 ar   
    26   12  137 1    
    27   13   14 ar   
    28   13   15 1    
    29   14  138 1    
    30   15   16 1    
    31   15  139 1    
    32   15  140 1    
    33   16   17 1    
    34   17   18 1    
    35   17  141 1    
    36   17  142 1    
    37   18   19 1    
    38   18   67 1    
    39   18  143 1    
    40   19   20 am   BACKBONE|DICT|INTERRES
    41   19  144 1    
    42   20   21 2    
    43   20   22 1    
    44   22   23 1    
    45   22   24 1    
    46   22  145 1    
    47   23  146 1    
    48   23  147 1    
    49   23  148 1    
    50   24   25 am   BACKBONE|DICT|INTERRES
    51   24  149 1    
    52   25   26 2    
    53   25   27 1    
    54   27   28 1    
    55   27   29 1    
    56   27  150 1    
    57   28  151 1    
    58   28  152 1    
    59   28  153 1    
    60   29   30 am   BACKBONE|DICT|INTERRES
    61   29  154 1    
    62   30   31 2    
    63   30   32 1    
    64   32   33 1    
    65   32   34 1    
    66   32  155 1    
    67   33  156 1    
    68   33  157 1    
    69   33  158 1    
    70   34   35 am   BACKBONE|DICT|INTERRES
    71   34  159 1    
    72   35   36 2    
    73   35   37 1    
    74   37   38 1    
    75   37   39 1    
    76   37  160 1    
    77   38  161 1    
    78   38  162 1    
    79   38  163 1    
    80   39   40 am   BACKBONE|DICT|INTERRES
    81   39  164 1    
    82   40   41 2    
    83   40   42 1    
    84   42   43 1    
    85   42   44 1    
    86   42  165 1    
    87   43  166 1    
    88   43  167 1    
    89   43  168 1    
    90   44   45 am   BACKBONE|DICT|INTERRES
    91   44  169 1    
    92   45   46 2    
    93   45   47 1    
    94   47   48 1    
    95   47   49 1    
    96   47  170 1    
    97   48  171 1    
    98   48  172 1    
    99   48  173 1    
   100   49   50 am   BACKBONE|DICT|INTERRES
   101   49  174 1    
   102   50   51 2    
   103   50   52 1    
   104   52   53 1    
   105   52   54 1    
   106   52  175 1    
   107   53  176 1    
   108   53  177 1    
   109   53  178 1    
   110   54   55 am   BACKBONE|DICT|INTERRES
   111   54  179 1    
   112   55   56 2    
   113   55   57 1    
   114   57   58 1    
   115   57   59 1    
   116   57  180 1    
   117   58  181 1    
   118   58  182 1    
   119   58  183 1    
   120   59   60 am   BACKBONE|DICT|INTERRES
   121   59  184 1    
   122   60   61 2    
   123   60   62 1    
   124   62   63 1    
   125   62   64 1    
   126   62  185 1    
   127   63  186 1    
   128   63  187 1    
   129   63  188 1    
   130   64   65 am   BACKBONE|DICT|INTERRES
   131   64  189 1    
   132   65   66 2    
   133   67   68 2    
   134   67   69 am   BACKBONE|DICT|INTERRES
   135   69   70 1    
   136   69  190 1    
   137   70   71 1    
   138   70   72 1    
   139   70  191 1    
   140   71  192 1    
   141   71  193 1    
   142   71  194 1    
   143   72   73 2    
   144   72   74 am   BACKBONE|DICT|INTERRES
   145   74   75 1    
   146   74  195 1    
   147   75   76 1    
   148   75   77 1    
   149   75  196 1    
   150   76  197 1    
   151   76  198 1    
   152   76  199 1    
   153   77   78 2    
   154   77   79 am   BACKBONE|DICT|INTERRES
   155   79   80 1    
   156   79  200 1    
   157   80   81 1    
   158   80   82 1    
   159   80  201 1    
   160   81  202 1    
   161   81  203 1    
   162   81  204 1    
   163   82   83 2    
   164   82   84 am   BACKBONE|DICT|INTERRES
   165   84   85 1    
   166   84  205 1    
   167   85   86 1    
   168   85   87 1    
   169   85  206 1    
   170   86  207 1    
   171   86  208 1    
   172   86  209 1    
   173   87   88 2    
   174   87   89 am   BACKBONE|DICT|INTERRES
   175   89   90 1    
   176   89  210 1    
   177   90   91 1    
   178   90   92 1    
   179   90  211 1    
   180   91  212 1    
   181   91  213 1    
   182   91  214 1    
   183   92   93 2    
   184   92   94 am   BACKBONE|DICT|INTERRES
   185   94   95 1    
   186   94  215 1    
   187   95   96 1    
   188   95   97 1    
   189   95  216 1    
   190   96  217 1    
   191   96  218 1    
   192   96  219 1    
   193   97   98 2    
   194   97   99 am   BACKBONE|DICT|INTERRES
   195   99  100 1    
   196   99  220 1    
   197  100  101 1    
   198  100  102 1    
   199  100  221 1    
   200  101  222 1    
   201  101  223 1    
   202  101  224 1    
   203  102  103 2    
   204  102  104 am   BACKBONE|DICT|INTERRES
   205  104  105 1    
   206  104  225 1    
   207  105  106 1    
   208  105  107 1    
   209  105  226 1    
   210  106  227 1    
   211  106  228 1    
   212  106  229 1    
   213  107  108 2    
   214  107  109 am   BACKBONE|DICT|INTERRES
   215  109  110 1    
   216  109  230 1    
   217  110  111 1    
   218  110  112 1    
   219  110  231 1    
   220  111  232 1    
   221  111  233 1    
   222  111  234 1    
   223  112  113 2    
   224  112  114 am   BACKBONE|DICT|INTERRES
   225  114  115 1    
   226  114  235 1    
   227  115  116 1    
   228  115  117 1    
   229  115  236 1    
   230  116  237 1    
   231  116  238 1    
   232  116  239 1    
   233  117  118 2    
   234  117  119 am   BACKBONE|DICT|INTERRES
   235  119  120 1    
   236  119  240 1    
   237  120  121 1    
   238  120  124 1    
   239  120  241 1    
   240  121  122 am   BACKBONE|DICT|INTERRES
   241  121  123 2    
   242  122  242 1    
   243  122  243 1    
   244  124  125 1    
   245  124  244 1    
   246  124  245 1    
   247  125  126 1    
   248  126  246 1    
   249  126  247 1    
@<TRIPOS>SUBSTRUCTURE
     1 UNK         1 GROUP             0       ****    0 ROOT    
