@<TRIPOS>MOLECULE
3R540
247   249    1
SMALL
USER_CHARGES


@<TRIPOS>ATOM
      1 CA         -4.9106  -12.0404  -49.7265 C.3       0 UNK        -0.1800 
      2 C          -3.9538  -13.0626  -49.1321 C.2       0 UNK         0.5000 
      3 O          -3.3212  -13.8122  -49.8749 O.2       0 UNK        -0.5000 
      4 N          -3.8534  -13.1072  -47.7977 N.am      1 UNK        -0.5000 
      5 CA         -2.9279  -13.9669  -47.0449 C.3       1 UNK         0.1400 
      6 C6         -3.3072  -13.9782  -45.5405 C.3       23 UNK        -0.0398 
      7 S7         -2.5386  -15.3183  -44.5621 S.3       23 UNK        -0.2404 
      8 C8         -3.9737  -16.0630  -43.7025 C.3       23 UNK        -0.0205 
      9 C9         -4.5921  -17.2739  -44.4035 C.ar      23 UNK        -0.0193 
     10 C10        -4.6542  -17.3702  -45.7984 C.ar      23 UNK        -0.1150 
     11 C11        -5.2119  -18.4927  -46.4150 C.ar      23 UNK        -0.0193 
     12 C12        -5.7326  -19.5212  -45.6274 C.ar      23 UNK        -0.1150 
     13 C13        -5.6909  -19.4419  -44.2328 C.ar      23 UNK        -0.0193 
     14 C14        -5.1234  -18.3138  -43.6298 C.ar      23 UNK        -0.1150 
     15 C15        -6.3049  -20.5477  -43.3810 C.3       23 UNK        -0.0205 
     16 S16        -5.6783  -22.2143  -43.7858 S.3       23 UNK        -0.2404 
     17 C17        -4.0575  -22.2471  -42.9458 C.3       23 UNK        -0.0398 
     18 CA         -2.8775  -22.6374  -43.8766 C.3       11 UNK         0.1400 
     19 N          -1.5715  -22.2743  -43.3101 N.am      11 UNK        -0.5000 
     20 C          -1.0416  -22.6245  -42.1281 C.2       10 UNK         0.5000 
     21 O          -1.5439  -23.4535  -41.3688 O.2       10 UNK        -0.5000 
     22 CA          0.2536  -21.9020  -41.7119 C.3       10 UNK         0.1400 
     23 CB          1.4934  -22.6209  -42.2649 C.3       10 UNK        -0.1800 
     24 N           0.2513  -20.5055  -42.1499 N.am      10 UNK        -0.5000 
     25 C          -0.5230  -19.5518  -41.6097 C.2       9 UNK         0.5000 
     26 O          -1.1923  -19.7131  -40.5884 O.2       9 UNK        -0.5000 
     27 CA         -0.5852  -18.1994  -42.3441 C.3       9 UNK         0.1400 
     28 CB          0.3781  -17.1904  -41.7030 C.3       9 UNK        -0.1800 
     29 N          -0.3123  -18.3126  -43.7806 N.am      9 UNK        -0.5000 
     30 C          -1.1575  -18.8940  -44.6463 C.2       8 UNK         0.5000 
     31 O          -2.2139  -19.4193  -44.3081 O.2       8 UNK        -0.5000 
     32 CA         -0.7327  -18.9732  -46.1212 C.3       8 UNK         0.1400 
     33 CB         -0.9395  -17.6314  -46.8341 C.3       8 UNK        -0.1800 
     34 N           0.6507  -19.4092  -46.2897 N.am      8 UNK        -0.5000 
     35 C           1.1133  -20.6162  -45.9398 C.2       7 UNK         0.5000 
     36 O           0.4186  -21.4770  -45.3996 O.2       7 UNK        -0.5000 
     37 CA          2.5970  -20.9046  -46.2150 C.3       7 UNK         0.1400 
     38 CB          2.8058  -21.3884  -47.6581 C.3       7 UNK        -0.1800 
     39 N           3.4183  -19.7177  -45.9802 N.am      7 UNK        -0.5000 
     40 C           4.1321  -19.4991  -44.8685 C.2       6 UNK         0.5000 
     41 O           4.2194  -20.3040  -43.9404 O.2       6 UNK        -0.5000 
     42 CA          4.8695  -18.1481  -44.7637 C.3       6 UNK         0.1400 
     43 CB          6.2902  -18.2671  -45.3359 C.3       6 UNK        -0.1800 
     44 N           4.1814  -17.0344  -45.4223 N.am      6 UNK        -0.5000 
     45 C           2.9686  -16.5782  -45.0813 C.2       5 UNK         0.5000 
     46 O           2.2803  -17.0686  -44.1889 O.2       5 UNK        -0.5000 
     47 CA          2.4040  -15.4035  -45.8997 C.3       5 UNK         0.1400 
     48 CB          2.9131  -14.0688  -45.3358 C.3       5 UNK        -0.1800 
     49 N           2.6655  -15.4462  -47.3433 N.am      5 UNK        -0.5000 
     50 C           2.4943  -16.4934  -48.1632 C.2       4 UNK         0.5000 
     51 O           2.2309  -17.6363  -47.7843 O.2       4 UNK        -0.5000 
     52 CA          2.5979  -16.1825  -49.6611 C.3       4 UNK         0.1400 
     53 CB          2.3721  -17.4191  -50.5509 C.3       4 UNK        -0.1800 
     54 N           1.6349  -15.1325  -49.9863 N.am      4 UNK        -0.5000 
     55 C           1.6853  -14.3481  -51.0698 C.2       3 UNK         0.5000 
     56 O           2.5582  -14.4308  -51.9348 O.2       3 UNK        -0.5000 
     57 CA          0.5844  -13.2773  -51.2123 C.3       3 UNK         0.1400 
     58 CB         -0.5946  -13.8337  -52.0245 C.3       3 UNK        -0.1800 
     59 N           0.0784  -12.7635  -49.9369 N.am      3 UNK        -0.5000 
     60 C           0.8043  -12.1036  -49.0215 C.2       2 UNK         0.5000 
     61 O           2.0015  -11.8503  -49.1587 O.2       2 UNK        -0.5000 
     62 CA          0.0882  -11.6417  -47.7338 C.3       2 UNK         0.1400 
     63 CB         -0.0786  -10.1140  -47.7324 C.3       2 UNK        -0.1800 
     64 N          -1.2230  -12.2520  -47.4988 N.am      2 UNK        -0.5000 
     65 C          -1.4541  -13.5538  -47.2736 C.2       1 UNK         0.5000 
     66 O          -0.5696  -14.4077  -47.2988 O.2       1 UNK        -0.5000 
     67 C          -2.9391  -24.1071  -44.3487 C.2       11 UNK         0.5000 
     68 O          -3.3592  -24.3728  -45.4746 O.2       11 UNK        -0.5000 
     69 N          -2.4757  -25.0344  -43.5034 N.am      12 UNK        -0.5000 
     70 CA         -2.3898  -26.4700  -43.7707 C.3       12 UNK         0.1400 
     71 CB         -2.2865  -27.2057  -42.4251 C.3       12 UNK        -0.1800 
     72 C          -1.2147  -26.8579  -44.6926 C.2       12 UNK         0.5000 
     73 O          -1.1391  -28.0158  -45.1055 O.2       12 UNK        -0.5000 
     74 N          -0.3124  -25.9069  -44.9812 N.am      13 UNK        -0.5000 
     75 CA          0.8865  -26.0937  -45.8016 C.3       13 UNK         0.1400 
     76 CB          1.7255  -24.8064  -45.7747 C.3       13 UNK        -0.1800 
     77 C           0.5822  -26.5116  -47.2523 C.2       13 UNK         0.5000 
     78 O           1.2484  -27.4065  -47.7742 O.2       13 UNK        -0.5000 
     79 N          -0.4262  -25.8764  -47.8609 N.am      14 UNK        -0.5000 
     80 CA         -0.9216  -26.1504  -49.2059 C.3       14 UNK         0.1400 
     81 CB          0.1240  -25.7666  -50.2701 C.3       14 UNK        -0.1800 
     82 C          -2.2114  -25.3538  -49.4324 C.2       14 UNK         0.5000 
     83 O          -2.3766  -24.2794  -48.8473 O.2       14 UNK        -0.5000 
     84 N          -3.0797  -25.8710  -50.3116 N.am      15 UNK        -0.5000 
     85 CA         -4.3060  -25.2128  -50.7645 C.3       15 UNK         0.1400 
     86 CB         -5.0889  -26.1673  -51.6787 C.3       15 UNK        -0.1800 
     87 C          -3.9831  -23.8963  -51.4926 C.2       15 UNK         0.5000 
     88 O          -3.1879  -23.9040  -52.4363 O.2       15 UNK        -0.5000 
     89 N          -4.5512  -22.7882  -50.9940 N.am      16 UNK        -0.5000 
     90 CA         -4.2969  -21.4047  -51.4217 C.3       16 UNK         0.1400 
     91 CB         -4.9100  -21.1548  -52.8132 C.3       16 UNK        -0.1800 
     92 C          -2.8010  -21.0196  -51.3544 C.2       16 UNK         0.5000 
     93 O          -2.3190  -20.2503  -52.1909 O.2       16 UNK        -0.5000 
     94 N          -2.0768  -21.6209  -50.3947 N.am      17 UNK        -0.5000 
     95 CA         -0.6329  -21.5082  -50.1555 C.3       17 UNK         0.1400 
     96 CB         -0.2897  -20.0633  -49.7501 C.3       17 UNK        -0.1800 
     97 C           0.2476  -21.9940  -51.3303 C.2       17 UNK         0.5000 
     98 O           1.4429  -21.7002  -51.3435 O.2       17 UNK        -0.5000 
     99 N          -0.3577  -22.6914  -52.3081 N.am      18 UNK        -0.5000 
    100 CA         0.1894  -23.0436  -53.6253 C.3       18 UNK         0.1400 
    101 CB         1.3437  -24.0600  -53.4961 C.3       18 UNK        -0.1800 
    102 C          0.5803  -21.8129  -54.4793 C.2       18 UNK         0.5000 
    103 O          1.3978  -21.9408  -55.3927 O.2       18 UNK        -0.5000 
    104 N          0.0021  -20.6443  -54.1676 N.am      19 UNK        -0.5000 
    105 CA         0.3786  -19.3451  -54.7296 C.3       19 UNK         0.1400 
    106 CB         1.2337  -18.6037  -53.6888 C.3       19 UNK        -0.1800 
    107 C         -0.8410  -18.4993  -55.1352 C.2       19 UNK         0.5000 
    108 O         -0.6650  -17.3380  -55.5059 O.2       19 UNK        -0.5000 
    109 N         -2.0481  -19.0773  -55.0395 N.am      20 UNK        -0.5000 
    110 CA        -3.3511  -18.4247  -55.2111 C.3       20 UNK         0.1400 
    111 CB        -3.5464  -17.9260  -56.6590 C.3       20 UNK        -0.1800 
    112 C         -3.6087  -17.3343  -54.1464 C.2       20 UNK         0.5000 
    113 O         -4.2203  -16.3066  -54.4455 O.2       20 UNK        -0.5000 
    114 N         -3.1381  -17.5837  -52.9158 N.am      21 UNK        -0.5000 
    115 CA        -3.3869  -16.7489  -51.7424 C.3       21 UNK         0.1400 
    116 CB        -2.4175  -17.1557  -50.6196 C.3       21 UNK        -0.1800 
    117 C         -4.8467  -16.8749  -51.2708 C.2       21 UNK         0.5000 
    118 O         -5.4964  -17.8843  -51.5503 O.2       21 UNK        -0.5000 
    119 N         -5.3161  -15.8399  -50.5666 N.am      22 UNK        -0.5000 
    120 CA        -6.6460  -15.6370  -49.9500 C.3       22 UNK         0.1400 
    121 C         -7.9199  -15.7990  -50.8384 C.2       22 UNK         0.5000 
    122 N         -7.8485  -16.3795  -52.0264 N.am      22 UNK        -0.7600 
    123 O         -8.9934  -15.3440  -50.4525 O.2       22 UNK        -0.5000 
    124 C124       -6.7921  -16.3199  -48.5619 C.3       23 UNK        -0.0398 
    125 S125       -6.8812  -18.1455  -48.5922 S.3       23 UNK        -0.2404 
    126 C126       -5.2502  -18.6051  -47.9306 C.3       23 UNK        -0.0205 
    127 H127       -4.3476  -11.2322  -50.1930 H         1 UNK         0.0600 
    128 H128       -5.5345  -12.5034  -50.4906 H         1 UNK         0.0600 
    129 H129       -5.5649  -11.6098  -48.9683 H         1 UNK         0.0600 
    130 H130       -4.4153  -12.4752  -47.2444 H         1 UNK         0.3000 
    131 H131       -3.0359  -14.9790  -47.4385 H         1 UNK         0.0600 
    132 H132       -4.3898  -14.0753  -45.4505 H         1 UNK         0.0800 
    133 H133       -3.0592  -13.0243  -45.0716 H         1 UNK         0.0800 
    134 H134       -4.7460  -15.3126  -43.5311 H         1 UNK         0.0800 
    135 H135       -3.6268  -16.3642  -42.7132 H         1 UNK         0.0800 
    136 H136       -4.2598  -16.5765  -46.4105 H         1 UNK         0.1150 
    137 H137       -6.1770  -20.3847  -46.1021 H         1 UNK         0.1150 
    138 H138       -5.0917  -18.2458  -42.5516 H         1 UNK         0.1150 
    139 H139       -6.1545  -20.3550  -42.3176 H         1 UNK         0.0800 
    140 H140       -7.3838  -20.5384  -43.5407 H         1 UNK         0.0800 
    141 H141       -4.1230  -22.9226  -42.0916 H         1 UNK         0.0800 
    142 H142       -3.8678  -21.2564  -42.5293 H         1 UNK         0.0800 
    143 H143       -2.9618  -22.0256  -44.7766 H         1 UNK         0.0600 
    144 H144       -1.0334  -21.6393  -43.8892 H         1 UNK         0.3000 
    145 H145        0.3112  -21.9224  -40.6215 H         1 UNK         0.0600 
    146 H146        2.4112  -22.1382  -41.9284 H         1 UNK         0.0600 
    147 H147        1.5267  -23.6568  -41.9254 H         1 UNK         0.0600 
    148 H148        1.5059  -22.6338  -43.3535 H         1 UNK         0.0600 
    149 H149        0.7596  -20.2879  -42.9944 H         1 UNK         0.3000 
    150 H150       -1.5993  -17.8114  -42.2287 H         1 UNK         0.0600 
    151 H151        0.1209  -17.0181  -40.6573 H         1 UNK         0.0600 
    152 H152        0.3370  -16.2269  -42.2117 H         1 UNK         0.0600 
    153 H153        1.4090  -17.5447  -41.7311 H         1 UNK         0.0600 
    154 H154        0.5664  -17.9199  -44.1078 H         1 UNK         0.3000 
    155 H155       -1.3719  -19.7134  -46.6070 H         1 UNK         0.0600 
    156 H156       -0.3887  -16.8356  -46.3367 H         1 UNK         0.0600 
    157 H157       -1.9913  -17.3501  -46.8380 H         1 UNK         0.0600 
    158 H158       -0.6095  -17.6637  -47.8718 H         1 UNK         0.0600 
    159 H159        1.2742  -18.7555  -46.7584 H         1 UNK         0.3000 
    160 H160        2.8967  -21.7166  -45.5489 H         1 UNK         0.0600 
    161 H161        3.8133  -21.7817  -47.7928 H         1 UNK         0.0600 
    162 H162        2.6708  -20.5817  -48.3781 H         1 UNK         0.0600 
    163 H163        2.1085  -22.1868  -47.9163 H         1 UNK         0.0600 
    164 H164        3.3491  -18.9754  -46.6673 H         1 UNK         0.3000 
    165 H165        4.9493  -17.9035  -43.7024 H         1 UNK         0.0600 
    166 H166        6.8567  -17.3486  -45.1815 H         1 UNK         0.0600 
    167 H167        6.8415  -19.0728  -44.8490 H         1 UNK         0.0600 
    168 H168        6.2761  -18.4788  -46.4058 H         1 UNK         0.0600 
    169 H169        4.6652  -16.5860  -46.1861 H         1 UNK         0.3000 
    170 H170        1.3219  -15.4221  -45.7708 H         1 UNK         0.0600 
    171 H171        2.7062  -13.9908  -44.2675 H         1 UNK         0.0600 
    172 H172        3.9896  -13.9591  -45.4720 H         1 UNK         0.0600 
    173 H173        2.4260  -13.2237  -45.8208 H         1 UNK         0.0600 
    174 H174        2.8851  -14.5573  -47.7691 H         1 UNK         0.3000 
    175 H175        3.6090  -15.8096  -49.8369 H         1 UNK         0.0600 
    176 H176        1.3434  -17.7692  -50.4824 H         1 UNK         0.0600 
    177 H177        2.5836  -17.1945  -51.5954 H         1 UNK         0.0600 
    178 H178        3.0245  -18.2442  -50.2621 H         1 UNK         0.0600 
    179 H179        0.8995  -14.9812  -49.3060 H         1 UNK         0.3000 
    180 H180        1.0131  -12.4367  -51.7615 H         1 UNK         0.0600 
    181 H181       -1.0794  -14.6578  -51.5021 H         1 UNK         0.0600 
    182 H182       -0.2642  -14.2083  -52.9943 H         1 UNK         0.0600 
    183 H183       -1.3469  -13.0668  -52.2095 H         1 UNK         0.0600 
    184 H184       -0.8960  -12.9418  -49.7365 H         1 UNK         0.3000 
    185 H185        0.7318  -11.9137  -46.8956 H         1 UNK         0.0600 
    186 H186        0.8819   -9.6135  -47.8634 H         1 UNK         0.0600 
    187 H187       -0.7343   -9.7812  -48.5380 H         1 UNK         0.0600 
    188 H188       -0.4980   -9.7627  -46.7895 H         1 UNK         0.0600 
    189 H189       -2.0125  -11.6232  -47.4972 H         1 UNK         0.3000 
    190 H190       -2.1341  -24.7123  -42.6008 H         1 UNK         0.3000 
    191 H191       -3.3100  -26.7873  -44.2653 H         1 UNK         0.0600 
    192 H192       -1.3844  -26.9223  -41.8813 H         1 UNK         0.0600 
    193 H193       -2.2588  -28.2867  -42.5683 H         1 UNK         0.0600 
    194 H194       -3.1443  -26.9863  -41.7891 H         1 UNK         0.0600 
    195 H195       -0.4614  -24.9856  -44.5985 H         1 UNK         0.3000 
    196 H196        1.4757  -26.8921  -45.3458 H         1 UNK         0.0600 
    197 H197        2.6294  -24.9148  -46.3754 H         1 UNK         0.0600 
    198 H198        2.0393  -24.5606  -44.7606 H         1 UNK         0.0600 
    199 H199        1.1689  -23.9573  -46.1716 H         1 UNK         0.0600 
    200 H200       -0.9470  -25.1642  -47.3632 H         1 UNK         0.3000 
    201 H201       -1.1505  -27.2152  -49.2827 H         1 UNK         0.0600 
    202 H202        1.0027  -26.4091  -50.2256 H         1 UNK         0.0600 
    203 H203        0.4580  -24.7362  -50.1501 H         1 UNK         0.0600 
    204 H204       -0.2917  -25.8658  -51.2731 H         1 UNK         0.0600 
    205 H205       -2.8471  -26.7378  -50.7738 H         1 UNK         0.3000 
    206 H206       -4.9178  -24.9989  -49.8856 H         1 UNK         0.0600 
    207 H207       -5.3558  -27.0856  -51.1553 H         1 UNK         0.0600 
    208 H208       -6.0168  -25.7064  -52.0196 H         1 UNK         0.0600 
    209 H209       -4.5136  -26.4402  -52.5644 H         1 UNK         0.0600 
    210 H210       -5.1708  -22.8869  -50.2016 H         1 UNK         0.3000 
    211 H211       -4.8118  -20.7563  -50.7112 H         1 UNK         0.0600 
    212 H212       -4.3645  -21.6776  -53.5994 H         1 UNK         0.0600 
    213 H213       -4.8998  -20.0920  -53.0504 H         1 UNK         0.0600 
    214 H214       -5.9496  -21.4794  -52.8510 H         1 UNK         0.0600 
    215 H215       -2.5477  -22.2925  -49.7988 H         1 UNK         0.3000 
    216 H216       -0.4090  -22.1595  -49.3093 H         1 UNK         0.0600 
    217 H217       -0.3729  -19.3812  -50.5953 H         1 UNK         0.0600 
    218 H218        0.7270  -19.9842  -49.3699 H         1 UNK         0.0600 
    219 H219       -0.9593  -19.7102  -48.9690 H         1 UNK         0.0600 
    220 H220       -1.3431  -22.9042  -52.1934 H         1 UNK         0.3000 
    221 H221       -0.6222  -23.5348  -54.1636 H         1 UNK         0.0600 
    222 H222        2.2150  -23.6267  -53.0049 H         1 UNK         0.0600 
    223 H223        1.0395  -24.9369  -52.9281 H         1 UNK         0.0600 
    224 H224        1.6660  -24.4141  -54.4759 H         1 UNK         0.0600 
    225 H225       -0.6610  -20.6215  -53.3998 H         1 UNK         0.3000 
    226 H226        0.9726  -19.4783  -55.6357 H         1 UNK         0.0600 
    227 H227        2.1045  -19.1923  -53.3990 H         1 UNK         0.0600 
    228 H228        1.5993  -17.6525  -54.0774 H         1 UNK         0.0600 
    229 H229        0.6578  -18.3924  -52.7872 H         1 UNK         0.0600 
    230 H230       -2.0807  -20.0324  -54.7132 H         1 UNK         0.3000 
    231 H231       -4.0999  -19.1976  -55.0395 H         1 UNK         0.0600 
    232 H232       -3.3462  -18.7187  -57.3797 H         1 UNK         0.0600 
    233 H233       -2.8937  -17.0851  -56.8938 H         1 UNK         0.0600 
    234 H234       -4.5726  -17.5940  -56.8201 H         1 UNK         0.0600 
    235 H235       -2.7068  -18.4864  -52.7383 H         1 UNK         0.3000 
    236 H236       -3.1954  -15.7092  -52.0149 H         1 UNK         0.0600 
    237 H237       -2.5091  -16.4896  -49.7609 H         1 UNK         0.0600 
    238 H238       -2.6132  -18.1686  -50.2679 H         1 UNK         0.0600 
    239 H239       -1.3810  -17.1098  -50.9543 H         1 UNK         0.0600 
    240 H240       -4.6638  -15.0764  -50.4132 H         1 UNK         0.3000 
    241 H241       -6.6446  -14.5680  -49.7378 H         1 UNK         0.0600 
    242 H242       -6.9970  -16.8733  -52.2698 H         1 UNK         0.3800 
    243 H243       -8.6732  -16.4675  -52.5982 H         1 UNK         0.3800 
    244 H244       -5.9699  -16.0036  -47.9216 H         1 UNK         0.0800 
    245 H245       -7.6920  -15.9571  -48.0626 H         1 UNK         0.0800 
    246 H246       -5.0292  -19.6324  -48.2232 H         1 UNK         0.0800 
    247 H247       -4.4752  -17.9874  -48.3861 H         1 UNK         0.0800 
@<TRIPOS>BOND
     1    1    2 1    
     2    1  127 1    
     3    1  128 1    
     4    1  129 1    
     5    2    3 2    
     6    2    4 am   BACKBONE|DICT|INTERRES
     7    4    5 1    
     8    4  130 1    
     9    5    6 1    
    10    5   65 1    
    11    5  131 1    
    12    6    7 1    
    13    6  132 1    
    14    6  133 1    
    15    7    8 1    
    16    8    9 1    
    17    8  134 1    
    18    8  135 1    
    19    9   10 ar   
    20    9   14 ar   
    21   10   11 ar   
    22   10  136 1    
    23   11   12 ar   
    24   11  126 1    
    25   12   13 ar   
    26   12  137 1    
    27   13   14 ar   
    28   13   15 1    
    29   14  138 1    
    30   15   16 1    
    31   15  139 1    
    32   15  140 1    
    33   16   17 1    
    34   17   18 1    
    35   17  141 1    
    36   17  142 1    
    37   18   19 1    
    38   18   67 1    
    39   18  143 1    
    40   19   20 am   BACKBONE|DICT|INTERRES
    41   19  144 1    
    42   20   21 2    
    43   20   22 1    
    44   22   23 1    
    45   22   24 1    
    46   22  145 1    
    47   23  146 1    
    48   23  147 1    
    49   23  148 1    
    50   24   25 am   BACKBONE|DICT|INTERRES
    51   24  149 1    
    52   25   26 2    
    53   25   27 1    
    54   27   28 1    
    55   27   29 1    
    56   27  150 1    
    57   28  151 1    
    58   28  152 1    
    59   28  153 1    
    60   29   30 am   BACKBONE|DICT|INTERRES
    61   29  154 1    
    62   30   31 2    
    63   30   32 1    
    64   32   33 1    
    65   32   34 1    
    66   32  155 1    
    67   33  156 1    
    68   33  157 1    
    69   33  158 1    
    70   34   35 am   BACKBONE|DICT|INTERRES
    71   34  159 1    
    72   35   36 2    
    73   35   37 1    
    74   37   38 1    
    75   37   39 1    
    76   37  160 1    
    77   38  161 1    
    78   38  162 1    
    79   38  163 1    
    80   39   40 am   BACKBONE|DICT|INTERRES
    81   39  164 1    
    82   40   41 2    
    83   40   42 1    
    84   42   43 1    
    85   42   44 1    
    86   42  165 1    
    87   43  166 1    
    88   43  167 1    
    89   43  168 1    
    90   44   45 am   BACKBONE|DICT|INTERRES
    91   44  169 1    
    92   45   46 2    
    93   45   47 1    
    94   47   48 1    
    95   47   49 1    
    96   47  170 1    
    97   48  171 1    
    98   48  172 1    
    99   48  173 1    
   100   49   50 am   BACKBONE|DICT|INTERRES
   101   49  174 1    
   102   50   51 2    
   103   50   52 1    
   104   52   53 1    
   105   52   54 1    
   106   52  175 1    
   107   53  176 1    
   108   53  177 1    
   109   53  178 1    
   110   54   55 am   BACKBONE|DICT|INTERRES
   111   54  179 1    
   112   55   56 2    
   113   55   57 1    
   114   57   58 1    
   115   57   59 1    
   116   57  180 1    
   117   58  181 1    
   118   58  182 1    
   119   58  183 1    
   120   59   60 am   BACKBONE|DICT|INTERRES
   121   59  184 1    
   122   60   61 2    
   123   60   62 1    
   124   62   63 1    
   125   62   64 1    
   126   62  185 1    
   127   63  186 1    
   128   63  187 1    
   129   63  188 1    
   130   64   65 am   BACKBONE|DICT|INTERRES
   131   64  189 1    
   132   65   66 2    
   133   67   68 2    
   134   67   69 am   BACKBONE|DICT|INTERRES
   135   69   70 1    
   136   69  190 1    
   137   70   71 1    
   138   70   72 1    
   139   70  191 1    
   140   71  192 1    
   141   71  193 1    
   142   71  194 1    
   143   72   73 2    
   144   72   74 am   BACKBONE|DICT|INTERRES
   145   74   75 1    
   146   74  195 1    
   147   75   76 1    
   148   75   77 1    
   149   75  196 1    
   150   76  197 1    
   151   76  198 1    
   152   76  199 1    
   153   77   78 2    
   154   77   79 am   BACKBONE|DICT|INTERRES
   155   79   80 1    
   156   79  200 1    
   157   80   81 1    
   158   80   82 1    
   159   80  201 1    
   160   81  202 1    
   161   81  203 1    
   162   81  204 1    
   163   82   83 2    
   164   82   84 am   BACKBONE|DICT|INTERRES
   165   84   85 1    
   166   84  205 1    
   167   85   86 1    
   168   85   87 1    
   169   85  206 1    
   170   86  207 1    
   171   86  208 1    
   172   86  209 1    
   173   87   88 2    
   174   87   89 am   BACKBONE|DICT|INTERRES
   175   89   90 1    
   176   89  210 1    
   177   90   91 1    
   178   90   92 1    
   179   90  211 1    
   180   91  212 1    
   181   91  213 1    
   182   91  214 1    
   183   92   93 2    
   184   92   94 am   BACKBONE|DICT|INTERRES
   185   94   95 1    
   186   94  215 1    
   187   95   96 1    
   188   95   97 1    
   189   95  216 1    
   190   96  217 1    
   191   96  218 1    
   192   96  219 1    
   193   97   98 2    
   194   97   99 am   BACKBONE|DICT|INTERRES
   195   99  100 1    
   196   99  220 1    
   197  100  101 1    
   198  100  102 1    
   199  100  221 1    
   200  101  222 1    
   201  101  223 1    
   202  101  224 1    
   203  102  103 2    
   204  102  104 am   BACKBONE|DICT|INTERRES
   205  104  105 1    
   206  104  225 1    
   207  105  106 1    
   208  105  107 1    
   209  105  226 1    
   210  106  227 1    
   211  106  228 1    
   212  106  229 1    
   213  107  108 2    
   214  107  109 am   BACKBONE|DICT|INTERRES
   215  109  110 1    
   216  109  230 1    
   217  110  111 1    
   218  110  112 1    
   219  110  231 1    
   220  111  232 1    
   221  111  233 1    
   222  111  234 1    
   223  112  113 2    
   224  112  114 am   BACKBONE|DICT|INTERRES
   225  114  115 1    
   226  114  235 1    
   227  115  116 1    
   228  115  117 1    
   229  115  236 1    
   230  116  237 1    
   231  116  238 1    
   232  116  239 1    
   233  117  118 2    
   234  117  119 am   BACKBONE|DICT|INTERRES
   235  119  120 1    
   236  119  240 1    
   237  120  121 1    
   238  120  124 1    
   239  120  241 1    
   240  121  122 am   BACKBONE|DICT|INTERRES
   241  121  123 2    
   242  122  242 1    
   243  122  243 1    
   244  124  125 1    
   245  124  244 1    
   246  124  245 1    
   247  125  126 1    
   248  126  246 1    
   249  126  247 1    
@<TRIPOS>SUBSTRUCTURE
     1 UNK         1 GROUP             0       ****    0 ROOT    
