@<TRIPOS>MOLECULE
3R540
247   249    1
SMALL
USER_CHARGES


@<TRIPOS>ATOM
      1 CA          0.1186  -13.1481  -51.4973 C.3       0 UNK        -0.1800 
      2 C           0.1634  -13.2406  -49.9798 C.2       0 UNK         0.5000 
      3 O          -0.6577  -12.6233  -49.3026 O.2       0 UNK        -0.5000 
      4 N           1.1222  -14.0064  -49.4429 N.am      1 UNK        -0.5000 
      5 CA          1.4310  -14.1037  -48.0091 C.3       1 UNK         0.1400 
      6 C6          2.7107  -14.9311  -47.7238 C.3       23 UNK        -0.0398 
      7 S7          4.1401  -14.4161  -48.7402 S.3       23 UNK        -0.2404 
      8 C8          5.0068  -15.9989  -49.0448 C.3       23 UNK        -0.0205 
      9 C9          4.1413  -17.1065  -49.6455 C.ar      23 UNK        -0.0193 
     10 C10         3.1314  -16.8282  -50.5734 C.ar      23 UNK        -0.1150 
     11 C11         2.3117  -17.8475  -51.0633 C.ar      23 UNK        -0.0193 
     12 C12         2.5317  -19.1651  -50.6529 C.ar      23 UNK        -0.1150 
     13 C13         3.5604  -19.4663  -49.7549 C.ar      23 UNK        -0.0193 
     14 C14         4.3594  -18.4319  -49.2569 C.ar      23 UNK        -0.1150 
     15 C15         3.8096  -20.9103  -49.3329 C.3       23 UNK        -0.0205 
     16 S16         3.7563  -21.1551  -47.5260 S.3       23 UNK        -0.2404 
     17 C17         2.0429  -20.6726  -47.1379 C.3       23 UNK        -0.0398 
     18 CA          1.0705  -21.8729  -47.0646 C.3       11 UNK         0.1400 
     19 N           1.4627  -22.8546  -46.0475 N.am      11 UNK        -0.5000 
     20 C           1.0389  -24.1246  -45.9996 C.2       10 UNK         0.5000 
     21 O           0.2664  -24.6222  -46.8172 O.2       10 UNK        -0.5000 
     22 CA          1.5423  -24.9830  -44.8238 C.3       10 UNK         0.1400 
     23 CB          2.9153  -25.5889  -45.1502 C.3       10 UNK        -0.1800 
     24 N           1.6299  -24.2384  -43.5676 N.am      10 UNK        -0.5000 
     25 C           0.5770  -23.7435  -42.9020 C.2       9 UNK         0.5000 
     26 O          -0.5905  -23.8914  -43.2610 O.2       9 UNK        -0.5000 
     27 CA          0.8888  -22.8844  -41.6601 C.3       9 UNK         0.1400 
     28 CB          1.0414  -23.7708  -40.4153 C.3       9 UNK        -0.1800 
     29 N           2.0806  -22.0386  -41.8062 N.am      9 UNK        -0.5000 
     30 C           2.2567  -21.1386  -42.7821 C.2       8 UNK         0.5000 
     31 O           1.4479  -20.9660  -43.6977 O.2       8 UNK        -0.5000 
     32 CA          3.5742  -20.3406  -42.7707 C.3       8 UNK         0.1400 
     33 CB          4.7251  -21.2073  -43.3058 C.3       8 UNK        -0.1800 
     34 N           3.4532  -19.1554  -43.6178 N.am      8 UNK        -0.5000 
     35 C           2.7336  -18.0733  -43.2991 C.2       7 UNK         0.5000 
     36 O           2.2871  -17.8459  -42.1723 O.2       7 UNK        -0.5000 
     37 CA          2.3874  -17.1393  -44.4709 C.3       7 UNK         0.1400 
     38 CB          1.0131  -17.5159  -45.0483 C.3       7 UNK        -0.1800 
     39 N           2.3817  -15.7283  -44.0896 N.am      7 UNK        -0.5000 
     40 C           3.4729  -15.0330  -43.7429 C.2       6 UNK         0.5000 
     41 O           4.6138  -15.4964  -43.7690 O.2       6 UNK        -0.5000 
     42 CA          3.2665  -13.5666  -43.3176 C.3       6 UNK         0.1400 
     43 CB          3.4464  -12.6294  -44.5226 C.3       6 UNK        -0.1800 
     44 N           1.9619  -13.3010  -42.7103 N.am      6 UNK        -0.5000 
     45 C           1.5427  -13.7591  -41.5216 C.2       5 UNK         0.5000 
     46 O           2.2282  -14.4776  -40.7937 O.2       5 UNK        -0.5000 
     47 CA          0.1397  -13.3170  -41.0450 C.3       5 UNK         0.1400 
     48 CB          0.2270  -12.5765  -39.6998 C.3       5 UNK        -0.1800 
     49 N          -0.5493  -12.4498  -42.0065 N.am      5 UNK        -0.5000 
     50 C          -1.2044  -12.8778  -43.0922 C.2       4 UNK         0.5000 
     51 O          -1.3768  -14.0708  -43.3513 O.2       4 UNK        -0.5000 
     52 CA         -1.7226  -11.7833  -44.0434 C.3       4 UNK         0.1400 
     53 CB         -0.6044  -10.8066  -44.4577 C.3       4 UNK        -0.1800 
     54 N          -2.2607  -12.3932  -45.2530 N.am      4 UNK        -0.5000 
     55 C          -3.4243  -12.0889  -45.8404 C.2       3 UNK         0.5000 
     56 O          -4.1968  -11.2302  -45.4118 O.2       3 UNK        -0.5000 
     57 CA         -3.7920  -12.8517  -47.1322 C.3       3 UNK         0.1400 
     58 CB         -3.8351  -11.8950  -48.3345 C.3       3 UNK        -0.1800 
     59 N          -2.8654  -13.9460  -47.4306 N.am      3 UNK        -0.5000 
     60 C          -2.8984  -15.1461  -46.8332 C.2       2 UNK         0.5000 
     61 O          -3.7855  -15.4871  -46.0504 O.2       2 UNK        -0.5000 
     62 CA         -1.7477  -16.1270  -47.1330 C.3       2 UNK         0.1400 
     63 CB         -2.2362  -17.2924  -48.0071 C.3       2 UNK        -0.1800 
     64 N          -0.5770  -15.5080  -47.7631 N.am      2 UNK        -0.5000 
     65 C           0.2582  -14.6430  -47.1658 C.2       1 UNK         0.5000 
     66 O           0.1292  -14.2581  -46.0047 O.2       1 UNK        -0.5000 
     67 C          -0.3611  -21.3609  -46.8236 C.2       11 UNK         0.5000 
     68 O          -1.1061  -21.1627  -47.7820 O.2       11 UNK        -0.5000 
     69 N          -0.7144  -21.1547  -45.5475 N.am      12 UNK        -0.5000 
     70 CA         -2.0440  -20.7352  -45.1103 C.3       12 UNK         0.1400 
     71 CB         -1.9849  -20.3437  -43.6265 C.3       12 UNK        -0.1800 
     72 C          -3.1118  -21.8176  -45.3548 C.2       12 UNK         0.5000 
     73 O          -4.2482  -21.4799  -45.6861 O.2       12 UNK        -0.5000 
     74 N          -2.7248  -23.0918  -45.2004 N.am      13 UNK        -0.5000 
     75 CA         -3.5433  -24.2518  -45.5354 C.3       13 UNK         0.1400 
     76 CB         -3.0115  -25.4937  -44.7994 C.3       13 UNK        -0.1800 
     77 C          -3.5977  -24.4707  -47.0568 C.2       13 UNK         0.5000 
     78 O          -4.6618  -24.3006  -47.6519 O.2       13 UNK        -0.5000 
     79 N          -2.4565  -24.8643  -47.6463 N.am      14 UNK        -0.5000 
     80 CA         -2.2215  -25.1567  -49.0671 C.3       14 UNK         0.1400 
     81 CB         -2.0068  -23.8452  -49.8410 C.3       14 UNK        -0.1800 
     82 C          -3.2966  -26.0598  -49.7084 C.2       14 UNK         0.5000 
     83 O          -3.8032  -25.7491  -50.7869 O.2       14 UNK        -0.5000 
     84 N          -3.6720  -27.1320  -48.9933 N.am      15 UNK        -0.5000 
     85 CA         -4.7250  -28.0986  -49.3410 C.3       15 UNK         0.1400 
     86 CB         -4.2955  -28.9480  -50.5557 C.3       15 UNK        -0.1800 
     87 C          -6.1226  -27.4590  -49.5258 C.2       15 UNK         0.5000 
     88 O          -6.9292  -27.9604  -50.3103 O.2       15 UNK        -0.5000 
     89 N          -6.3692  -26.3529  -48.8063 N.am      16 UNK        -0.5000 
     90 CA         -7.5458  -25.4784  -48.8622 C.3       16 UNK         0.1400 
     91 CB         -8.8404  -26.2418  -48.5106 C.3       16 UNK        -0.1800 
     92 C          -7.6560  -24.6749  -50.1769 C.2       16 UNK         0.5000 
     93 O          -8.7355  -24.1692  -50.4882 O.2       16 UNK        -0.5000 
     94 N          -6.5433  -24.5449  -50.9123 N.am      17 UNK        -0.5000 
     95 CA         -6.4430  -23.8337  -52.1861 C.3       17 UNK         0.1400 
     96 CB         -6.0228  -24.8287  -53.2826 C.3       17 UNK        -0.1800 
     97 C          -5.4772  -22.6376  -52.0929 C.2       17 UNK         0.5000 
     98 O          -4.9597  -22.1984  -53.1199 O.2       17 UNK        -0.5000 
     99 N          -5.2608  -22.1009  -50.8817 N.am      18 UNK        -0.5000 
    100 CA        -4.3679  -20.9671  -50.6031 C.3       18 UNK         0.1400 
    101 CB        -4.3725  -20.6730  -49.0962 C.3       18 UNK        -0.1800 
    102 C         -4.6998  -19.6937  -51.4037 C.2       18 UNK         0.5000 
    103 O         -3.7884  -18.9989  -51.8523 O.2       18 UNK        -0.5000 
    104 N         -5.9991  -19.4463  -51.6184 N.am      19 UNK        -0.5000 
    105 CA        -6.5147  -18.3423  -52.4296 C.3       19 UNK         0.1400 
    106 CB        -8.0324  -18.2352  -52.2172 C.3       19 UNK        -0.1800 
    107 C         -6.1883  -18.4735  -53.9313 C.2       19 UNK         0.5000 
    108 O         -6.1114  -17.4546  -54.6178 O.2       19 UNK        -0.5000 
    109 N         -6.0005  -19.7103  -54.4131 N.am      20 UNK        -0.5000 
    110 CA        -5.5654  -20.0044  -55.7766 C.3       20 UNK         0.1400 
    111 CB        -6.1475  -21.3523  -56.2314 C.3       20 UNK        -0.1800 
    112 C         -4.0313  -20.0043  -55.8668 C.2       20 UNK         0.5000 
    113 O         -3.4825  -19.4100  -56.7950 O.2       20 UNK        -0.5000 
    114 N         -3.3659  -20.6332  -54.8855 N.am      21 UNK        -0.5000 
    115 CA        -1.9075  -20.7395  -54.7778 C.3       21 UNK         0.1400 
    116 CB        -1.5454  -21.6057  -53.5613 C.3       21 UNK        -0.1800 
    117 C         -1.2016  -19.3731  -54.6990 C.2       21 UNK         0.5000 
    118 O         -0.1829  -19.1761  -55.3625 O.2       21 UNK        -0.5000 
    119 N         -1.7819  -18.4500  -53.9248 N.am      22 UNK        -0.5000 
    120 CA        -1.3758  -17.0401  -53.8396 C.3       22 UNK         0.1400 
    121 C         -2.1249  -16.1127  -54.8444 C.2       22 UNK         0.5000 
    122 N         -2.8626  -16.6269  -55.8208 N.am      22 UNK        -0.7600 
    123 O         -2.0192  -14.8926  -54.7548 O.2       22 UNK        -0.5000 
    124 C124       -1.4713  -16.5130  -52.3821 C.3       23 UNK        -0.0398 
    125 S125       -0.3996  -17.3488  -51.1566 S.3       23 UNK        -0.2404 
    126 C126        1.1877  -17.5199  -52.0317 C.3       23 UNK        -0.0205 
    127 H127       -0.9121  -13.1897  -51.8489 H         1 UNK         0.0600 
    128 H128        0.6774  -13.9575  -51.9677 H         1 UNK         0.0600 
    129 H129        0.5480  -12.2013  -51.8241 H         1 UNK         0.0600 
    130 H130        1.7728  -14.4790  -50.0518 H         1 UNK         0.3000 
    131 H131        1.6172  -13.0840  -47.6653 H         1 UNK         0.0600 
    132 H132        3.0013  -14.8275  -46.6792 H         1 UNK         0.0800 
    133 H133        2.5132  -15.9931  -47.8735 H         1 UNK         0.0800 
    134 H134        5.4362  -16.3322  -48.0985 H         1 UNK         0.0800 
    135 H135        5.8464  -15.8134  -49.7156 H         1 UNK         0.0800 
    136 H136        2.9700  -15.8135  -50.9048 H         1 UNK         0.1150 
    137 H137        1.8988  -19.9537  -51.0356 H         1 UNK         0.1150 
    138 H138        5.1483  -18.6632  -48.5547 H         1 UNK         0.1150 
    139 H139        3.0865  -21.5819  -49.7983 H         1 UNK         0.0800 
    140 H140        4.7906  -21.2161  -49.6986 H         1 UNK         0.0800 
    141 H141        1.6950  -19.9396  -47.8675 H         1 UNK         0.0800 
    142 H142        2.0704  -20.1499  -46.1831 H         1 UNK         0.0800 
    143 H143        1.0770  -22.3708  -48.0369 H         1 UNK         0.0600 
    144 H144        2.0464  -22.5090  -45.2997 H         1 UNK         0.3000 
    145 H145        0.8325  -25.8009  -44.6828 H         1 UNK         0.0600 
    146 H146        3.2477  -26.2618  -44.3595 H         1 UNK         0.0600 
    147 H147        2.8763  -26.1684  -46.0736 H         1 UNK         0.0600 
    148 H148        3.6766  -24.8181  -45.2784 H         1 UNK         0.0600 
    149 H149        2.5543  -24.0631  -43.2026 H         1 UNK         0.3000 
    150 H150        0.0361  -22.2212  -41.5019 H         1 UNK         0.0600 
    151 H151        0.1603  -24.3979  -40.2721 H         1 UNK         0.0600 
    152 H152        1.1593  -23.1689  -39.5141 H         1 UNK         0.0600 
    153 H153        1.9056  -24.4316  -40.4943 H         1 UNK         0.0600 
    154 H154        2.7922  -22.1390  -41.0967 H         1 UNK         0.3000 
    155 H155        3.7969  -20.0332  -41.7469 H         1 UNK         0.0600 
    156 H156        4.5316  -21.5544  -44.3220 H         1 UNK         0.0600 
    157 H157        4.8789  -22.0884  -42.6817 H         1 UNK         0.0600 
    158 H158        5.6635  -20.6524  -43.3157 H         1 UNK         0.0600 
    159 H159        3.7624  -19.2680  -44.5715 H         1 UNK         0.3000 
    160 H160        3.1372  -17.2786  -45.2530 H         1 UNK         0.0600 
    161 H161        0.1995  -17.0688  -44.4759 H         1 UNK         0.0600 
    162 H162        0.8467  -18.5928  -45.0427 H         1 UNK         0.0600 
    163 H163        0.9275  -17.1927  -46.0830 H         1 UNK         0.0600 
    164 H164        1.4805  -15.2731  -44.0377 H         1 UNK         0.3000 
    165 H165        4.0365  -13.3290  -42.5807 H         1 UNK         0.0600 
    166 H166        3.4290  -11.5839  -44.2144 H         1 UNK         0.0600 
    167 H167        4.4020  -12.8049  -45.0189 H         1 UNK         0.0600 
    168 H168        2.6596  -12.7721  -45.2641 H         1 UNK         0.0600 
    169 H169        1.3295  -12.7212  -43.2397 H         1 UNK         0.3000 
    170 H170       -0.4508  -14.2233  -40.8950 H         1 UNK         0.0600 
    171 H171        0.6832  -13.2045  -38.9335 H         1 UNK         0.0600 
    172 H172        0.8254  -11.6680  -39.7787 H         1 UNK         0.0600 
    173 H173       -0.7629  -12.2970  -39.3385 H         1 UNK         0.0600 
    174 H174       -0.4573  -11.4559  -41.8510 H         1 UNK         0.3000 
    175 H175       -2.5024  -11.2350  -43.5113 H         1 UNK         0.0600 
    176 H176        0.2259  -11.3279  -44.9364 H         1 UNK         0.0600 
    177 H177       -0.9772  -10.0633  -45.1628 H         1 UNK         0.0600 
    178 H178       -0.2064  -10.2595  -43.6028 H         1 UNK         0.0600 
    179 H179       -1.7066  -13.1598  -45.6190 H         1 UNK         0.3000 
    180 H180       -4.7938  -13.2640  -46.9951 H         1 UNK         0.0600 
    181 H181       -4.0799  -12.4250  -49.2552 H         1 UNK         0.0600 
    182 H182       -2.8802  -11.3894  -48.4806 H         1 UNK         0.0600 
    183 H183       -4.5932  -11.1239  -48.1925 H         1 UNK         0.0600 
    184 H184       -2.0962  -13.7247  -48.0525 H         1 UNK         0.3000 
    185 H185       -1.4359  -16.5381  -46.1722 H         1 UNK         0.0600 
    186 H186       -1.4494  -18.0324  -48.1581 H         1 UNK         0.0600 
    187 H187       -3.0751  -17.8074  -47.5375 H         1 UNK         0.0600 
    188 H188       -2.5699  -16.9491  -48.9870 H         1 UNK         0.0600 
    189 H189       -0.4017  -15.7550  -48.7271 H         1 UNK         0.3000 
    190 H190       -0.0122  -21.2777  -44.8219 H         1 UNK         0.3000 
    191 H191       -2.3255  -19.8512  -45.6868 H         1 UNK         0.0600 
    192 H192       -2.9542  -19.9845  -43.2787 H         1 UNK         0.0600 
    193 H193       -1.2606  -19.5463  -43.4574 H         1 UNK         0.0600 
    194 H194       -1.7026  -21.1901  -42.9997 H         1 UNK         0.0600 
    195 H195       -1.7923  -23.2784  -44.8494 H         1 UNK         0.3000 
    196 H196       -4.5633  -24.0731  -45.1881 H         1 UNK         0.0600 
    197 H197       -1.9659  -25.6955  -45.0350 H         1 UNK         0.0600 
    198 H198       -3.0852  -25.3665  -43.7191 H         1 UNK         0.0600 
    199 H199       -3.5878  -26.3817  -45.0615 H         1 UNK         0.0600 
    200 H200       -1.6166  -24.9166  -47.0769 H         1 UNK         0.3000 
    201 H201       -1.2888  -25.7202  -49.1154 H         1 UNK         0.0600 
    202 H202       -2.8908  -23.2162  -49.7815 H         1 UNK         0.0600 
    203 H203       -1.7974  -24.0283  -50.8956 H         1 UNK         0.0600 
    204 H204       -1.1650  -23.2841  -49.4368 H         1 UNK         0.0600 
    205 H205       -3.2139  -27.2862  -48.1060 H         1 UNK         0.3000 
    206 H206       -4.8156  -28.7704  -48.4864 H         1 UNK         0.0600 
    207 H207       -3.3146  -29.3958  -50.3969 H         1 UNK         0.0600 
    208 H208       -4.9973  -29.7639  -50.7323 H         1 UNK         0.0600 
    209 H209       -4.2493  -28.3537  -51.4688 H         1 UNK         0.0600 
    210 H210       -5.6115  -25.9784  -48.2450 H         1 UNK         0.3000 
    211 H211       -7.3918  -24.7344  -48.0796 H         1 UNK         0.0600 
    212 H212       -9.6723  -25.5517  -48.3652 H         1 UNK         0.0600 
    213 H213       -8.7265  -26.8084  -47.5865 H         1 UNK         0.0600 
    214 H214       -9.1316  -26.9364  -49.2986 H         1 UNK         0.0600 
    215 H215       -5.6873  -24.9935  -50.6000 H         1 UNK         0.3000 
    216 H216       -7.4119  -23.4190  -52.4696 H         1 UNK         0.0600 
    217 H217       -5.0162  -25.2121  -53.1144 H         1 UNK         0.0600 
    218 H218       -6.0345  -24.3591  -54.2668 H         1 UNK         0.0600 
    219 H219       -6.7024  -25.6800  -53.3230 H         1 UNK         0.0600 
    220 H220       -5.7138  -22.5266  -50.0861 H         1 UNK         0.3000 
    221 H221       -3.3584  -21.2659  -50.8858 H         1 UNK         0.0600 
    222 H222       -5.3599  -20.3740  -48.7432 H         1 UNK         0.0600 
    223 H223       -3.6767  -19.8687  -48.8551 H         1 UNK         0.0600 
    224 H224       -4.0619  -21.5448  -48.5203 H         1 UNK         0.0600 
    225 H225       -6.6800  -20.0756  -51.2196 H         1 UNK         0.3000 
    226 H226       -6.0528  -17.4188  -52.0739 H         1 UNK         0.0600 
    227 H227       -8.5484  -19.1417  -52.5364 H         1 UNK         0.0600 
    228 H228       -8.2732  -18.0621  -51.1681 H         1 UNK         0.0600 
    229 H229       -8.4488  -17.4029  -52.7862 H         1 UNK         0.0600 
    230 H230       -6.0175  -20.4923  -53.7712 H         1 UNK         0.3000 
    231 H231       -5.9440  -19.2361  -56.4543 H         1 UNK         0.0600 
    232 H232       -5.7880  -22.1816  -55.6227 H         1 UNK         0.0600 
    233 H233       -5.8711  -21.5639  -57.2650 H         1 UNK         0.0600 
    234 H234       -7.2364  -21.3476  -56.1808 H         1 UNK         0.0600 
    235 H235       -3.9061  -21.1247  -54.1773 H         1 UNK         0.3000 
    236 H236       -1.5516  -21.2474  -55.6763 H         1 UNK         0.0600 
    237 H237       -2.0308  -22.5810  -53.6077 H         1 UNK         0.0600 
    238 H238       -0.4696  -21.7775  -53.5124 H         1 UNK         0.0600 
    239 H239       -1.8410  -21.1273  -52.6281 H         1 UNK         0.0600 
    240 H240       -2.5945  -18.7074  -53.3715 H         1 UNK         0.3000 
    241 H241       -0.3358  -16.9558  -54.1527 H         1 UNK         0.0600 
    242 H242       -3.3362  -16.0036  -56.4549 H         1 UNK         0.3800 
    243 H243       -2.9399  -17.6270  -55.9584 H         1 UNK         0.3800 
    244 H244       -2.5013  -16.5798  -52.0284 H         1 UNK         0.0800 
    245 H245       -1.2171  -15.4558  -52.3468 H         1 UNK         0.0800 
    246 H246        1.4144  -16.5955  -52.5650 H         1 UNK         0.0800 
    247 H247        1.1094  -18.3069  -52.7832 H         1 UNK         0.0800 
@<TRIPOS>BOND
     1    1    2 1    
     2    1  127 1    
     3    1  128 1    
     4    1  129 1    
     5    2    3 2    
     6    2    4 am   BACKBONE|DICT|INTERRES
     7    4    5 1    
     8    4  130 1    
     9    5    6 1    
    10    5   65 1    
    11    5  131 1    
    12    6    7 1    
    13    6  132 1    
    14    6  133 1    
    15    7    8 1    
    16    8    9 1    
    17    8  134 1    
    18    8  135 1    
    19    9   10 ar   
    20    9   14 ar   
    21   10   11 ar   
    22   10  136 1    
    23   11   12 ar   
    24   11  126 1    
    25   12   13 ar   
    26   12  137 1    
    27   13   14 ar   
    28   13   15 1    
    29   14  138 1    
    30   15   16 1    
    31   15  139 1    
    32   15  140 1    
    33   16   17 1    
    34   17   18 1    
    35   17  141 1    
    36   17  142 1    
    37   18   19 1    
    38   18   67 1    
    39   18  143 1    
    40   19   20 am   BACKBONE|DICT|INTERRES
    41   19  144 1    
    42   20   21 2    
    43   20   22 1    
    44   22   23 1    
    45   22   24 1    
    46   22  145 1    
    47   23  146 1    
    48   23  147 1    
    49   23  148 1    
    50   24   25 am   BACKBONE|DICT|INTERRES
    51   24  149 1    
    52   25   26 2    
    53   25   27 1    
    54   27   28 1    
    55   27   29 1    
    56   27  150 1    
    57   28  151 1    
    58   28  152 1    
    59   28  153 1    
    60   29   30 am   BACKBONE|DICT|INTERRES
    61   29  154 1    
    62   30   31 2    
    63   30   32 1    
    64   32   33 1    
    65   32   34 1    
    66   32  155 1    
    67   33  156 1    
    68   33  157 1    
    69   33  158 1    
    70   34   35 am   BACKBONE|DICT|INTERRES
    71   34  159 1    
    72   35   36 2    
    73   35   37 1    
    74   37   38 1    
    75   37   39 1    
    76   37  160 1    
    77   38  161 1    
    78   38  162 1    
    79   38  163 1    
    80   39   40 am   BACKBONE|DICT|INTERRES
    81   39  164 1    
    82   40   41 2    
    83   40   42 1    
    84   42   43 1    
    85   42   44 1    
    86   42  165 1    
    87   43  166 1    
    88   43  167 1    
    89   43  168 1    
    90   44   45 am   BACKBONE|DICT|INTERRES
    91   44  169 1    
    92   45   46 2    
    93   45   47 1    
    94   47   48 1    
    95   47   49 1    
    96   47  170 1    
    97   48  171 1    
    98   48  172 1    
    99   48  173 1    
   100   49   50 am   BACKBONE|DICT|INTERRES
   101   49  174 1    
   102   50   51 2    
   103   50   52 1    
   104   52   53 1    
   105   52   54 1    
   106   52  175 1    
   107   53  176 1    
   108   53  177 1    
   109   53  178 1    
   110   54   55 am   BACKBONE|DICT|INTERRES
   111   54  179 1    
   112   55   56 2    
   113   55   57 1    
   114   57   58 1    
   115   57   59 1    
   116   57  180 1    
   117   58  181 1    
   118   58  182 1    
   119   58  183 1    
   120   59   60 am   BACKBONE|DICT|INTERRES
   121   59  184 1    
   122   60   61 2    
   123   60   62 1    
   124   62   63 1    
   125   62   64 1    
   126   62  185 1    
   127   63  186 1    
   128   63  187 1    
   129   63  188 1    
   130   64   65 am   BACKBONE|DICT|INTERRES
   131   64  189 1    
   132   65   66 2    
   133   67   68 2    
   134   67   69 am   BACKBONE|DICT|INTERRES
   135   69   70 1    
   136   69  190 1    
   137   70   71 1    
   138   70   72 1    
   139   70  191 1    
   140   71  192 1    
   141   71  193 1    
   142   71  194 1    
   143   72   73 2    
   144   72   74 am   BACKBONE|DICT|INTERRES
   145   74   75 1    
   146   74  195 1    
   147   75   76 1    
   148   75   77 1    
   149   75  196 1    
   150   76  197 1    
   151   76  198 1    
   152   76  199 1    
   153   77   78 2    
   154   77   79 am   BACKBONE|DICT|INTERRES
   155   79   80 1    
   156   79  200 1    
   157   80   81 1    
   158   80   82 1    
   159   80  201 1    
   160   81  202 1    
   161   81  203 1    
   162   81  204 1    
   163   82   83 2    
   164   82   84 am   BACKBONE|DICT|INTERRES
   165   84   85 1    
   166   84  205 1    
   167   85   86 1    
   168   85   87 1    
   169   85  206 1    
   170   86  207 1    
   171   86  208 1    
   172   86  209 1    
   173   87   88 2    
   174   87   89 am   BACKBONE|DICT|INTERRES
   175   89   90 1    
   176   89  210 1    
   177   90   91 1    
   178   90   92 1    
   179   90  211 1    
   180   91  212 1    
   181   91  213 1    
   182   91  214 1    
   183   92   93 2    
   184   92   94 am   BACKBONE|DICT|INTERRES
   185   94   95 1    
   186   94  215 1    
   187   95   96 1    
   188   95   97 1    
   189   95  216 1    
   190   96  217 1    
   191   96  218 1    
   192   96  219 1    
   193   97   98 2    
   194   97   99 am   BACKBONE|DICT|INTERRES
   195   99  100 1    
   196   99  220 1    
   197  100  101 1    
   198  100  102 1    
   199  100  221 1    
   200  101  222 1    
   201  101  223 1    
   202  101  224 1    
   203  102  103 2    
   204  102  104 am   BACKBONE|DICT|INTERRES
   205  104  105 1    
   206  104  225 1    
   207  105  106 1    
   208  105  107 1    
   209  105  226 1    
   210  106  227 1    
   211  106  228 1    
   212  106  229 1    
   213  107  108 2    
   214  107  109 am   BACKBONE|DICT|INTERRES
   215  109  110 1    
   216  109  230 1    
   217  110  111 1    
   218  110  112 1    
   219  110  231 1    
   220  111  232 1    
   221  111  233 1    
   222  111  234 1    
   223  112  113 2    
   224  112  114 am   BACKBONE|DICT|INTERRES
   225  114  115 1    
   226  114  235 1    
   227  115  116 1    
   228  115  117 1    
   229  115  236 1    
   230  116  237 1    
   231  116  238 1    
   232  116  239 1    
   233  117  118 2    
   234  117  119 am   BACKBONE|DICT|INTERRES
   235  119  120 1    
   236  119  240 1    
   237  120  121 1    
   238  120  124 1    
   239  120  241 1    
   240  121  122 am   BACKBONE|DICT|INTERRES
   241  121  123 2    
   242  122  242 1    
   243  122  243 1    
   244  124  125 1    
   245  124  244 1    
   246  124  245 1    
   247  125  126 1    
   248  126  246 1    
   249  126  247 1    
@<TRIPOS>SUBSTRUCTURE
     1 UNK         1 GROUP             0       ****    0 ROOT    
