@<TRIPOS>MOLECULE
3R540
247   249    1
SMALL
USER_CHARGES


@<TRIPOS>ATOM
      1 CA         -0.9983  -14.2355  -48.4771 C.3       0 UNK        -0.1800 
      2 C          -0.1120  -13.8482  -47.3028 C.2       0 UNK         0.5000 
      3 O          -0.1470  -12.7007  -46.8572 O.2       0 UNK        -0.5000 
      4 N           0.6687  -14.8054  -46.7824 N.am      1 UNK        -0.5000 
      5 CA          1.6195  -14.6124  -45.6766 C.3       1 UNK         0.1400 
      6 C6          2.4886  -15.8622  -45.3828 C.3       23 UNK        -0.0398 
      7 S7          3.2284  -16.6028  -46.8768 S.3       23 UNK        -0.2404 
      8 C8          2.1129  -18.0232  -47.0982 C.3       23 UNK        -0.0205 
      9 C9          2.0522  -18.4825  -48.5441 C.ar      23 UNK        -0.0193 
     10 C10         1.4042  -17.6939  -49.4975 C.ar      23 UNK        -0.1150 
     11 C11         1.2972  -18.1195  -50.8235 C.ar      23 UNK        -0.0193 
     12 C12         1.8379  -19.3554  -51.1917 C.ar      23 UNK        -0.1150 
     13 C13         2.4999  -20.1517  -50.2493 C.ar      23 UNK        -0.0193 
     14 C14         2.6115  -19.7028  -48.9283 C.ar      23 UNK        -0.1150 
     15 C15         3.1098  -21.4847  -50.6710 C.3       23 UNK        -0.0205 
     16 S16         2.6787  -22.8671  -49.5608 S.3       23 UNK        -0.2404 
     17 C17         0.8671  -22.9333  -49.7556 C.3       23 UNK        -0.0398 
     18 CA          0.1749  -23.6855  -48.5954 C.3       11 UNK         0.1400 
     19 N           0.4789  -23.1167  -47.2773 N.am      11 UNK        -0.5000 
     20 C           0.1955  -23.7270  -46.1189 C.2       10 UNK         0.5000 
     21 O          -0.3636  -24.8200  -46.0429 O.2       10 UNK        -0.5000 
     22 CA          0.5650  -22.9811  -44.8265 C.3       10 UNK         0.1400 
     23 CB          2.0478  -23.1899  -44.4852 C.3       10 UNK        -0.1800 
     24 N           0.2770  -21.5466  -44.8528 N.am      10 UNK        -0.5000 
     25 C          -0.9209  -20.9845  -45.0592 C.2       9 UNK         0.5000 
     26 O          -1.9234  -21.6182  -45.3930 O.2       9 UNK        -0.5000 
     27 CA         -1.0021  -19.4629  -44.8057 C.3       9 UNK         0.1400 
     28 CB         -2.4029  -18.8826  -45.0658 C.3       9 UNK        -0.1800 
     29 N          -0.5959  -19.1265  -43.4374 N.am      9 UNK        -0.5000 
     30 C           0.6694  -19.0433  -43.0090 C.2       8 UNK         0.5000 
     31 O           1.6444  -19.2120  -43.7465 O.2       8 UNK        -0.5000 
     32 CA          0.8759  -18.8004  -41.5014 C.3       8 UNK         0.1400 
     33 CB          0.8262  -20.1335  -40.7387 C.3       8 UNK        -0.1800 
     34 N           2.1636  -18.1561  -41.2414 N.am      8 UNK        -0.5000 
     35 C           2.4233  -16.8761  -41.5278 C.2       7 UNK         0.5000 
     36 O           1.5577  -16.0756  -41.8856 O.2       7 UNK        -0.5000 
     37 CA          3.8873  -16.4203  -41.4233 C.3       7 UNK         0.1400 
     38 CB          4.7938  -17.2578  -42.3535 C.3       7 UNK        -0.1800 
     39 N           3.9524  -15.0041  -41.7798 N.am      7 UNK        -0.5000 
     40 C           5.0094  -14.1948  -41.6475 C.2       6 UNK         0.5000 
     41 O           6.0801  -14.5412  -41.1470 O.2       6 UNK        -0.5000 
     42 CA          4.8510  -12.7558  -42.1658 C.3       6 UNK         0.1400 
     43 CB          5.2028  -12.6865  -43.6607 C.3       6 UNK        -0.1800 
     44 N           3.4932  -12.2498  -41.9856 N.am      6 UNK        -0.5000 
     45 C           3.0551  -11.5680  -40.9208 C.2       5 UNK         0.5000 
     46 O           3.7512  -11.3215  -39.9341 O.2       5 UNK        -0.5000 
     47 CA          1.5934  -11.0723  -40.9914 C.3       5 UNK         0.1400 
     48 CB          1.2876   -9.9274  -40.0039 C.3       5 UNK        -0.1800 
     49 N           1.1868  -10.7164  -42.3560 N.am      5 UNK        -0.5000 
     50 C           1.6890   -9.7564  -43.1484 C.2       4 UNK         0.5000 
     51 O           2.5340   -8.9360  -42.7888 O.2       4 UNK        -0.5000 
     52 CA          1.1814   -9.7227  -44.6064 C.3       4 UNK         0.1400 
     53 CB          2.2428  -10.3085  -45.5514 C.3       4 UNK        -0.1800 
     54 N          -0.0715  -10.4556  -44.8013 N.am      4 UNK        -0.5000 
     55 C          -1.2754  -10.0407  -44.3822 C.2       3 UNK         0.5000 
     56 O          -1.4810   -8.9430  -43.8637 O.2       3 UNK        -0.5000 
     57 CA         -2.4322  -11.0459  -44.5254 C.3       3 UNK         0.1400 
     58 CB         -3.0692  -10.9598  -45.9209 C.3       3 UNK        -0.1800 
     59 N          -1.9879  -12.4179  -44.2696 N.am      3 UNK        -0.5000 
     60 C          -1.7047  -12.9055  -43.0526 C.2       2 UNK         0.5000 
     61 O          -1.8504  -12.2671  -42.0106 O.2       2 UNK        -0.5000 
     62 CA         -1.1242  -14.3290  -42.9873 C.3       2 UNK         0.1400 
     63 CB         -2.2431  -15.3729  -42.8566 C.3       2 UNK        -0.1800 
     64 N          -0.2993  -14.6546  -44.1496 N.am      2 UNK        -0.5000 
     65 C           0.9246  -14.1575  -44.3797 C.2       1 UNK         0.5000 
     66 O           1.4983  -13.3640  -43.6351 O.2       1 UNK        -0.5000 
     67 C          -1.3447  -23.7618  -48.8350 C.2       11 UNK         0.5000 
     68 O          -1.8358  -24.7877  -49.3027 O.2       11 UNK        -0.5000 
     69 N          -2.0620  -22.6912  -48.4659 N.am      12 UNK        -0.5000 
     70 CA         -3.5161  -22.5923  -48.5832 C.3       12 UNK         0.1400 
     71 CB         -3.9453  -21.1374  -48.3418 C.3       12 UNK        -0.1800 
     72 C          -4.2563  -23.5476  -47.6301 C.2       12 UNK         0.5000 
     73 O          -5.3076  -24.0761  -47.9908 O.2       12 UNK        -0.5000 
     74 N          -3.6825  -23.7703  -46.4401 N.am      13 UNK        -0.5000 
     75 CA         -4.1466  -24.7669  -45.4777 C.3       13 UNK         0.1400 
     76 CB         -3.4556  -24.5288  -44.1264 C.3       13 UNK        -0.1800 
     77 C          -3.9129  -26.2089  -45.9697 C.2       13 UNK         0.5000 
     78 O          -4.7569  -27.0734  -45.7299 O.2       13 UNK        -0.5000 
     79 N          -2.7796  -26.4415  -46.6469 N.am      14 UNK        -0.5000 
     80 CA         -2.3892  -27.7394  -47.1937 C.3       14 UNK         0.1400 
     81 CB         -0.8921  -27.7300  -47.5399 C.3       14 UNK        -0.1800 
     82 C          -3.2252  -28.1712  -48.4117 C.2       14 UNK         0.5000 
     83 O          -3.5628  -29.3527  -48.5065 O.2       14 UNK        -0.5000 
     84 N          -3.5423  -27.2367  -49.3189 N.am      15 UNK        -0.5000 
     85 CA         -4.2888  -27.5198  -50.5422 C.3       15 UNK         0.1400 
     86 CB         -3.3136  -27.9192  -51.6638 C.3       15 UNK        -0.1800 
     87 C          -5.1334  -26.3141  -50.9697 C.2       15 UNK         0.5000 
     88 O          -4.6250  -25.1935  -51.0341 O.2       15 UNK        -0.5000 
     89 N          -6.3917  -26.5818  -51.3439 N.am      16 UNK        -0.5000 
     90 CA         -7.3261  -25.5950  -51.8924 C.3       16 UNK         0.1400 
     91 CB         -8.7323  -26.2081  -51.9587 C.3       16 UNK        -0.1800 
     92 C          -6.9014  -25.0672  -53.2765 C.2       16 UNK         0.5000 
     93 O          -7.1906  -23.9168  -53.6020 O.2       16 UNK        -0.5000 
     94 N          -6.1859  -25.8951  -54.0515 N.am      17 UNK        -0.5000 
     95 CA         -5.5818  -25.5125  -55.3290 C.3       17 UNK         0.1400 
     96 CB         -5.0356  -26.7647  -56.0308 C.3       17 UNK        -0.1800 
     97 C          -4.4732  -24.4584  -55.1549 C.2       17 UNK         0.5000 
     98 O          -4.3892  -23.5232  -55.9504 O.2       17 UNK        -0.5000 
     99 N          -3.6727  -24.6017  -54.0894 N.am      18 UNK        -0.5000 
    100 CA        -2.6466  -23.6352  -53.7048 C.3       18 UNK         0.1400 
    101 CB        -1.6578  -24.2857  -52.7322 C.3       18 UNK        -0.1800 
    102 C         -3.2561  -22.3542  -53.1102 C.2       18 UNK         0.5000 
    103 O         -2.7335  -21.2703  -53.3657 O.2       18 UNK        -0.5000 
    104 N         -4.3765  -22.4846  -52.3822 N.am      19 UNK        -0.5000 
    105 CA        -5.1798  -21.3574  -51.9001 C.3       19 UNK         0.1400 
    106 CB        -6.3196  -21.8571  -50.9963 C.3       19 UNK        -0.1800 
    107 C         -5.7432  -20.5164  -53.0595 C.2       19 UNK         0.5000 
    108 O         -5.6320  -19.2912  -53.0300 O.2       19 UNK        -0.5000 
    109 N         -6.2932  -21.1941  -54.0770 N.am      20 UNK        -0.5000 
    110 CA        -6.8047  -20.5879  -55.3063 C.3       20 UNK         0.1400 
    111 CB        -7.5500  -21.6510  -56.1274 C.3       20 UNK        -0.1800 
    112 C         -5.7068  -19.9141  -56.1512 C.2       20 UNK         0.5000 
    113 O         -5.9589  -18.8580  -56.7325 O.2       20 UNK        -0.5000 
    114 N         -4.5117  -20.5211  -56.1931 N.am      21 UNK        -0.5000 
    115 CA        -3.3297  -19.9713  -56.8582 C.3       21 UNK         0.1400 
    116 CB        -2.2509  -21.0580  -56.9820 C.3       21 UNK        -0.1800 
    117 C         -2.7746  -18.7266  -56.1403 C.2       21 UNK         0.5000 
    118 O         -2.4335  -17.7478  -56.8060 O.2       21 UNK        -0.5000 
    119 N         -2.6997  -18.7840  -54.8038 N.am      22 UNK        -0.5000 
    120 CA        -2.2988  -17.6651  -53.9401 C.3       22 UNK         0.1400 
    121 C         -3.3349  -16.5024  -53.9330 C.2       22 UNK         0.5000 
    122 N         -4.6245  -16.7801  -53.7914 N.am      22 UNK        -0.7600 
    123 O         -2.9684  -15.3393  -54.0796 O.2       22 UNK        -0.5000 
    124 C124       -1.9460  -18.1632  -52.5131 C.3       23 UNK        -0.0398 
    125 S125       -1.1148  -16.8975  -51.4933 S.3       23 UNK        -0.2404 
    126 C126        0.6428  -17.2116  -51.8556 C.3       23 UNK        -0.0205 
    127 H127       -2.0242  -13.9160  -48.2945 H         1 UNK         0.0600 
    128 H128       -1.0046  -15.3129  -48.6430 H         1 UNK         0.0600 
    129 H129       -0.6464  -13.7513  -49.3879 H         1 UNK         0.0600 
    130 H130        0.6769  -15.7198  -47.2067 H         1 UNK         0.3000 
    131 H131        2.2912  -13.8065  -45.9798 H         1 UNK         0.0600 
    132 H132        3.3064  -15.5870  -44.7154 H         1 UNK         0.0800 
    133 H133        1.9178  -16.6249  -44.8490 H         1 UNK         0.0800 
    134 H134        2.4295  -18.8337  -46.4395 H         1 UNK         0.0800 
    135 H135        1.1046  -17.7506  -46.7893 H         1 UNK         0.0800 
    136 H136        0.9861  -16.7399  -49.2116 H         1 UNK         0.1150 
    137 H137        1.7609  -19.6882  -52.2174 H         1 UNK         0.1150 
    138 H138        3.1245  -20.3113  -48.1967 H         1 UNK         0.1150 
    139 H139        2.8059  -21.7461  -51.6859 H         1 UNK         0.0800 
    140 H140        4.1951  -21.3783  -50.6923 H         1 UNK         0.0800 
    141 H141        0.6593  -23.4269  -50.7054 H         1 UNK         0.0800 
    142 H142        0.4719  -21.9198  -49.8398 H         1 UNK         0.0800 
    143 H143        0.5505  -24.7113  -48.6007 H         1 UNK         0.0600 
    144 H144        0.9531  -22.2262  -47.2598 H         1 UNK         0.3000 
    145 H145       -0.0316  -23.4142  -44.0211 H         1 UNK         0.0600 
    146 H146        2.2944  -22.7544  -43.5166 H         1 UNK         0.0600 
    147 H147        2.2921  -24.2519  -44.4351 H         1 UNK         0.0600 
    148 H148        2.7005  -22.7368  -45.2324 H         1 UNK         0.0600 
    149 H149        1.0296  -20.9291  -44.5656 H         1 UNK         0.3000 
    150 H150       -0.3170  -18.9860  -45.5063 H         1 UNK         0.0600 
    151 H151       -3.1558  -19.3385  -44.4217 H         1 UNK         0.0600 
    152 H152       -2.7073  -19.0475  -46.0993 H         1 UNK         0.0600 
    153 H153       -2.4221  -17.8064  -44.8950 H         1 UNK         0.0600 
    154 H154       -1.3444  -19.0310  -42.7663 H         1 UNK         0.3000 
    155 H155        0.0755  -18.1538  -41.1349 H         1 UNK         0.0600 
    156 H156        1.6055  -20.8193  -41.0743 H         1 UNK         0.0600 
    157 H157       -0.1328  -20.6329  -40.8822 H         1 UNK         0.0600 
    158 H158        0.9532  -19.9797  -39.6669 H         1 UNK         0.0600 
    159 H159        2.9258  -18.7662  -40.9860 H         1 UNK         0.3000 
    160 H160        4.2091  -16.5381  -40.3870 H         1 UNK         0.0600 
    161 H161        4.4714  -17.1963  -43.3930 H         1 UNK         0.0600 
    162 H162        4.7845  -18.3115  -42.0738 H         1 UNK         0.0600 
    163 H163        5.8330  -16.9337  -42.3084 H         1 UNK         0.0600 
    164 H164        3.0777  -14.6350  -42.1366 H         1 UNK         0.3000 
    165 H165        5.5541  -12.1213  -41.6220 H         1 UNK         0.0600 
    166 H166        6.2168  -13.0454  -43.8412 H         1 UNK         0.0600 
    167 H167        4.5261  -13.2931  -44.2638 H         1 UNK         0.0600 
    168 H168        5.1497  -11.6618  -44.0293 H         1 UNK         0.0600 
    169 H169        2.8212  -12.4674  -42.7179 H         1 UNK         0.3000 
    170 H170        0.9740  -11.9244  -40.7077 H         1 UNK         0.0600 
    171 H171        1.4490  -10.2471  -38.9739 H         1 UNK         0.0600 
    172 H172        1.9226   -9.0586  -40.1787 H         1 UNK         0.0600 
    173 H173        0.2490   -9.6065  -40.0841 H         1 UNK         0.0600 
    174 H174        0.5324  -11.3563  -42.7840 H         1 UNK         0.3000 
    175 H175        1.0182   -8.6775  -44.8772 H         1 UNK         0.0600 
    176 H176        1.9169  -10.2601  -46.5906 H         1 UNK         0.0600 
    177 H177        3.1804   -9.7561  -45.4778 H         1 UNK         0.0600 
    178 H178        2.4586  -11.3511  -45.3168 H         1 UNK         0.0600 
    179 H179       -0.0087  -11.3457  -45.2839 H         1 UNK         0.3000 
    180 H180       -3.1959  -10.7854  -43.7894 H         1 UNK         0.0600 
    181 H181       -2.3556  -11.1974  -46.7100 H         1 UNK         0.0600 
    182 H182       -3.4462   -9.9547  -46.1138 H         1 UNK         0.0600 
    183 H183       -3.9115  -11.6457  -46.0127 H         1 UNK         0.0600 
    184 H184       -1.7924  -12.9879  -45.0798 H         1 UNK         0.3000 
    185 H185       -0.4997  -14.3867  -42.0935 H         1 UNK         0.0600 
    186 H186       -2.8689  -15.1672  -41.9873 H         1 UNK         0.0600 
    187 H187       -2.8911  -15.3835  -43.7338 H         1 UNK         0.0600 
    188 H188       -1.8309  -16.3739  -42.7289 H         1 UNK         0.0600 
    189 H189       -0.6927  -15.2953  -44.8219 H         1 UNK         0.3000 
    190 H190       -1.5905  -21.9175  -48.0218 H         1 UNK         0.3000 
    191 H191       -3.7805  -22.8709  -49.6042 H         1 UNK         0.0600 
    192 H192       -3.4565  -20.4575  -49.0396 H         1 UNK         0.0600 
    193 H193       -5.0216  -21.0204  -48.4696 H         1 UNK         0.0600 
    194 H194       -3.7039  -20.8133  -47.3299 H         1 UNK         0.0600 
    195 H195       -2.8619  -23.2301  -46.1856 H         1 UNK         0.3000 
    196 H196       -5.2211  -24.6309  -45.3377 H         1 UNK         0.0600 
    197 H197       -3.8138  -25.2341  -43.3756 H         1 UNK         0.0600 
    198 H198       -3.6560  -23.5243  -43.7530 H         1 UNK         0.0600 
    199 H199       -2.3744  -24.6476  -44.1990 H         1 UNK         0.0600 
    200 H200       -2.1095  -25.6879  -46.7511 H         1 UNK         0.3000 
    201 H201       -2.5405  -28.4873  -46.4124 H         1 UNK         0.0600 
    202 H202       -0.5754  -28.6983  -47.9293 H         1 UNK         0.0600 
    203 H203       -0.6559  -26.9808  -48.2953 H         1 UNK         0.0600 
    204 H204       -0.2851  -27.5210  -46.6590 H         1 UNK         0.0600 
    205 H205       -3.2132  -26.2808  -49.2067 H         1 UNK         0.3000 
    206 H206       -4.9707  -28.3544  -50.3645 H         1 UNK         0.0600 
    207 H207       -2.7737  -28.8316  -51.4102 H         1 UNK         0.0600 
    208 H208       -3.8418  -28.1054  -52.5996 H         1 UNK         0.0600 
    209 H209       -2.5760  -27.1377  -51.8495 H         1 UNK         0.0600 
    210 H210       -6.7346  -27.5290  -51.2706 H         1 UNK         0.3000 
    211 H211       -7.3564  -24.7450  -51.2081 H         1 UNK         0.0600 
    212 H212       -8.7622  -27.0801  -52.6132 H         1 UNK         0.0600 
    213 H213       -9.4549  -25.4856  -52.3408 H         1 UNK         0.0600 
    214 H214       -9.0751  -26.5165  -50.9708 H         1 UNK         0.0600 
    215 H215       -6.0073  -26.8315  -53.7212 H         1 UNK         0.3000 
    216 H216       -6.3609  -25.0776  -55.9589 H         1 UNK         0.0600 
    217 H217       -4.5919  -26.5089  -56.9940 H         1 UNK         0.0600 
    218 H218       -5.8293  -27.4871  -56.2217 H         1 UNK         0.0600 
    219 H219       -4.2666  -27.2593  -55.4360 H         1 UNK         0.0600 
    220 H220       -3.8350  -25.3681  -53.4538 H         1 UNK         0.3000 
    221 H221       -2.0900  -23.3519  -54.6002 H         1 UNK         0.0600 
    222 H222       -2.1569  -24.6293  -51.8285 H         1 UNK         0.0600 
    223 H223       -1.1602  -25.1422  -53.1868 H         1 UNK         0.0600 
    224 H224       -0.8850  -23.5763  -52.4376 H         1 UNK         0.0600 
    225 H225       -4.7037  -23.4175  -52.1589 H         1 UNK         0.3000 
    226 H226       -4.5235  -20.7195  -51.3053 H         1 UNK         0.0600 
    227 H227       -6.7596  -21.0271  -50.4427 H         1 UNK         0.0600 
    228 H228       -7.1239  -22.3192  -51.5667 H         1 UNK         0.0600 
    229 H229       -5.9750  -22.5891  -50.2680 H         1 UNK         0.0600 
    230 H230       -6.3992  -22.2010  -53.9897 H         1 UNK         0.3000 
    231 H231       -7.5219  -19.8155  -55.0212 H         1 UNK         0.0600 
    232 H232       -6.8907  -22.4676  -56.4224 H         1 UNK         0.0600 
    233 H233       -7.9677  -21.2199  -57.0380 H         1 UNK         0.0600 
    234 H234       -8.3770  -22.0784  -55.5601 H         1 UNK         0.0600 
    235 H235       -4.4095  -21.4271  -55.7510 H         1 UNK         0.3000 
    236 H236       -3.6208  -19.6724  -57.8674 H         1 UNK         0.0600 
    237 H237       -2.6243  -21.9256  -57.5263 H         1 UNK         0.0600 
    238 H238       -1.3818  -20.6830  -57.5237 H         1 UNK         0.0600 
    239 H239       -1.9057  -21.3972  -56.0057 H         1 UNK         0.0600 
    240 H240       -2.9507  -19.6488  -54.3330 H         1 UNK         0.3000 
    241 H241       -1.3802  -17.2610  -54.3704 H         1 UNK         0.0600 
    242 H242       -4.9448  -17.7323  -53.6210 H         1 UNK         0.3800 
    243 H243       -5.2945  -16.0285  -53.8007 H         1 UNK         0.3800 
    244 H244       -1.2968  -19.0384  -52.5687 H         1 UNK         0.0800 
    245 H245       -2.8463  -18.4948  -51.9931 H         1 UNK         0.0800 
    246 H246        1.1696  -16.2563  -51.8563 H         1 UNK         0.0800 
    247 H247        0.7515  -17.6155  -52.8633 H         1 UNK         0.0800 
@<TRIPOS>BOND
     1    1    2 1    
     2    1  127 1    
     3    1  128 1    
     4    1  129 1    
     5    2    3 2    
     6    2    4 am   BACKBONE|DICT|INTERRES
     7    4    5 1    
     8    4  130 1    
     9    5    6 1    
    10    5   65 1    
    11    5  131 1    
    12    6    7 1    
    13    6  132 1    
    14    6  133 1    
    15    7    8 1    
    16    8    9 1    
    17    8  134 1    
    18    8  135 1    
    19    9   10 ar   
    20    9   14 ar   
    21   10   11 ar   
    22   10  136 1    
    23   11   12 ar   
    24   11  126 1    
    25   12   13 ar   
    26   12  137 1    
    27   13   14 ar   
    28   13   15 1    
    29   14  138 1    
    30   15   16 1    
    31   15  139 1    
    32   15  140 1    
    33   16   17 1    
    34   17   18 1    
    35   17  141 1    
    36   17  142 1    
    37   18   19 1    
    38   18   67 1    
    39   18  143 1    
    40   19   20 am   BACKBONE|DICT|INTERRES
    41   19  144 1    
    42   20   21 2    
    43   20   22 1    
    44   22   23 1    
    45   22   24 1    
    46   22  145 1    
    47   23  146 1    
    48   23  147 1    
    49   23  148 1    
    50   24   25 am   BACKBONE|DICT|INTERRES
    51   24  149 1    
    52   25   26 2    
    53   25   27 1    
    54   27   28 1    
    55   27   29 1    
    56   27  150 1    
    57   28  151 1    
    58   28  152 1    
    59   28  153 1    
    60   29   30 am   BACKBONE|DICT|INTERRES
    61   29  154 1    
    62   30   31 2    
    63   30   32 1    
    64   32   33 1    
    65   32   34 1    
    66   32  155 1    
    67   33  156 1    
    68   33  157 1    
    69   33  158 1    
    70   34   35 am   BACKBONE|DICT|INTERRES
    71   34  159 1    
    72   35   36 2    
    73   35   37 1    
    74   37   38 1    
    75   37   39 1    
    76   37  160 1    
    77   38  161 1    
    78   38  162 1    
    79   38  163 1    
    80   39   40 am   BACKBONE|DICT|INTERRES
    81   39  164 1    
    82   40   41 2    
    83   40   42 1    
    84   42   43 1    
    85   42   44 1    
    86   42  165 1    
    87   43  166 1    
    88   43  167 1    
    89   43  168 1    
    90   44   45 am   BACKBONE|DICT|INTERRES
    91   44  169 1    
    92   45   46 2    
    93   45   47 1    
    94   47   48 1    
    95   47   49 1    
    96   47  170 1    
    97   48  171 1    
    98   48  172 1    
    99   48  173 1    
   100   49   50 am   BACKBONE|DICT|INTERRES
   101   49  174 1    
   102   50   51 2    
   103   50   52 1    
   104   52   53 1    
   105   52   54 1    
   106   52  175 1    
   107   53  176 1    
   108   53  177 1    
   109   53  178 1    
   110   54   55 am   BACKBONE|DICT|INTERRES
   111   54  179 1    
   112   55   56 2    
   113   55   57 1    
   114   57   58 1    
   115   57   59 1    
   116   57  180 1    
   117   58  181 1    
   118   58  182 1    
   119   58  183 1    
   120   59   60 am   BACKBONE|DICT|INTERRES
   121   59  184 1    
   122   60   61 2    
   123   60   62 1    
   124   62   63 1    
   125   62   64 1    
   126   62  185 1    
   127   63  186 1    
   128   63  187 1    
   129   63  188 1    
   130   64   65 am   BACKBONE|DICT|INTERRES
   131   64  189 1    
   132   65   66 2    
   133   67   68 2    
   134   67   69 am   BACKBONE|DICT|INTERRES
   135   69   70 1    
   136   69  190 1    
   137   70   71 1    
   138   70   72 1    
   139   70  191 1    
   140   71  192 1    
   141   71  193 1    
   142   71  194 1    
   143   72   73 2    
   144   72   74 am   BACKBONE|DICT|INTERRES
   145   74   75 1    
   146   74  195 1    
   147   75   76 1    
   148   75   77 1    
   149   75  196 1    
   150   76  197 1    
   151   76  198 1    
   152   76  199 1    
   153   77   78 2    
   154   77   79 am   BACKBONE|DICT|INTERRES
   155   79   80 1    
   156   79  200 1    
   157   80   81 1    
   158   80   82 1    
   159   80  201 1    
   160   81  202 1    
   161   81  203 1    
   162   81  204 1    
   163   82   83 2    
   164   82   84 am   BACKBONE|DICT|INTERRES
   165   84   85 1    
   166   84  205 1    
   167   85   86 1    
   168   85   87 1    
   169   85  206 1    
   170   86  207 1    
   171   86  208 1    
   172   86  209 1    
   173   87   88 2    
   174   87   89 am   BACKBONE|DICT|INTERRES
   175   89   90 1    
   176   89  210 1    
   177   90   91 1    
   178   90   92 1    
   179   90  211 1    
   180   91  212 1    
   181   91  213 1    
   182   91  214 1    
   183   92   93 2    
   184   92   94 am   BACKBONE|DICT|INTERRES
   185   94   95 1    
   186   94  215 1    
   187   95   96 1    
   188   95   97 1    
   189   95  216 1    
   190   96  217 1    
   191   96  218 1    
   192   96  219 1    
   193   97   98 2    
   194   97   99 am   BACKBONE|DICT|INTERRES
   195   99  100 1    
   196   99  220 1    
   197  100  101 1    
   198  100  102 1    
   199  100  221 1    
   200  101  222 1    
   201  101  223 1    
   202  101  224 1    
   203  102  103 2    
   204  102  104 am   BACKBONE|DICT|INTERRES
   205  104  105 1    
   206  104  225 1    
   207  105  106 1    
   208  105  107 1    
   209  105  226 1    
   210  106  227 1    
   211  106  228 1    
   212  106  229 1    
   213  107  108 2    
   214  107  109 am   BACKBONE|DICT|INTERRES
   215  109  110 1    
   216  109  230 1    
   217  110  111 1    
   218  110  112 1    
   219  110  231 1    
   220  111  232 1    
   221  111  233 1    
   222  111  234 1    
   223  112  113 2    
   224  112  114 am   BACKBONE|DICT|INTERRES
   225  114  115 1    
   226  114  235 1    
   227  115  116 1    
   228  115  117 1    
   229  115  236 1    
   230  116  237 1    
   231  116  238 1    
   232  116  239 1    
   233  117  118 2    
   234  117  119 am   BACKBONE|DICT|INTERRES
   235  119  120 1    
   236  119  240 1    
   237  120  121 1    
   238  120  124 1    
   239  120  241 1    
   240  121  122 am   BACKBONE|DICT|INTERRES
   241  121  123 2    
   242  122  242 1    
   243  122  243 1    
   244  124  125 1    
   245  124  244 1    
   246  124  245 1    
   247  125  126 1    
   248  126  246 1    
   249  126  247 1    
@<TRIPOS>SUBSTRUCTURE
     1 UNK         1 GROUP             0       ****    0 ROOT    
