@<TRIPOS>MOLECULE
3R540
247   249    1
SMALL
USER_CHARGES


@<TRIPOS>ATOM
      1 CA         -1.2097  -16.5016  -52.1792 C.3       0 UNK        -0.1800 
      2 C          -1.2033  -15.2382  -51.3295 C.2       0 UNK         0.5000 
      3 O          -1.7563  -14.2208  -51.7465 O.2       0 UNK        -0.5000 
      4 N          -0.5835  -15.2957  -50.1451 N.am      1 UNK        -0.5000 
      5 CA         -0.4447  -14.1670  -49.2174 C.3       1 UNK         0.1400 
      6 C6          0.7846  -13.2766  -49.5419 C.3       23 UNK        -0.0398 
      7 S7          2.4214  -14.0298  -49.2231 S.3       23 UNK        -0.2404 
      8 C8          2.7632  -14.9390  -50.7692 C.3       23 UNK        -0.0205 
      9 C9          2.4864  -16.4429  -50.7136 C.ar      23 UNK        -0.0193 
     10 C10         2.2311  -17.1221  -51.9079 C.ar      23 UNK        -0.1150 
     11 C11         2.0696  -18.5093  -51.9207 C.ar      23 UNK        -0.0193 
     12 C12         2.1479  -19.2228  -50.7229 C.ar      23 UNK        -0.1150 
     13 C13         2.3949  -18.5650  -49.5109 C.ar      23 UNK        -0.0193 
     14 C14         2.5619  -17.1762  -49.5211 C.ar      23 UNK        -0.1150 
     15 C15         2.5534  -19.3000  -48.1765 C.3       23 UNK        -0.0205 
     16 S16         2.1507  -21.0834  -48.1763 S.3       23 UNK        -0.2404 
     17 C17         0.3331  -21.0313  -48.3088 C.3       23 UNK        -0.0398 
     18 CA         -0.3659  -22.1407  -47.4909 C.3       11 UNK         0.1400 
     19 N           0.0129  -22.1325  -46.0755 N.am      11 UNK        -0.5000 
     20 C          -0.1302  -23.1836  -45.2556 C.2       10 UNK         0.5000 
     21 O          -0.5976  -24.2621  -45.6183 O.2       10 UNK        -0.5000 
     22 CA          0.2589  -22.9900  -43.7755 C.3       10 UNK         0.1400 
     23 CB          1.7327  -23.3603  -43.5575 C.3       10 UNK        -0.1800 
     24 N           0.0314  -21.6299  -43.2864 N.am      10 UNK        -0.5000 
     25 C          -1.1504  -20.9960  -43.2927 C.2       9 UNK         0.5000 
     26 O          -2.2039  -21.5363  -43.6309 O.2       9 UNK        -0.5000 
     27 CA         -1.1496  -19.4957  -42.9304 C.3       9 UNK         0.1400 
     28 CB         -1.5554  -19.3063  -41.4624 C.3       9 UNK        -0.1800 
     29 N           0.1287  -18.8129  -43.1651 N.am      9 UNK        -0.5000 
     30 C           0.8293  -18.7962  -44.3106 C.2       8 UNK         0.5000 
     31 O           0.4376  -19.3168  -45.3540 O.2       8 UNK        -0.5000 
     32 CA          2.2236  -18.1423  -44.2729 C.3       8 UNK         0.1400 
     33 CB          2.2038  -16.7588  -44.9403 C.3       8 UNK        -0.1800 
     34 N           2.7482  -18.0161  -42.9118 N.am      8 UNK        -0.5000 
     35 C           3.1811  -19.0370  -42.1582 C.2       7 UNK         0.5000 
     36 O           3.1999  -20.2049  -42.5515 O.2       7 UNK        -0.5000 
     37 CA          3.6240  -18.6911  -40.7193 C.3       7 UNK         0.1400 
     38 CB          4.5057  -19.7847  -40.0810 C.3       7 UNK        -0.1800 
     39 N           4.2605  -17.3731  -40.6091 N.am      7 UNK        -0.5000 
     40 C           5.3871  -16.9564  -41.2051 C.2       6 UNK         0.5000 
     41 O           6.0799  -17.6648  -41.9378 O.2       6 UNK        -0.5000 
     42 CA          5.7741  -15.4822  -40.9582 C.3       6 UNK         0.1400 
     43 CB          7.0892  -15.0858  -41.6537 C.3       6 UNK        -0.1800 
     44 N           4.7165  -14.5739  -41.4060 N.am      6 UNK        -0.5000 
     45 C           3.5978  -14.2846  -40.7297 C.2       5 UNK         0.5000 
     46 O           3.3620  -14.7267  -39.6021 O.2       5 UNK        -0.5000 
     47 CA          2.5682  -13.3638  -41.4234 C.3       5 UNK         0.1400 
     48 CB          2.7550  -13.2599  -42.9539 C.3       5 UNK        -0.1800 
     49 N           1.1820  -13.7303  -41.1174 N.am      5 UNK        -0.5000 
     50 C           0.5892  -14.9170  -41.3116 C.2       4 UNK         0.5000 
     51 O           1.1591  -15.9127  -41.7609 O.2       4 UNK        -0.5000 
     52 CA         -0.9094  -15.0092  -40.9704 C.3       4 UNK         0.1400 
     53 CB         -1.3167  -14.1900  -39.7260 C.3       4 UNK        -0.1800 
     54 N          -1.7419  -14.6861  -42.1328 N.am      4 UNK        -0.5000 
     55 C          -1.8379  -13.5158  -42.7805 C.2       3 UNK         0.5000 
     56 O          -1.2688  -12.4817  -42.4266 O.2       3 UNK        -0.5000 
     57 CA         -2.7006  -13.5246  -44.0594 C.3       3 UNK         0.1400 
     58 CB         -2.8848  -12.1212  -44.6645 C.3       3 UNK        -0.1800 
     59 N          -2.1148  -14.3943  -45.0781 N.am      3 UNK        -0.5000 
     60 C          -2.2163  -15.7258  -45.1318 C.2       2 UNK         0.5000 
     61 O          -2.8573  -16.3758  -44.3038 O.2       2 UNK        -0.5000 
     62 CA         -1.4630  -16.4534  -46.2707 C.3       2 UNK         0.1400 
     63 CB         -2.0857  -17.8140  -46.6107 C.3       2 UNK        -0.1800 
     64 N          -1.3149  -15.7093  -47.5254 N.am      2 UNK        -0.5000 
     65 C          -0.5312  -14.6474  -47.7531 C.2       1 UNK         0.5000 
     66 O           0.0858  -14.0632  -46.8621 O.2       1 UNK        -0.5000 
     67 C          -1.8958  -22.0631  -47.6759 C.2       11 UNK         0.5000 
     68 O          -2.3985  -22.5301  -48.6986 O.2       11 UNK        -0.5000 
     69 N          -2.6152  -21.4832  -46.7017 N.am      12 UNK        -0.5000 
     70 CA         -4.0787  -21.4903  -46.6595 C.3       12 UNK         0.1400 
     71 CB         -4.6124  -20.3246  -45.8144 C.3       12 UNK        -0.1800 
     72 C          -4.6130  -22.8335  -46.1414 C.2       12 UNK         0.5000 
     73 O          -5.6043  -23.3281  -46.6747 O.2       12 UNK        -0.5000 
     74 N          -3.9209  -23.4329  -45.1608 N.am      13 UNK        -0.5000 
     75 CA         -4.1993  -24.7813  -44.6541 C.3       13 UNK         0.1400 
     76 CB         -3.3276  -25.0585  -43.4205 C.3       13 UNK        -0.1800 
     77 C          -4.0000  -25.8709  -45.7284 C.2       13 UNK         0.5000 
     78 O          -4.7781  -26.8229  -45.7858 O.2       13 UNK        -0.5000 
     79 N          -2.9969  -25.6755  -46.5957 N.am      14 UNK        -0.5000 
     80 CA         -2.7328  -26.4797  -47.7917 C.3       14 UNK         0.1400 
     81 CB         -1.2736  -26.2511  -48.2184 C.3       14 UNK        -0.1800 
     82 C          -3.6868  -26.1772  -48.9696 C.2       14 UNK         0.5000 
     83 O          -3.5839  -26.8370  -50.0032 O.2       14 UNK        -0.5000 
     84 N          -4.5623  -25.1720  -48.8162 N.am      15 UNK        -0.5000 
     85 CA         -5.5614  -24.6487  -49.7579 C.3       15 UNK         0.1400 
     86 CB         -6.5252  -25.7504  -50.2388 C.3       15 UNK        -0.1800 
     87 C          -4.9915  -23.8421  -50.9419 C.2       15 UNK         0.5000 
     88 O          -5.7597  -23.1491  -51.6101 O.2       15 UNK        -0.5000 
     89 N          -3.6737  -23.9057  -51.1679 N.am      16 UNK        -0.5000 
     90 CA         -2.9535  -23.2711  -52.2714 C.3       16 UNK         0.1400 
     91 CB         -1.4679  -23.6509  -52.1833 C.3       16 UNK        -0.1800 
     92 C          -3.1188  -21.7439  -52.3187 C.2       16 UNK         0.5000 
     93 O          -3.4180  -21.1995  -53.3818 O.2       16 UNK        -0.5000 
     94 N          -2.9567  -21.0871  -51.1634 N.am      17 UNK        -0.5000 
     95 CA         -3.1207  -19.6388  -51.0322 C.3       17 UNK         0.1400 
     96 CB         -2.2228  -19.1144  -49.9076 C.3       17 UNK        -0.1800 
     97 C          -4.5809  -19.2289  -50.7817 C.2       17 UNK         0.5000 
     98 O          -4.9338  -18.0865  -51.0697 O.2       17 UNK        -0.5000 
     99 N          -5.4069  -20.1556  -50.2727 N.am      18 UNK        -0.5000 
    100 CA        -6.8378  -19.9396  -50.0386 C.3       18 UNK         0.1400 
    101 CB        -7.3945  -21.0392  -49.1220 C.3       18 UNK        -0.1800 
    102 C         -7.6225  -19.8761  -51.3604 C.2       18 UNK         0.5000 
    103 O         -8.4620  -18.9922  -51.5324 O.2       18 UNK        -0.5000 
    104 N         -7.2949  -20.7874  -52.2869 N.am      19 UNK        -0.5000 
    105 CA        -7.7842  -20.7819  -53.6664 C.3       19 UNK         0.1400 
    106 CB        -7.6022  -22.1904  -54.2543 C.3       19 UNK        -0.1800 
    107 C         -7.0604  -19.7438  -54.5482 C.2       19 UNK         0.5000 
    108 O         -7.5551  -19.4229  -55.6290 O.2       19 UNK        -0.5000 
    109 N         -5.8906  -19.2745  -54.0850 N.am      20 UNK        -0.5000 
    110 CA        -4.9235  -18.4098  -54.7733 C.3       20 UNK         0.1400 
    111 CB        -5.5196  -17.0158  -55.0531 C.3       20 UNK        -0.1800 
    112 C         -4.3200  -19.0752  -56.0293 C.2       20 UNK         0.5000 
    113 O         -3.8854  -18.3870  -56.9544 O.2       20 UNK        -0.5000 
    114 N         -4.2852  -20.4141  -56.0240 N.am      21 UNK        -0.5000 
    115 CA        -3.7888  -21.2688  -57.0983 C.3       21 UNK         0.1400 
    116 CB        -4.1913  -22.7209  -56.7981 C.3       21 UNK        -0.1800 
    117 C         -2.2682  -21.1569  -57.2947 C.2       21 UNK         0.5000 
    118 O         -1.7909  -21.3386  -58.4155 O.2       21 UNK        -0.5000 
    119 N         -1.5420  -20.8436  -56.2133 N.am      22 UNK        -0.5000 
    120 CA        -0.0968  -20.5804  -56.2381 C.3       22 UNK         0.1400 
    121 C          0.2978  -19.1432  -56.6968 C.2       22 UNK         0.5000 
    122 N         -0.6409  -18.2463  -56.9805 N.am      22 UNK        -0.7600 
    123 O          1.4818  -18.8421  -56.8198 O.2       22 UNK        -0.5000 
    124 C124        0.5880  -21.0214  -54.9198 C.3       23 UNK        -0.0398 
    125 S125        0.2507  -19.9734  -53.4565 S.3       23 UNK        -0.2404 
    126 C126        1.9093  -19.2534  -53.2361 C.3       23 UNK        -0.0205 
    127 H127       -0.6931  -16.3236  -53.1224 H         1 UNK         0.0600 
    128 H128       -2.2344  -16.7981  -52.4021 H         1 UNK         0.0600 
    129 H129       -0.7144  -17.3320  -51.6770 H         1 UNK         0.0600 
    130 H130       -0.1061  -16.1425  -49.8675 H         1 UNK         0.3000 
    131 H131       -1.3257  -13.5317  -49.3310 H         1 UNK         0.0600 
    132 H132        0.7387  -12.9424  -50.5789 H         1 UNK         0.0800 
    133 H133        0.7314  -12.3625  -48.9486 H         1 UNK         0.0800 
    134 H134        3.8185  -14.8058  -51.0098 H         1 UNK         0.0800 
    135 H135        2.2060  -14.4840  -51.5893 H         1 UNK         0.0800 
    136 H136        2.1969  -16.5729  -52.8386 H         1 UNK         0.1150 
    137 H137        2.0462  -20.2970  -50.7588 H         1 UNK         0.1150 
    138 H138        2.7879  -16.6740  -48.5915 H         1 UNK         0.1150 
    139 H139        1.9452  -18.8020  -47.4225 H         1 UNK         0.0800 
    140 H140        3.5891  -19.1925  -47.8521 H         1 UNK         0.0800 
    141 H141        0.0800  -21.1274  -49.3659 H         1 UNK         0.0800 
    142 H142       -0.0169  -20.0492  -47.9917 H         1 UNK         0.0800 
    143 H143       -0.0481  -23.0963  -47.9130 H         1 UNK         0.0600 
    144 H144        0.3692  -21.2526  -45.7141 H         1 UNK         0.3000 
    145 H145       -0.3574  -23.6642  -43.1783 H         1 UNK         0.0600 
    146 H146        1.9335  -24.3797  -43.8895 H         1 UNK         0.0600 
    147 H147        2.0028  -23.3024  -42.5029 H         1 UNK         0.0600 
    148 H148        2.3991  -22.6961  -44.1099 H         1 UNK         0.0600 
    149 H149        0.8529  -21.1103  -43.0090 H         1 UNK         0.3000 
    150 H150       -1.9027  -19.0119  -43.5526 H         1 UNK         0.0600 
    151 H151       -0.8028  -19.7054  -40.7812 H         1 UNK         0.0600 
    152 H152       -2.4967  -19.8142  -41.2473 H         1 UNK         0.0600 
    153 H153       -1.7002  -18.2530  -41.2276 H         1 UNK         0.0600 
    154 H154        0.5274  -18.3230  -42.3768 H         1 UNK         0.3000 
    155 H155        2.9007  -18.7836  -44.8411 H         1 UNK         0.0600 
    156 H156        3.1889  -16.2930  -44.9114 H         1 UNK         0.0600 
    157 H157        1.4984  -16.0848  -44.4535 H         1 UNK         0.0600 
    158 H158        1.9154  -16.8319  -45.9892 H         1 UNK         0.0600 
    159 H159        2.6554  -17.1024  -42.4813 H         1 UNK         0.3000 
    160 H160        2.7059  -18.6299  -40.1335 H         1 UNK         0.0600 
    161 H161        5.4192  -19.9541  -40.6517 H         1 UNK         0.0600 
    162 H162        3.9735  -20.7352  -40.0289 H         1 UNK         0.0600 
    163 H163        4.7901  -19.5179  -39.0632 H         1 UNK         0.0600 
    164 H164        3.7552  -16.6835  -40.0612 H         1 UNK         0.3000 
    165 H165        5.9195  -15.3606  -39.8826 H         1 UNK         0.0600 
    166 H166        7.9133  -15.7190  -41.3224 H         1 UNK         0.0600 
    167 H167        7.0170  -15.1790  -42.7380 H         1 UNK         0.0600 
    168 H168        7.3615  -14.0557  -41.4232 H         1 UNK         0.0600 
    169 H169        4.8235  -14.1949  -42.3356 H         1 UNK         0.3000 
    170 H170        2.7194  -12.3693  -41.0019 H         1 UNK         0.0600 
    171 H171        1.9743  -12.6440  -43.4011 H         1 UNK         0.0600 
    172 H172        2.7164  -14.2371  -43.4346 H         1 UNK         0.0600 
    173 H173        3.7082  -12.7967  -43.2106 H         1 UNK         0.0600 
    174 H174        0.6031  -12.9803  -40.7665 H         1 UNK         0.3000 
    175 H175       -1.1037  -16.0558  -40.7369 H         1 UNK         0.0600 
    176 H176       -0.7000  -14.4582  -38.8672 H         1 UNK         0.0600 
    177 H177       -1.2193  -13.1149  -39.8747 H         1 UNK         0.0600 
    178 H178       -2.3528  -14.3903  -39.4532 H         1 UNK         0.0600 
    179 H179       -2.2142  -15.4752  -42.5620 H         1 UNK         0.3000 
    180 H180       -3.6886  -13.9027  -43.7882 H         1 UNK         0.0600 
    181 H181       -1.9337  -11.6893  -44.9787 H         1 UNK         0.0600 
    182 H182       -3.3348  -11.4393  -43.9419 H         1 UNK         0.0600 
    183 H183       -3.5417  -12.1510  -45.5340 H         1 UNK         0.0600 
    184 H184       -1.4710  -13.9582  -45.7307 H         1 UNK         0.3000 
    185 H185       -0.4627  -16.6407  -45.8845 H         1 UNK         0.0600 
    186 H186       -3.0504  -17.6982  -47.1045 H         1 UNK         0.0600 
    187 H187       -2.2330  -18.4293  -45.7251 H         1 UNK         0.0600 
    188 H188       -1.4281  -18.3747  -47.2707 H         1 UNK         0.0600 
    189 H189       -1.8385  -16.0697  -48.3092 H         1 UNK         0.3000 
    190 H190       -2.1386  -21.1534  -45.8735 H         1 UNK         0.3000 
    191 H191       -4.4596  -21.3580  -47.6740 H         1 UNK         0.0600 
    192 H192       -4.4240  -19.3703  -46.3009 H         1 UNK         0.0600 
    193 H193       -5.6927  -20.4006  -45.6838 H         1 UNK         0.0600 
    194 H194       -4.1659  -20.2944  -44.8212 H         1 UNK         0.0600 
    195 H195       -3.1568  -22.9264  -44.7258 H         1 UNK         0.3000 
    196 H196       -5.2458  -24.8084  -44.3433 H         1 UNK         0.0600 
    197 H197       -3.5858  -26.0182  -42.9713 H         1 UNK         0.0600 
    198 H198       -3.4664  -24.2927  -42.6570 H         1 UNK         0.0600 
    199 H199       -2.2686  -25.0924  -43.6736 H         1 UNK         0.0600 
    200 H200       -2.3447  -24.9207  -46.4103 H         1 UNK         0.3000 
    201 H201       -2.8542  -27.5341  -47.5358 H         1 UNK         0.0600 
    202 H202       -1.0062  -26.8840  -49.0654 H         1 UNK         0.0600 
    203 H203       -0.5832  -26.4877  -47.4085 H         1 UNK         0.0600 
    204 H204       -1.1010  -25.2162  -48.5149 H         1 UNK         0.0600 
    205 H205       -4.5572  -24.6929  -47.9243 H         1 UNK         0.3000 
    206 H206       -6.1538  -23.9427  -49.1780 H         1 UNK         0.0600 
    207 H207       -6.9555  -26.2932  -49.3972 H         1 UNK         0.0600 
    208 H208       -7.3527  -25.3211  -50.8049 H         1 UNK         0.0600 
    209 H209       -6.0306  -26.4720  -50.8892 H         1 UNK         0.0600 
    210 H210       -3.1238  -24.4736  -50.5408 H         1 UNK         0.3000 
    211 H211       -3.3569  -23.6744  -53.2022 H         1 UNK         0.0600 
    212 H212       -1.3327  -24.7308  -52.2465 H         1 UNK         0.0600 
    213 H213       -0.9017  -23.2048  -53.0006 H         1 UNK         0.0600 
    214 H214       -1.0189  -23.3112  -51.2488 H         1 UNK         0.0600 
    215 H215       -2.7319  -21.6180  -50.3255 H         1 UNK         0.3000 
    216 H216       -2.8003  -19.1581  -51.9589 H         1 UNK         0.0600 
    217 H217       -2.4675  -19.5857  -48.9581 H         1 UNK         0.0600 
    218 H218       -2.3447  -18.0386  -49.7786 H         1 UNK         0.0600 
    219 H219       -1.1717  -19.2943  -50.1299 H         1 UNK         0.0600 
    220 H220       -5.0478  -21.0844  -50.1129 H         1 UNK         0.3000 
    221 H221       -6.9594  -18.9821  -49.5272 H         1 UNK         0.0600 
    222 H222       -7.3572  -22.0186  -49.5968 H         1 UNK         0.0600 
    223 H223       -6.8447  -21.0944  -48.1829 H         1 UNK         0.0600 
    224 H224       -8.4378  -20.8414  -48.8733 H         1 UNK         0.0600 
    225 H225       -6.6407  -21.5284  -52.0447 H         1 UNK         0.3000 
    226 H226       -8.8492  -20.5406  -53.6675 H         1 UNK         0.0600 
    227 H227       -8.1380  -22.9354  -53.6658 H         1 UNK         0.0600 
    228 H228       -7.9856  -22.2433  -55.2740 H         1 UNK         0.0600 
    229 H229       -6.5510  -22.4812  -54.2826 H         1 UNK         0.0600 
    230 H230       -5.5898  -19.6226  -53.1867 H         1 UNK         0.3000 
    231 H231       -4.0929  -18.2766  -54.0788 H         1 UNK         0.0600 
    232 H232       -6.3103  -17.0541  -55.8025 H         1 UNK         0.0600 
    233 H233       -4.7547  -16.3311  -55.4211 H         1 UNK         0.0600 
    234 H234       -5.9359  -16.5779  -54.1458 H         1 UNK         0.0600 
    235 H235       -4.5477  -20.8800  -55.1646 H         1 UNK         0.3000 
    236 H236       -4.2701  -20.9596  -58.0284 H         1 UNK         0.0600 
    237 H237       -3.7578  -23.0723  -55.8607 H         1 UNK         0.0600 
    238 H238       -5.2743  -22.8226  -56.7254 H         1 UNK         0.0600 
    239 H239       -3.8543  -23.3919  -57.5892 H         1 UNK         0.0600 
    240 H240       -2.0129  -20.7095  -55.3279 H         1 UNK         0.3000 
    241 H241        0.3266  -21.2284  -57.0081 H         1 UNK         0.0600 
    242 H242       -1.6229  -18.4772  -56.9202 H         1 UNK         0.3800 
    243 H243       -0.3648  -17.3264  -57.2850 H         1 UNK         0.3800 
    244 H244        0.2832  -22.0397  -54.6791 H         1 UNK         0.0800 
    245 H245        1.6645  -21.0872  -55.0836 H         1 UNK         0.0800 
    246 H246        2.6577  -20.0467  -53.2682 H         1 UNK         0.0800 
    247 H247        2.1251  -18.5953  -54.0791 H         1 UNK         0.0800 
@<TRIPOS>BOND
     1    1    2 1    
     2    1  127 1    
     3    1  128 1    
     4    1  129 1    
     5    2    3 2    
     6    2    4 am   BACKBONE|DICT|INTERRES
     7    4    5 1    
     8    4  130 1    
     9    5    6 1    
    10    5   65 1    
    11    5  131 1    
    12    6    7 1    
    13    6  132 1    
    14    6  133 1    
    15    7    8 1    
    16    8    9 1    
    17    8  134 1    
    18    8  135 1    
    19    9   10 ar   
    20    9   14 ar   
    21   10   11 ar   
    22   10  136 1    
    23   11   12 ar   
    24   11  126 1    
    25   12   13 ar   
    26   12  137 1    
    27   13   14 ar   
    28   13   15 1    
    29   14  138 1    
    30   15   16 1    
    31   15  139 1    
    32   15  140 1    
    33   16   17 1    
    34   17   18 1    
    35   17  141 1    
    36   17  142 1    
    37   18   19 1    
    38   18   67 1    
    39   18  143 1    
    40   19   20 am   BACKBONE|DICT|INTERRES
    41   19  144 1    
    42   20   21 2    
    43   20   22 1    
    44   22   23 1    
    45   22   24 1    
    46   22  145 1    
    47   23  146 1    
    48   23  147 1    
    49   23  148 1    
    50   24   25 am   BACKBONE|DICT|INTERRES
    51   24  149 1    
    52   25   26 2    
    53   25   27 1    
    54   27   28 1    
    55   27   29 1    
    56   27  150 1    
    57   28  151 1    
    58   28  152 1    
    59   28  153 1    
    60   29   30 am   BACKBONE|DICT|INTERRES
    61   29  154 1    
    62   30   31 2    
    63   30   32 1    
    64   32   33 1    
    65   32   34 1    
    66   32  155 1    
    67   33  156 1    
    68   33  157 1    
    69   33  158 1    
    70   34   35 am   BACKBONE|DICT|INTERRES
    71   34  159 1    
    72   35   36 2    
    73   35   37 1    
    74   37   38 1    
    75   37   39 1    
    76   37  160 1    
    77   38  161 1    
    78   38  162 1    
    79   38  163 1    
    80   39   40 am   BACKBONE|DICT|INTERRES
    81   39  164 1    
    82   40   41 2    
    83   40   42 1    
    84   42   43 1    
    85   42   44 1    
    86   42  165 1    
    87   43  166 1    
    88   43  167 1    
    89   43  168 1    
    90   44   45 am   BACKBONE|DICT|INTERRES
    91   44  169 1    
    92   45   46 2    
    93   45   47 1    
    94   47   48 1    
    95   47   49 1    
    96   47  170 1    
    97   48  171 1    
    98   48  172 1    
    99   48  173 1    
   100   49   50 am   BACKBONE|DICT|INTERRES
   101   49  174 1    
   102   50   51 2    
   103   50   52 1    
   104   52   53 1    
   105   52   54 1    
   106   52  175 1    
   107   53  176 1    
   108   53  177 1    
   109   53  178 1    
   110   54   55 am   BACKBONE|DICT|INTERRES
   111   54  179 1    
   112   55   56 2    
   113   55   57 1    
   114   57   58 1    
   115   57   59 1    
   116   57  180 1    
   117   58  181 1    
   118   58  182 1    
   119   58  183 1    
   120   59   60 am   BACKBONE|DICT|INTERRES
   121   59  184 1    
   122   60   61 2    
   123   60   62 1    
   124   62   63 1    
   125   62   64 1    
   126   62  185 1    
   127   63  186 1    
   128   63  187 1    
   129   63  188 1    
   130   64   65 am   BACKBONE|DICT|INTERRES
   131   64  189 1    
   132   65   66 2    
   133   67   68 2    
   134   67   69 am   BACKBONE|DICT|INTERRES
   135   69   70 1    
   136   69  190 1    
   137   70   71 1    
   138   70   72 1    
   139   70  191 1    
   140   71  192 1    
   141   71  193 1    
   142   71  194 1    
   143   72   73 2    
   144   72   74 am   BACKBONE|DICT|INTERRES
   145   74   75 1    
   146   74  195 1    
   147   75   76 1    
   148   75   77 1    
   149   75  196 1    
   150   76  197 1    
   151   76  198 1    
   152   76  199 1    
   153   77   78 2    
   154   77   79 am   BACKBONE|DICT|INTERRES
   155   79   80 1    
   156   79  200 1    
   157   80   81 1    
   158   80   82 1    
   159   80  201 1    
   160   81  202 1    
   161   81  203 1    
   162   81  204 1    
   163   82   83 2    
   164   82   84 am   BACKBONE|DICT|INTERRES
   165   84   85 1    
   166   84  205 1    
   167   85   86 1    
   168   85   87 1    
   169   85  206 1    
   170   86  207 1    
   171   86  208 1    
   172   86  209 1    
   173   87   88 2    
   174   87   89 am   BACKBONE|DICT|INTERRES
   175   89   90 1    
   176   89  210 1    
   177   90   91 1    
   178   90   92 1    
   179   90  211 1    
   180   91  212 1    
   181   91  213 1    
   182   91  214 1    
   183   92   93 2    
   184   92   94 am   BACKBONE|DICT|INTERRES
   185   94   95 1    
   186   94  215 1    
   187   95   96 1    
   188   95   97 1    
   189   95  216 1    
   190   96  217 1    
   191   96  218 1    
   192   96  219 1    
   193   97   98 2    
   194   97   99 am   BACKBONE|DICT|INTERRES
   195   99  100 1    
   196   99  220 1    
   197  100  101 1    
   198  100  102 1    
   199  100  221 1    
   200  101  222 1    
   201  101  223 1    
   202  101  224 1    
   203  102  103 2    
   204  102  104 am   BACKBONE|DICT|INTERRES
   205  104  105 1    
   206  104  225 1    
   207  105  106 1    
   208  105  107 1    
   209  105  226 1    
   210  106  227 1    
   211  106  228 1    
   212  106  229 1    
   213  107  108 2    
   214  107  109 am   BACKBONE|DICT|INTERRES
   215  109  110 1    
   216  109  230 1    
   217  110  111 1    
   218  110  112 1    
   219  110  231 1    
   220  111  232 1    
   221  111  233 1    
   222  111  234 1    
   223  112  113 2    
   224  112  114 am   BACKBONE|DICT|INTERRES
   225  114  115 1    
   226  114  235 1    
   227  115  116 1    
   228  115  117 1    
   229  115  236 1    
   230  116  237 1    
   231  116  238 1    
   232  116  239 1    
   233  117  118 2    
   234  117  119 am   BACKBONE|DICT|INTERRES
   235  119  120 1    
   236  119  240 1    
   237  120  121 1    
   238  120  124 1    
   239  120  241 1    
   240  121  122 am   BACKBONE|DICT|INTERRES
   241  121  123 2    
   242  122  242 1    
   243  122  243 1    
   244  124  125 1    
   245  124  244 1    
   246  124  245 1    
   247  125  126 1    
   248  126  246 1    
   249  126  247 1    
@<TRIPOS>SUBSTRUCTURE
     1 UNK         1 GROUP             0       ****    0 ROOT    
