@<TRIPOS>MOLECULE
3R540
247   249    1
SMALL
USER_CHARGES


@<TRIPOS>ATOM
      1 CA         -3.4156  -12.1190  -41.6090 C.3       0 UNK        -0.1800 
      2 C          -2.8873  -12.1329  -43.0360 C.2       0 UNK         0.5000 
      3 O          -2.2976  -11.1484  -43.4838 O.2       0 UNK        -0.5000 
      4 N          -3.0853  -13.2474  -43.7502 N.am      1 UNK        -0.5000 
      5 CA         -2.6687  -13.4679  -45.1424 C.3       1 UNK         0.1400 
      6 C6         -3.5341  -14.5427  -45.8505 C.3       23 UNK        -0.0398 
      7 S7         -5.3182  -14.1762  -45.7696 S.3       23 UNK        -0.2404 
      8 C8         -5.9279  -15.5679  -44.7628 C.3       23 UNK        -0.0205 
      9 C9         -6.0556  -16.8505  -45.5734 C.ar      23 UNK        -0.0193 
     10 C10        -6.9499  -16.9026  -46.6433 C.ar      23 UNK        -0.1150 
     11 C11        -7.0944  -18.0682  -47.3966 C.ar      23 UNK        -0.0193 
     12 C12        -6.3639  -19.2064  -47.0438 C.ar      23 UNK        -0.1150 
     13 C13        -5.4885  -19.1888  -45.9514 C.ar      23 UNK        -0.0193 
     14 C14        -5.3202  -17.9919  -45.2380 C.ar      23 UNK        -0.1150 
     15 C15        -4.7622  -20.4848  -45.5801 C.3       23 UNK        -0.0205 
     16 S16        -4.2019  -20.5911  -43.8417 S.3       23 UNK        -0.2404 
     17 C17        -4.0806  -22.3890  -43.5610 C.3       23 UNK        -0.0398 
     18 CA         -3.1934  -23.1613  -44.5681 C.3       11 UNK         0.1400 
     19 N          -1.7966  -22.6952  -44.6000 N.am      11 UNK        -0.5000 
     20 C          -0.8671  -23.1301  -45.4666 C.2       10 UNK         0.5000 
     21 O          -1.1047  -23.9863  -46.3208 O.2       10 UNK        -0.5000 
     22 CA          0.5551  -22.5494  -45.3850 C.3       10 UNK         0.1400 
     23 CB          1.0560  -22.1166  -46.7732 C.3       10 UNK        -0.1800 
     24 N           0.6521  -21.4047  -44.4829 N.am      10 UNK        -0.5000 
     25 C           1.4925  -21.3084  -43.4434 C.2       9 UNK         0.5000 
     26 O           2.1817  -22.2455  -43.0382 O.2       9 UNK        -0.5000 
     27 CA          1.6163  -19.9380  -42.7459 C.3       9 UNK         0.1400 
     28 CB          3.0184  -19.3454  -42.9639 C.3       9 UNK        -0.1800 
     29 N           0.6282  -18.9721  -43.2237 N.am      9 UNK        -0.5000 
     30 C          -0.6035  -18.8315  -42.7184 C.2       8 UNK         0.5000 
     31 O          -1.0177  -19.4625  -41.7458 O.2       8 UNK        -0.5000 
     32 CA         -1.5397  -17.8355  -43.4306 C.3       8 UNK         0.1400 
     33 CB         -1.5290  -16.4801  -42.7101 C.3       8 UNK        -0.1800 
     34 N          -1.2385  -17.6299  -44.8513 N.am      8 UNK        -0.5000 
     35 C          -1.2552  -18.5860  -45.7917 C.2       7 UNK         0.5000 
     36 O          -1.4902  -19.7695  -45.5653 O.2       7 UNK        -0.5000 
     37 CA         -0.8699  -18.1677  -47.2164 C.3       7 UNK         0.1400 
     38 CB         -2.0908  -17.5991  -47.9518 C.3       7 UNK        -0.1800 
     39 N           0.2263  -17.1994  -47.2464 N.am      7 UNK        -0.5000 
     40 C           1.4645  -17.4189  -46.7791 C.2       6 UNK         0.5000 
     41 O           1.8104  -18.4736  -46.2446 O.2       6 UNK        -0.5000 
     42 CA          2.4682  -16.2532  -46.9121 C.3       6 UNK         0.1400 
     43 CB          3.9392  -16.7084  -46.8256 C.3       6 UNK        -0.1800 
     44 N           2.2452  -15.4270  -48.1035 N.am      6 UNK        -0.5000 
     45 C           2.2919  -15.8271  -49.3835 C.2       5 UNK         0.5000 
     46 O           2.5798  -16.9667  -49.7481 O.2       5 UNK        -0.5000 
     47 CA          1.9613  -14.7570  -50.4352 C.3       5 UNK         0.1400 
     48 CB          0.4640  -14.4095  -50.4094 C.3       5 UNK        -0.1800 
     49 N           2.7537  -13.5429  -50.2441 N.am      5 UNK        -0.5000 
     50 C           4.0626  -13.4421  -50.5202 C.2       4 UNK         0.5000 
     51 O           4.7319  -14.3591  -50.9977 O.2       4 UNK        -0.5000 
     52 CA          4.7434  -12.0879  -50.2375 C.3       4 UNK         0.1400 
     53 CB          4.8865  -11.2779  -51.5357 C.3       4 UNK        -0.1800 
     54 N           4.0265  -11.2770  -49.2522 N.am      4 UNK        -0.5000 
     55 C           4.0248  -11.5089  -47.9336 C.2       3 UNK         0.5000 
     56 O           4.6833  -12.4056  -47.4015 O.2       3 UNK        -0.5000 
     57 CA          3.1504  -10.5836  -47.0571 C.3       3 UNK         0.1400 
     58 CB          2.0966   -9.7763  -47.8501 C.3       3 UNK        -0.1800 
     59 N           2.5067  -11.3058  -45.9552 N.am      3 UNK        -0.5000 
     60 C           1.6798  -12.3573  -46.0508 C.2       2 UNK         0.5000 
     61 O           1.3490  -12.8710  -47.1228 O.2       2 UNK        -0.5000 
     62 CA          1.1251  -12.9358  -44.7322 C.3       2 UNK         0.1400 
     63 CB          1.6418  -12.2342  -43.4599 C.3       2 UNK        -0.1800 
     64 N          -0.3309  -12.8645  -44.7394 N.am      2 UNK        -0.5000 
     65 C          -1.1599  -13.7953  -45.2215 C.2       1 UNK         0.5000 
     66 O          -0.7815  -14.8831  -45.6607 O.2       1 UNK        -0.5000 
     67 C          -3.3134  -24.6794  -44.3111 C.2       11 UNK         0.5000 
     68 O          -4.2061  -25.3179  -44.8686 O.2       11 UNK        -0.5000 
     69 N          -2.3745  -25.2417  -43.5356 N.am      12 UNK        -0.5000 
     70 CA         -2.2365  -26.6805  -43.2852 C.3       12 UNK         0.1400 
     71 CB         -1.1848  -26.8923  -42.1856 C.3       12 UNK        -0.1800 
     72 C          -1.8712  -27.4976  -44.5439 C.2       12 UNK         0.5000 
     73 O          -2.1292  -28.7009  -44.5793 O.2       12 UNK        -0.5000 
     74 N          -1.3020  -26.8277  -45.5541 N.am      13 UNK        -0.5000 
     75 CA         -0.9759  -27.3680  -46.8718 C.3       13 UNK         0.1400 
     76 CB          0.4756  -26.9813  -47.2113 C.3       13 UNK        -0.1800 
     77 C          -1.9620  -26.8582  -47.9433 C.2       13 UNK         0.5000 
     78 O          -1.6255  -26.8835  -49.1267 O.2       13 UNK        -0.5000 
     79 N          -3.1448  -26.3786  -47.5238 N.am      14 UNK        -0.5000 
     80 CA         -4.2178  -25.8166  -48.3528 C.3       14 UNK         0.1400 
     81 CB         -4.8364  -26.9027  -49.2583 C.3       14 UNK        -0.1800 
     82 C          -3.7678  -24.5652  -49.1343 C.2       14 UNK         0.5000 
     83 O          -4.0192  -24.4606  -50.3352 O.2       14 UNK        -0.5000 
     84 N          -3.0697  -23.6574  -48.4356 N.am      15 UNK        -0.5000 
     85 CA         -2.4314  -22.4437  -48.9572 C.3       15 UNK         0.1400 
     86 CB         -3.4760  -21.4307  -49.4683 C.3       15 UNK        -0.1800 
     87 C          -1.3475  -22.7913  -49.9958 C.2       15 UNK         0.5000 
     88 O          -1.3285  -22.2279  -51.0921 O.2       15 UNK        -0.5000 
     89 N          -0.4884  -23.7514  -49.6204 N.am      16 UNK        -0.5000 
     90 CA          0.6051  -24.3245  -50.4121 C.3       16 UNK         0.1400 
     91 CB          1.7147  -23.2745  -50.6364 C.3       16 UNK        -0.1800 
     92 C           0.0986  -24.9534  -51.7261 C.2       16 UNK         0.5000 
     93 O           0.5593  -24.5848  -52.8056 O.2       16 UNK        -0.5000 
     94 N          -0.8861  -25.8561  -51.6093 N.am      17 UNK        -0.5000 
     95 CA         -1.6231  -26.5027  -52.7026 C.3       17 UNK         0.1400 
     96 CB         -0.7163  -27.4959  -53.4582 C.3       17 UNK        -0.1800 
     97 C          -2.3094  -25.4772  -53.6316 C.2       17 UNK         0.5000 
     98 O          -2.2631  -25.6085  -54.8560 O.2       17 UNK        -0.5000 
     99 N          -2.9052  -24.4527  -53.0073 N.am      18 UNK        -0.5000 
    100 CA        -3.5622  -23.2861  -53.5955 C.3       18 UNK         0.1400 
    101 CB        -4.8171  -23.7019  -54.3897 C.3       18 UNK        -0.1800 
    102 C         -2.6326  -22.3473  -54.3968 C.2       18 UNK         0.5000 
    103 O         -3.1345  -21.5111  -55.1487 O.2       18 UNK        -0.5000 
    104 N         -1.3075  -22.4556  -54.2188 N.am      19 UNK        -0.5000 
    105 CA        -0.3303  -21.5689  -54.8557 C.3       19 UNK         0.1400 
    106 CB         1.0580  -22.2243  -54.8479 C.3       19 UNK        -0.1800 
    107 C         -0.2694  -20.1832  -54.1884 C.2       19 UNK         0.5000 
    108 O         -0.0445  -19.1908  -54.8823 O.2       19 UNK        -0.5000 
    109 N         -0.4720  -20.1349  -52.8645 N.am      20 UNK        -0.5000 
    110 CA        -0.4654  -18.9026  -52.0738 C.3       20 UNK         0.1400 
    111 CB         0.1342  -19.2009  -50.6908 C.3       20 UNK        -0.1800 
    112 C         -1.8698  -18.2911  -51.9226 C.2       20 UNK         0.5000 
    113 O         -1.9728  -17.1518  -51.4667 O.2       20 UNK        -0.5000 
    114 N         -2.9149  -19.0557  -52.2757 N.am      21 UNK        -0.5000 
    115 CA        -4.3323  -18.7097  -52.1471 C.3       21 UNK         0.1400 
    116 CB        -5.1838  -19.8408  -52.7471 C.3       21 UNK        -0.1800 
    117 C         -4.6800  -17.3611  -52.8220 C.2       21 UNK         0.5000 
    118 O         -4.5990  -17.2860  -54.0485 O.2       21 UNK        -0.5000 
    119 N         -5.0530  -16.2991  -52.0969 N.am      22 UNK        -0.5000 
    120 CA        -5.1226  -16.1313  -50.6365 C.3       22 UNK         0.1400 
    121 C         -4.4126  -14.8045  -50.2639 C.2       22 UNK         0.5000 
    122 N         -3.1025  -14.7368  -50.4565 N.am      22 UNK        -0.7600 
    123 O         -5.0314  -13.8367  -49.8302 O.2       22 UNK        -0.5000 
    124 C124       -6.5828  -16.2197  -50.1173 C.3       23 UNK        -0.0398 
    125 S125       -7.2382  -17.9245  -50.1789 S.3       23 UNK        -0.2404 
    126 C126       -8.0677  -18.1014  -48.5665 C.3       23 UNK        -0.0205 
    127 H127       -3.9083  -13.0564  -41.3497 H         1 UNK         0.0600 
    128 H128       -4.1356  -11.3103  -41.4837 H         1 UNK         0.0600 
    129 H129       -2.5965  -11.9599  -40.9078 H         1 UNK         0.0600 
    130 H130       -3.5764  -14.0166  -43.3206 H         1 UNK         0.3000 
    131 H131       -2.8118  -12.5338  -45.6903 H         1 UNK         0.0600 
    132 H132       -3.3478  -15.5330  -45.4321 H         1 UNK         0.0800 
    133 H133       -3.2640  -14.5992  -46.9062 H         1 UNK         0.0800 
    134 H134       -5.2810  -15.7104  -43.8961 H         1 UNK         0.0800 
    135 H135       -6.9110  -15.3070  -44.3684 H         1 UNK         0.0800 
    136 H136       -7.5291  -16.0245  -46.8930 H         1 UNK         0.1150 
    137 H137       -6.4919  -20.1149  -47.6157 H         1 UNK         0.1150 
    138 H138       -4.6380  -17.9475  -44.4031 H         1 UNK         0.1150 
    139 H139       -5.4290  -21.3261  -45.7748 H         1 UNK         0.0800 
    140 H140       -3.9031  -20.6074  -46.2398 H         1 UNK         0.0800 
    141 H141       -5.0992  -22.7823  -43.5727 H         1 UNK         0.0800 
    142 H142       -3.7133  -22.5388  -42.5442 H         1 UNK         0.0800 
    143 H143       -3.5992  -22.9957  -45.5670 H         1 UNK         0.0600 
    144 H144       -1.5534  -21.9513  -43.9618 H         1 UNK         0.3000 
    145 H145        1.1928  -23.3645  -45.0383 H         1 UNK         0.0600 
    146 H146        0.4033  -21.3680  -47.2232 H         1 UNK         0.0600 
    147 H147        2.0578  -21.6904  -46.7157 H         1 UNK         0.0600 
    148 H148        1.1087  -22.9673  -47.4516 H         1 UNK         0.0600 
    149 H149        0.0821  -20.6040  -44.7380 H         1 UNK         0.3000 
    150 H150        1.4818  -20.1013  -41.6746 H         1 UNK         0.0600 
    151 H151        3.7897  -20.0082  -42.5696 H         1 UNK         0.0600 
    152 H152        3.1254  -18.3867  -42.4562 H         1 UNK         0.0600 
    153 H153        3.2305  -19.1903  -44.0224 H         1 UNK         0.0600 
    154 H154        0.8769  -18.4513  -44.0543 H         1 UNK         0.3000 
    155 H155       -2.5481  -18.2428  -43.3620 H         1 UNK         0.0600 
    156 H156       -1.7080  -16.5998  -41.6407 H         1 UNK         0.0600 
    157 H157       -2.3138  -15.8322  -43.0947 H         1 UNK         0.0600 
    158 H158       -0.5743  -15.9663  -42.8299 H         1 UNK         0.0600 
    159 H159       -1.0008  -16.6831  -45.1382 H         1 UNK         0.3000 
    160 H160       -0.5338  -19.0607  -47.7459 H         1 UNK         0.0600 
    161 H161       -1.8261  -17.2678  -48.9523 H         1 UNK         0.0600 
    162 H162       -2.5170  -16.7468  -47.4262 H         1 UNK         0.0600 
    163 H163       -2.8761  -18.3502  -48.0487 H         1 UNK         0.0600 
    164 H164        0.0078  -16.2757  -47.5914 H         1 UNK         0.3000 
    165 H165        2.2807  -15.6052  -46.0574 H         1 UNK         0.0600 
    166 H166        4.1903  -17.4189  -47.6135 H         1 UNK         0.0600 
    167 H167        4.6185  -15.8598  -46.9091 H         1 UNK         0.0600 
    168 H168        4.1433  -17.1944  -45.8708 H         1 UNK         0.0600 
    169 H169        1.9749  -14.4643  -47.9133 H         1 UNK         0.3000 
    170 H170        2.1924  -15.1708  -51.4193 H         1 UNK         0.0600 
    171 H171        0.1688  -13.9420  -49.4692 H         1 UNK         0.0600 
    172 H172        0.2042  -13.7275  -51.2190 H         1 UNK         0.0600 
    173 H173       -0.1426  -15.3072  -50.5340 H         1 UNK         0.0600 
    174 H174        2.2862  -12.7533  -49.8238 H         1 UNK         0.3000 
    175 H175        5.7449  -12.2966  -49.8551 H         1 UNK         0.0600 
    176 H176        3.9151  -11.0303  -51.9654 H         1 UNK         0.0600 
    177 H177        5.4255  -10.3463  -51.3624 H         1 UNK         0.0600 
    178 H178        5.4441  -11.8390  -52.2869 H         1 UNK         0.0600 
    179 H179        3.4690  -10.5157  -49.6118 H         1 UNK         0.3000 
    180 H180        3.8353   -9.8705  -46.5963 H         1 UNK         0.0600 
    181 H181        1.4182  -10.4246  -48.4061 H         1 UNK         0.0600 
    182 H182        2.5662   -9.0936  -48.5592 H         1 UNK         0.0600 
    183 H183        1.4910   -9.1653  -47.1807 H         1 UNK         0.0600 
    184 H184        2.7446  -10.9800  -45.0293 H         1 UNK         0.3000 
    185 H185        1.4367  -13.9794  -44.6778 H         1 UNK         0.0600 
    186 H186        1.2380  -12.7106  -42.5662 H         1 UNK         0.0600 
    187 H187        2.7285  -12.2937  -43.3858 H         1 UNK         0.0600 
    188 H188        1.3548  -11.1822  -43.4263 H         1 UNK         0.0600 
    189 H189       -0.7494  -12.0151  -44.3733 H         1 UNK         0.3000 
    190 H190       -1.6720  -24.6440  -43.1248 H         1 UNK         0.3000 
    191 H191       -3.1959  -27.0532  -42.9206 H         1 UNK         0.0600 
    192 H192       -0.2054  -26.5197  -42.4886 H         1 UNK         0.0600 
    193 H193       -1.4686  -26.3834  -41.2642 H         1 UNK         0.0600 
    194 H194       -1.0741  -27.9514  -41.9488 H         1 UNK         0.0600 
    195 H195       -1.1665  -25.8278  -45.4603 H         1 UNK         0.3000 
    196 H196       -1.0457  -28.4572  -46.8665 H         1 UNK         0.0600 
    197 H197        1.1660  -27.3433  -46.4494 H         1 UNK         0.0600 
    198 H198        0.5991  -25.9006  -47.2866 H         1 UNK         0.0600 
    199 H199        0.7890  -27.4162  -48.1612 H         1 UNK         0.0600 
    200 H200       -3.3258  -26.3667  -46.5272 H         1 UNK         0.3000 
    201 H201       -4.9948  -25.4815  -47.6643 H         1 UNK         0.0600 
    202 H202       -5.7117  -26.5194  -49.7840 H         1 UNK         0.0600 
    203 H203       -5.1609  -27.7640  -48.6745 H         1 UNK         0.0600 
    204 H204       -4.1326  -27.2548  -50.0130 H         1 UNK         0.0600 
    205 H205       -2.8096  -23.8981  -47.4870 H         1 UNK         0.3000 
    206 H206       -1.9154  -21.9756  -48.1183 H         1 UNK         0.0600 
    207 H207       -4.2203  -21.2101  -48.7037 H         1 UNK         0.0600 
    208 H208       -4.0008  -21.7988  -50.3487 H         1 UNK         0.0600 
    209 H209       -3.0016  -20.4874  -49.7392 H         1 UNK         0.0600 
    210 H210       -0.6296  -24.1644  -48.7082 H         1 UNK         0.3000 
    211 H211        1.0297  -25.1377  -49.8219 H         1 UNK         0.0600 
    212 H212        2.0844  -22.8800  -49.6905 H         1 UNK         0.0600 
    213 H213        2.5659  -23.7129  -51.1584 H         1 UNK         0.0600 
    214 H214        1.3651  -22.4322  -51.2341 H         1 UNK         0.0600 
    215 H215       -1.1919  -26.1171  -50.6719 H         1 UNK         0.3000 
    216 H216       -2.4243  -27.0757  -52.2336 H         1 UNK         0.0600 
    217 H217       -1.2875  -28.0652  -54.1922 H         1 UNK         0.0600 
    218 H218        0.0868  -26.9870  -53.9921 H         1 UNK         0.0600 
    219 H219       -0.2627  -28.2128  -52.7738 H         1 UNK         0.0600 
    220 H220       -2.9260  -24.4675  -51.9917 H         1 UNK         0.3000 
    221 H221       -3.8990  -22.7004  -52.7410 H         1 UNK         0.0600 
    222 H222       -4.5591  -24.2420  -55.3009 H         1 UNK         0.0600 
    223 H223       -5.4673  -24.3405  -53.7917 H         1 UNK         0.0600 
    224 H224       -5.4034  -22.8299  -54.6818 H         1 UNK         0.0600 
    225 H225       -0.9455  -23.1564  -53.5823 H         1 UNK         0.3000 
    226 H226       -0.6226  -21.4261  -55.8983 H         1 UNK         0.0600 
    227 H227        1.0309  -23.2164  -55.2989 H         1 UNK         0.0600 
    228 H228        1.7723  -21.6269  -55.4155 H         1 UNK         0.0600 
    229 H229        1.4504  -22.3242  -53.8355 H         1 UNK         0.0600 
    230 H230       -0.6759  -20.9940  -52.3571 H         1 UNK         0.3000 
    231 H231        0.1677  -18.1551  -52.5564 H         1 UNK         0.0600 
    232 H232        0.2293  -18.2858  -50.1062 H         1 UNK         0.0600 
    233 H233        1.1306  -19.6350  -50.7743 H         1 UNK         0.0600 
    234 H234       -0.4864  -19.8883  -50.1176 H         1 UNK         0.0600 
    235 H235       -2.7094  -19.9576  -52.6767 H         1 UNK         0.3000 
    236 H236       -4.5583  -18.6995  -51.0850 H         1 UNK         0.0600 
    237 H237       -5.0479  -20.7720  -52.2009 H         1 UNK         0.0600 
    238 H238       -6.2455  -19.5961  -52.6969 H         1 UNK         0.0600 
    239 H239       -4.9409  -20.0203  -53.7946 H         1 UNK         0.0600 
    240 H240       -5.2309  -15.4429  -52.6008 H         1 UNK         0.3000 
    241 H241       -4.5361  -16.8820  -50.1097 H         1 UNK         0.0600 
    242 H242       -2.6034  -15.5359  -50.8447 H         1 UNK         0.3800 
    243 H243       -2.6108  -13.8842  -50.2471 H         1 UNK         0.3800 
    244 H244       -6.6392  -15.8498  -49.0950 H         1 UNK         0.0800 
    245 H245       -7.2373  -15.5718  -50.7023 H         1 UNK         0.0800 
    246 H246       -8.6113  -19.0472  -48.5551 H         1 UNK         0.0800 
    247 H247       -8.8216  -17.3194  -48.4630 H         1 UNK         0.0800 
@<TRIPOS>BOND
     1    1    2 1    
     2    1  127 1    
     3    1  128 1    
     4    1  129 1    
     5    2    3 2    
     6    2    4 am   BACKBONE|DICT|INTERRES
     7    4    5 1    
     8    4  130 1    
     9    5    6 1    
    10    5   65 1    
    11    5  131 1    
    12    6    7 1    
    13    6  132 1    
    14    6  133 1    
    15    7    8 1    
    16    8    9 1    
    17    8  134 1    
    18    8  135 1    
    19    9   10 ar   
    20    9   14 ar   
    21   10   11 ar   
    22   10  136 1    
    23   11   12 ar   
    24   11  126 1    
    25   12   13 ar   
    26   12  137 1    
    27   13   14 ar   
    28   13   15 1    
    29   14  138 1    
    30   15   16 1    
    31   15  139 1    
    32   15  140 1    
    33   16   17 1    
    34   17   18 1    
    35   17  141 1    
    36   17  142 1    
    37   18   19 1    
    38   18   67 1    
    39   18  143 1    
    40   19   20 am   BACKBONE|DICT|INTERRES
    41   19  144 1    
    42   20   21 2    
    43   20   22 1    
    44   22   23 1    
    45   22   24 1    
    46   22  145 1    
    47   23  146 1    
    48   23  147 1    
    49   23  148 1    
    50   24   25 am   BACKBONE|DICT|INTERRES
    51   24  149 1    
    52   25   26 2    
    53   25   27 1    
    54   27   28 1    
    55   27   29 1    
    56   27  150 1    
    57   28  151 1    
    58   28  152 1    
    59   28  153 1    
    60   29   30 am   BACKBONE|DICT|INTERRES
    61   29  154 1    
    62   30   31 2    
    63   30   32 1    
    64   32   33 1    
    65   32   34 1    
    66   32  155 1    
    67   33  156 1    
    68   33  157 1    
    69   33  158 1    
    70   34   35 am   BACKBONE|DICT|INTERRES
    71   34  159 1    
    72   35   36 2    
    73   35   37 1    
    74   37   38 1    
    75   37   39 1    
    76   37  160 1    
    77   38  161 1    
    78   38  162 1    
    79   38  163 1    
    80   39   40 am   BACKBONE|DICT|INTERRES
    81   39  164 1    
    82   40   41 2    
    83   40   42 1    
    84   42   43 1    
    85   42   44 1    
    86   42  165 1    
    87   43  166 1    
    88   43  167 1    
    89   43  168 1    
    90   44   45 am   BACKBONE|DICT|INTERRES
    91   44  169 1    
    92   45   46 2    
    93   45   47 1    
    94   47   48 1    
    95   47   49 1    
    96   47  170 1    
    97   48  171 1    
    98   48  172 1    
    99   48  173 1    
   100   49   50 am   BACKBONE|DICT|INTERRES
   101   49  174 1    
   102   50   51 2    
   103   50   52 1    
   104   52   53 1    
   105   52   54 1    
   106   52  175 1    
   107   53  176 1    
   108   53  177 1    
   109   53  178 1    
   110   54   55 am   BACKBONE|DICT|INTERRES
   111   54  179 1    
   112   55   56 2    
   113   55   57 1    
   114   57   58 1    
   115   57   59 1    
   116   57  180 1    
   117   58  181 1    
   118   58  182 1    
   119   58  183 1    
   120   59   60 am   BACKBONE|DICT|INTERRES
   121   59  184 1    
   122   60   61 2    
   123   60   62 1    
   124   62   63 1    
   125   62   64 1    
   126   62  185 1    
   127   63  186 1    
   128   63  187 1    
   129   63  188 1    
   130   64   65 am   BACKBONE|DICT|INTERRES
   131   64  189 1    
   132   65   66 2    
   133   67   68 2    
   134   67   69 am   BACKBONE|DICT|INTERRES
   135   69   70 1    
   136   69  190 1    
   137   70   71 1    
   138   70   72 1    
   139   70  191 1    
   140   71  192 1    
   141   71  193 1    
   142   71  194 1    
   143   72   73 2    
   144   72   74 am   BACKBONE|DICT|INTERRES
   145   74   75 1    
   146   74  195 1    
   147   75   76 1    
   148   75   77 1    
   149   75  196 1    
   150   76  197 1    
   151   76  198 1    
   152   76  199 1    
   153   77   78 2    
   154   77   79 am   BACKBONE|DICT|INTERRES
   155   79   80 1    
   156   79  200 1    
   157   80   81 1    
   158   80   82 1    
   159   80  201 1    
   160   81  202 1    
   161   81  203 1    
   162   81  204 1    
   163   82   83 2    
   164   82   84 am   BACKBONE|DICT|INTERRES
   165   84   85 1    
   166   84  205 1    
   167   85   86 1    
   168   85   87 1    
   169   85  206 1    
   170   86  207 1    
   171   86  208 1    
   172   86  209 1    
   173   87   88 2    
   174   87   89 am   BACKBONE|DICT|INTERRES
   175   89   90 1    
   176   89  210 1    
   177   90   91 1    
   178   90   92 1    
   179   90  211 1    
   180   91  212 1    
   181   91  213 1    
   182   91  214 1    
   183   92   93 2    
   184   92   94 am   BACKBONE|DICT|INTERRES
   185   94   95 1    
   186   94  215 1    
   187   95   96 1    
   188   95   97 1    
   189   95  216 1    
   190   96  217 1    
   191   96  218 1    
   192   96  219 1    
   193   97   98 2    
   194   97   99 am   BACKBONE|DICT|INTERRES
   195   99  100 1    
   196   99  220 1    
   197  100  101 1    
   198  100  102 1    
   199  100  221 1    
   200  101  222 1    
   201  101  223 1    
   202  101  224 1    
   203  102  103 2    
   204  102  104 am   BACKBONE|DICT|INTERRES
   205  104  105 1    
   206  104  225 1    
   207  105  106 1    
   208  105  107 1    
   209  105  226 1    
   210  106  227 1    
   211  106  228 1    
   212  106  229 1    
   213  107  108 2    
   214  107  109 am   BACKBONE|DICT|INTERRES
   215  109  110 1    
   216  109  230 1    
   217  110  111 1    
   218  110  112 1    
   219  110  231 1    
   220  111  232 1    
   221  111  233 1    
   222  111  234 1    
   223  112  113 2    
   224  112  114 am   BACKBONE|DICT|INTERRES
   225  114  115 1    
   226  114  235 1    
   227  115  116 1    
   228  115  117 1    
   229  115  236 1    
   230  116  237 1    
   231  116  238 1    
   232  116  239 1    
   233  117  118 2    
   234  117  119 am   BACKBONE|DICT|INTERRES
   235  119  120 1    
   236  119  240 1    
   237  120  121 1    
   238  120  124 1    
   239  120  241 1    
   240  121  122 am   BACKBONE|DICT|INTERRES
   241  121  123 2    
   242  122  242 1    
   243  122  243 1    
   244  124  125 1    
   245  124  244 1    
   246  124  245 1    
   247  125  126 1    
   248  126  246 1    
   249  126  247 1    
@<TRIPOS>SUBSTRUCTURE
     1 UNK         1 GROUP             0       ****    0 ROOT    
