@<TRIPOS>MOLECULE
3R540
247   249    1
SMALL
USER_CHARGES


@<TRIPOS>ATOM
      1 CA         -2.0854  -12.6921  -51.9266 C.3       0 UNK        -0.1800 
      2 C          -1.5208  -12.9930  -50.5461 C.2       0 UNK         0.5000 
      3 O          -2.2063  -13.6057  -49.7322 O.2       0 UNK        -0.5000 
      4 N          -0.2836  -12.5460  -50.2877 N.am      1 UNK        -0.5000 
      5 CA          0.5363  -12.7637  -49.0827 C.3       1 UNK         0.1400 
      6 C6          1.1535  -14.1932  -48.9951 C.3       23 UNK        -0.0398 
      7 S7          0.0861  -15.5061  -48.3018 S.3       23 UNK        -0.2404 
      8 C8         -0.3381  -16.5014  -49.7607 C.3       23 UNK        -0.0205 
      9 C9          0.7851  -17.4342  -50.1700 C.ar      23 UNK        -0.0193 
     10 C10         1.5938  -17.1277  -51.2647 C.ar      23 UNK        -0.1150 
     11 C11         2.5923  -18.0142  -51.6750 C.ar      23 UNK        -0.0193 
     12 C12         2.7857  -19.2086  -50.9744 C.ar      23 UNK        -0.1150 
     13 C13         1.9848  -19.5229  -49.8722 C.ar      23 UNK        -0.0193 
     14 C14         0.9890  -18.6280  -49.4749 C.ar      23 UNK        -0.1150 
     15 C15         2.2010  -20.8249  -49.1152 C.3       23 UNK        -0.0205 
     16 S16         1.1096  -22.1500  -49.7179 S.3       23 UNK        -0.2404 
     17 C17        -0.4163  -21.9117  -48.7406 C.3       23 UNK        -0.0398 
     18 CA         -0.5689  -23.0105  -47.6556 C.3       11 UNK         0.1400 
     19 N          -0.1548  -22.5555  -46.3244 N.am      11 UNK        -0.5000 
     20 C           0.0505  -23.3712  -45.2807 C.2       10 UNK         0.5000 
     21 O          -0.0738  -24.5942  -45.3406 O.2       10 UNK        -0.5000 
     22 CA          0.3935  -22.7130  -43.9335 C.3       10 UNK         0.1400 
     23 CB          1.8565  -22.2465  -43.9020 C.3       10 UNK        -0.1800 
     24 N          -0.4991  -21.5963  -43.6213 N.am      10 UNK        -0.5000 
     25 C          -1.8121  -21.7260  -43.3817 C.2       9 UNK         0.5000 
     26 O          -2.3905  -22.8122  -43.3418 O.2       9 UNK        -0.5000 
     27 CA         -2.6236  -20.4292  -43.1902 C.3       9 UNK         0.1400 
     28 CB         -2.5134  -19.9209  -41.7453 C.3       9 UNK        -0.1800 
     29 N          -2.2277  -19.3648  -44.1132 N.am      9 UNK        -0.5000 
     30 C          -2.3509  -19.4277  -45.4467 C.2       8 UNK         0.5000 
     31 O          -2.8543  -20.3723  -46.0514 O.2       8 UNK        -0.5000 
     32 CA         -1.7453  -18.2659  -46.2487 C.3       8 UNK         0.1400 
     33 CB         -2.7091  -17.0685  -46.2911 C.3       8 UNK        -0.1800 
     34 N          -0.4353  -17.8669  -45.7283 N.am      8 UNK        -0.5000 
     35 C           0.6388  -18.6713  -45.7112 C.2       7 UNK         0.5000 
     36 O           0.6338  -19.8160  -46.1602 O.2       7 UNK        -0.5000 
     37 CA          1.9105  -18.1393  -45.0316 C.3       7 UNK         0.1400 
     38 CB          2.6936  -17.2214  -45.9814 C.3       7 UNK        -0.1800 
     39 N           1.6092  -17.4371  -43.7847 N.am      7 UNK        -0.5000 
     40 C           1.1324  -18.0343  -42.6806 C.2       6 UNK         0.5000 
     41 O           0.9777  -19.2510  -42.5822 O.2       6 UNK        -0.5000 
     42 CA          0.7057  -17.1256  -41.5076 C.3       6 UNK         0.1400 
     43 CB          1.8780  -16.9105  -40.5395 C.3       6 UNK        -0.1800 
     44 N           0.1994  -15.8240  -41.9457 N.am      6 UNK        -0.5000 
     45 C          -0.8539  -15.6476  -42.7545 C.2       5 UNK         0.5000 
     46 O          -1.6137  -16.5627  -43.0740 O.2       5 UNK        -0.5000 
     47 CA         -1.0671  -14.2416  -43.3584 C.3       5 UNK         0.1400 
     48 CB         -2.2962  -13.5673  -42.7316 C.3       5 UNK        -0.1800 
     49 N           0.0747  -13.3190  -43.2730 N.am      5 UNK        -0.5000 
     50 C           1.3127  -13.5296  -43.7462 C.2       4 UNK         0.5000 
     51 O           1.6882  -14.5992  -44.2269 O.2       4 UNK        -0.5000 
     52 CA          2.2693  -12.3295  -43.6817 C.3       4 UNK         0.1400 
     53 CB          3.6708  -12.6400  -44.2393 C.3       4 UNK        -0.1800 
     54 N           1.6770  -11.2361  -44.4422 N.am      4 UNK        -0.5000 
     55 C           1.6683   -9.9454  -44.0879 C.2       3 UNK         0.5000 
     56 O           2.1978   -9.5189  -43.0609 O.2       3 UNK        -0.5000 
     57 CA          0.9503   -8.9549  -45.0312 C.3       3 UNK         0.1400 
     58 CB          1.9760   -8.1578  -45.8520 C.3       3 UNK        -0.1800 
     59 N           0.0085   -9.5953  -45.9525 N.am      3 UNK        -0.5000 
     60 C          -1.1452  -10.1751  -45.5945 C.2       2 UNK         0.5000 
     61 O          -1.5881  -10.1570  -44.4457 O.2       2 UNK        -0.5000 
     62 CA         -1.9209  -10.9311  -46.6930 C.3       2 UNK         0.1400 
     63 CB         -3.0692  -10.0652  -47.2325 C.3       2 UNK        -0.1800 
     64 N          -1.1122  -11.4027  -47.8249 N.am      2 UNK        -0.5000 
     65 C          -0.0743  -12.2500  -47.7530 C.2       1 UNK         0.5000 
     66 O           0.4308  -12.5929  -46.6850 O.2       1 UNK        -0.5000 
     67 C          -1.9801  -23.6356  -47.6510 C.2       11 UNK         0.5000 
     68 O          -2.2012  -24.6049  -48.3772 O.2       11 UNK        -0.5000 
     69 N          -2.8913  -23.1308  -46.8063 N.am      12 UNK        -0.5000 
     70 CA         -4.2207  -23.7062  -46.5847 C.3       12 UNK         0.1400 
     71 CB         -5.0577  -22.7794  -45.6898 C.3       12 UNK        -0.1800 
     72 C          -4.1829  -25.1302  -45.9989 C.2       12 UNK         0.5000 
     73 O          -5.0475  -25.9404  -46.3314 O.2       12 UNK        -0.5000 
     74 N          -3.1780  -25.4187  -45.1634 N.am      13 UNK        -0.5000 
     75 CA         -2.9255  -26.7537  -44.6286 C.3       13 UNK         0.1400 
     76 CB         -2.1380  -26.6367  -43.3139 C.3       13 UNK        -0.1800 
     77 C          -2.1811  -27.6433  -45.6413 C.2       13 UNK         0.5000 
     78 O          -2.5545  -28.8034  -45.8185 O.2       13 UNK        -0.5000 
     79 N          -1.1302  -27.0945  -46.2656 N.am      14 UNK        -0.5000 
     80 CA         -0.2029  -27.8331  -47.1219 C.3       14 UNK         0.1400 
     81 CB          1.1064  -27.0389  -47.2514 C.3       14 UNK        -0.1800 
     82 C          -0.7590  -28.1750  -48.5156 C.2       14 UNK         0.5000 
     83 O          -0.5537  -29.2973  -48.9808 O.2       14 UNK        -0.5000 
     84 N          -1.4086  -27.2041  -49.1697 N.am      15 UNK        -0.5000 
     85 CA         -1.8169  -27.2833  -50.5760 C.3       15 UNK         0.1400 
     86 CB         -0.9842  -26.2729  -51.3811 C.3       15 UNK        -0.1800 
     87 C          -3.3164  -27.0211  -50.7893 C.2       15 UNK         0.5000 
     88 O          -3.8552  -27.4481  -51.8115 O.2       15 UNK        -0.5000 
     89 N          -3.9594  -26.3124  -49.8510 N.am      16 UNK        -0.5000 
     90 CA         -5.3666  -25.8943  -49.8199 C.3       16 UNK         0.1400 
     91 CB         -6.3333  -27.0919  -49.8949 C.3       16 UNK        -0.1800 
     92 C          -5.7117  -24.8115  -50.8574 C.2       16 UNK         0.5000 
     93 O          -6.1965  -23.7454  -50.4808 O.2       16 UNK        -0.5000 
     94 N          -5.4359  -25.0835  -52.1380 N.am      17 UNK        -0.5000 
     95 CA         -5.7306  -24.2031  -53.2719 C.3       17 UNK         0.1400 
     96 CB         -5.5295  -24.9920  -54.5746 C.3       17 UNK        -0.1800 
     97 C          -4.8936  -22.9087  -53.2930 C.2       17 UNK         0.5000 
     98 O          -5.3348  -21.9105  -53.8621 O.2       17 UNK        -0.5000 
     99 N          -3.7064  -22.9479  -52.6744 N.am      18 UNK        -0.5000 
    100 CA        -2.7561  -21.8365  -52.6139 C.3       18 UNK         0.1400 
    101 CB        -1.3429  -22.4139  -52.4467 C.3       18 UNK        -0.1800 
    102 C         -3.0628  -20.8058  -51.5092 C.2       18 UNK         0.5000 
    103 O         -2.3691  -19.7874  -51.4396 O.2       18 UNK        -0.5000 
    104 N         -4.0673  -21.0805  -50.6621 N.am      19 UNK        -0.5000 
    105 CA        -4.5215  -20.2353  -49.5558 C.3       19 UNK         0.1400 
    106 CB        -5.7275  -20.9004  -48.8777 C.3       19 UNK        -0.1800 
    107 C         -4.8814  -18.8119  -50.0192 C.2       19 UNK         0.5000 
    108 O         -5.8945  -18.6272  -50.6960 O.2       19 UNK        -0.5000 
    109 N         -4.0136  -17.8518  -49.6716 N.am      20 UNK        -0.5000 
    110 CA        -4.0652  -16.4358  -50.0532 C.3       20 UNK         0.1400 
    111 CB        -5.2800  -15.7386  -49.4058 C.3       20 UNK        -0.1800 
    112 C         -3.9784  -16.2054  -51.5808 C.2       20 UNK         0.5000 
    113 O         -4.5319  -15.2236  -52.0794 O.2       20 UNK        -0.5000 
    114 N         -3.3072  -17.1171  -52.3021 N.am      21 UNK        -0.5000 
    115 CA        -3.2583  -17.1243  -53.7662 C.3       21 UNK         0.1400 
    116 CB        -4.3681  -18.0465  -54.2998 C.3       21 UNK        -0.1800 
    117 C         -1.8938  -17.5351  -54.3454 C.2       21 UNK         0.5000 
    118 O         -1.5758  -17.1013  -55.4537 O.2       21 UNK        -0.5000 
    119 N         -1.1173  -18.3525  -53.6188 N.am      22 UNK        -0.5000 
    120 CA         0.1099  -19.0156  -54.1003 C.3       22 UNK         0.1400 
    121 C         -0.1687  -20.1573  -55.1301 C.2       22 UNK         0.5000 
    122 N          0.8593  -20.8626  -55.5797 N.am      22 UNK        -0.7600 
    123 O         -1.3019  -20.4337  -55.5165 O.2       22 UNK        -0.5000 
    124 C124        1.1962  -18.0101  -54.5942 C.3       23 UNK        -0.0398 
    125 S125        2.9059  -18.6168  -54.3580 S.3       23 UNK        -0.2404 
    126 C126        3.4464  -17.6888  -52.8889 C.3       23 UNK        -0.0205 
    127 H127       -2.1729  -13.6136  -52.5022 H         1 UNK         0.0600 
    128 H128       -1.4532  -12.0001  -52.4834 H         1 UNK         0.0600 
    129 H129       -3.0781  -12.2505  -51.8388 H         1 UNK         0.0600 
    130 H130        0.1854  -12.0218  -51.0136 H         1 UNK         0.3000 
    131 H131        1.3845  -12.0955  -49.2390 H         1 UNK         0.0600 
    132 H132        1.5199  -14.4989  -49.9748 H         1 UNK         0.0800 
    133 H133        2.0408  -14.1559  -48.3612 H         1 UNK         0.0800 
    134 H134       -0.6325  -15.8536  -50.5871 H         1 UNK         0.0800 
    135 H135       -1.2082  -17.1085  -49.5189 H         1 UNK         0.0800 
    136 H136        1.4330  -16.2079  -51.8088 H         1 UNK         0.1150 
    137 H137        3.5530  -19.8987  -51.2964 H         1 UNK         0.1150 
    138 H138        0.3647  -18.8586  -48.6271 H         1 UNK         0.1150 
    139 H139        3.2349  -21.1505  -49.2379 H         1 UNK         0.0800 
    140 H140        2.0638  -20.6799  -48.0450 H         1 UNK         0.0800 
    141 H141       -1.2429  -21.9280  -49.4508 H         1 UNK         0.0800 
    142 H142       -0.4464  -20.9167  -48.3011 H         1 UNK         0.0800 
    143 H143        0.0944  -23.8388  -47.9124 H         1 UNK         0.0600 
    144 H144        0.0003  -21.5565  -46.2049 H         1 UNK         0.3000 
    145 H145        0.2669  -23.4684  -43.1552 H         1 UNK         0.0600 
    146 H146        2.1179  -21.8368  -42.9263 H         1 UNK         0.0600 
    147 H147        2.5341  -23.0784  -44.0978 H         1 UNK         0.0600 
    148 H148        2.0560  -21.4798  -44.6501 H         1 UNK         0.0600 
    149 H149       -0.0788  -20.6741  -43.5776 H         1 UNK         0.3000 
    150 H150       -3.6717  -20.6633  -43.3877 H         1 UNK         0.0600 
    151 H151       -2.8607  -20.6764  -41.0396 H         1 UNK         0.0600 
    152 H152       -3.1207  -19.0284  -41.5932 H         1 UNK         0.0600 
    153 H153       -1.4851  -19.6746  -41.4814 H         1 UNK         0.0600 
    154 H154       -1.8279  -18.5256  -43.7066 H         1 UNK         0.3000 
    155 H155       -1.6011  -18.6145  -47.2727 H         1 UNK         0.0600 
    156 H156       -2.9009  -16.6611  -45.2995 H         1 UNK         0.0600 
    157 H157       -2.3242  -16.2618  -46.9124 H         1 UNK         0.0600 
    158 H158       -3.6730  -17.3624  -46.7082 H         1 UNK         0.0600 
    159 H159       -0.3631  -16.9484  -45.3172 H         1 UNK         0.3000 
    160 H160        2.5446  -18.9958  -44.7936 H         1 UNK         0.0600 
    161 H161        2.9349  -17.7366  -46.9123 H         1 UNK         0.0600 
    162 H162        2.1243  -16.3289  -46.2413 H         1 UNK         0.0600 
    163 H163        3.6325  -16.8979  -45.5323 H         1 UNK         0.0600 
    164 H164        1.6824  -16.4222  -43.8117 H         1 UNK         0.3000 
    165 H165       -0.0975  -17.6328  -40.9695 H         1 UNK         0.0600 
    166 H166        1.5694  -16.3335  -39.6676 H         1 UNK         0.0600 
    167 H167        2.2642  -17.8641  -40.1771 H         1 UNK         0.0600 
    168 H168        2.7034  -16.3822  -41.0185 H         1 UNK         0.0600 
    169 H169        0.7748  -15.0214  -41.7401 H         1 UNK         0.3000 
    170 H170       -1.2702  -14.3904  -44.4210 H         1 UNK         0.0600 
    171 H171       -3.1773  -14.2060  -42.8088 H         1 UNK         0.0600 
    172 H172       -2.1387  -13.3504  -41.6744 H         1 UNK         0.0600 
    173 H173       -2.5328  -12.6303  -43.2363 H         1 UNK         0.0600 
    174 H174       -0.1351  -12.3995  -42.9113 H         1 UNK         0.3000 
    175 H175        2.3660  -12.0547  -42.6294 H         1 UNK         0.0600 
    176 H176        3.6281  -12.9282  -45.2906 H         1 UNK         0.0600 
    177 H177        4.3284  -11.7748  -44.1556 H         1 UNK         0.0600 
    178 H178        4.1379  -13.4588  -43.6907 H         1 UNK         0.0600 
    179 H179        1.1871  -11.5254  -45.2863 H         1 UNK         0.3000 
    180 H180        0.3923   -8.2546  -44.4062 H         1 UNK         0.0600 
    181 H181        2.5577   -8.8070  -46.5077 H         1 UNK         0.0600 
    182 H182        2.6780   -7.6357  -45.2004 H         1 UNK         0.0600 
    183 H183        1.4878   -7.4044  -46.4704 H         1 UNK         0.0600 
    184 H184        0.2933   -9.6636  -46.9183 H         1 UNK         0.3000 
    185 H185       -2.3551  -11.8149  -46.2208 H         1 UNK         0.0600 
    186 H186       -3.6941  -10.6270  -47.9271 H         1 UNK         0.0600 
    187 H187       -3.7147   -9.7210  -46.4232 H         1 UNK         0.0600 
    188 H188       -2.6956   -9.1826  -47.7531 H         1 UNK         0.0600 
    189 H189       -1.4562  -11.1715  -48.7451 H         1 UNK         0.3000 
    190 H190       -2.6745  -22.2817  -46.2922 H         1 UNK         0.3000 
    191 H191       -4.7102  -23.7690  -47.5555 H         1 UNK         0.0600 
    192 H192       -4.6354  -22.6936  -44.6896 H         1 UNK         0.0600 
    193 H193       -6.0746  -23.1586  -45.5824 H         1 UNK         0.0600 
    194 H194       -5.1300  -21.7761  -46.1071 H         1 UNK         0.0600 
    195 H195       -2.5156  -24.6924  -44.9232 H         1 UNK         0.3000 
    196 H196       -3.8804  -27.2320  -44.3997 H         1 UNK         0.0600 
    197 H197       -1.9612  -27.6203  -42.8770 H         1 UNK         0.0600 
    198 H198       -2.6867  -26.0474  -42.5790 H         1 UNK         0.0600 
    199 H199       -1.1667  -26.1637  -43.4602 H         1 UNK         0.0600 
    200 H200       -0.8614  -26.1443  -46.0216 H         1 UNK         0.3000 
    201 H201        0.0337  -28.7762  -46.6242 H         1 UNK         0.0600 
    202 H202        1.5573  -26.8601  -46.2751 H         1 UNK         0.0600 
    203 H203        0.9458  -26.0714  -47.7271 H         1 UNK         0.0600 
    204 H204        1.8365  -27.5828  -47.8522 H         1 UNK         0.0600 
    205 H205       -1.5551  -26.3098  -48.7097 H         1 UNK         0.3000 
    206 H206       -1.6203  -28.2784  -50.9799 H         1 UNK         0.0600 
    207 H207        0.0761  -26.5234  -51.3466 H         1 UNK         0.0600 
    208 H208       -1.2809  -26.2584  -52.4308 H         1 UNK         0.0600 
    209 H209       -1.0990  -25.2628  -50.9889 H         1 UNK         0.0600 
    210 H210       -3.3903  -25.9202  -49.1079 H         1 UNK         0.3000 
    211 H211       -5.5186  -25.4380  -48.8445 H         1 UNK         0.0600 
    212 H212       -6.2884  -27.6038  -50.8561 H         1 UNK         0.0600 
    213 H213       -7.3637  -26.7648  -49.7516 H         1 UNK         0.0600 
    214 H214       -6.1134  -27.8210  -49.1150 H         1 UNK         0.0600 
    215 H215       -5.0009  -25.9791  -52.3419 H         1 UNK         0.3000 
    216 H216       -6.7809  -23.9113  -53.2071 H         1 UNK         0.0600 
    217 H217       -5.7625  -24.3774  -55.4452 H         1 UNK         0.0600 
    218 H218       -6.1806  -25.8656  -54.6111 H         1 UNK         0.0600 
    219 H219       -4.4998  -25.3361  -54.6804 H         1 UNK         0.0600 
    220 H220       -3.4300  -23.8107  -52.2303 H         1 UNK         0.3000 
    221 H221       -2.7913  -21.2958  -53.5605 H         1 UNK         0.0600 
    222 H222       -1.2633  -23.0228  -51.5478 H         1 UNK         0.0600 
    223 H223       -1.0690  -23.0361  -53.2988 H         1 UNK         0.0600 
    224 H224       -0.5953  -21.6234  -52.3725 H         1 UNK         0.0600 
    225 H225       -4.6053  -21.9212  -50.8223 H         1 UNK         0.3000 
    226 H226       -3.7107  -20.1830  -48.8260 H         1 UNK         0.0600 
    227 H227       -5.4799  -21.8997  -48.5299 H         1 UNK         0.0600 
    228 H228       -6.0579  -20.3237  -48.0131 H         1 UNK         0.0600 
    229 H229       -6.5752  -20.9923  -49.5581 H         1 UNK         0.0600 
    230 H230       -3.1941  -18.1292  -49.1540 H         1 UNK         0.3000 
    231 H231       -3.1773  -15.9755  -49.6252 H         1 UNK         0.0600 
    232 H232       -5.2303  -14.6587  -49.5508 H         1 UNK         0.0600 
    233 H233       -5.3107  -15.9172  -48.3311 H         1 UNK         0.0600 
    234 H234       -6.2222  -16.0834  -49.8325 H         1 UNK         0.0600 
    235 H235       -2.9145  -17.9230  -51.8277 H         1 UNK         0.3000 
    236 H236       -3.4466  -16.1168  -54.1432 H         1 UNK         0.0600 
    237 H237       -5.3533  -17.7012  -53.9857 H         1 UNK         0.0600 
    238 H238       -4.3654  -18.0756  -55.3902 H         1 UNK         0.0600 
    239 H239       -4.2446  -19.0699  -53.9436 H         1 UNK         0.0600 
    240 H240       -1.4761  -18.7168  -52.7428 H         1 UNK         0.3000 
    241 H241        0.4924  -19.5170  -53.2104 H         1 UNK         0.0600 
    242 H242        0.6972  -21.6070  -56.2394 H         1 UNK         0.3800 
    243 H243        1.8015  -20.6444  -55.2899 H         1 UNK         0.3800 
    244 H244        1.0546  -17.7751  -55.6504 H         1 UNK         0.0800 
    245 H245        1.0952  -17.0567  -54.0759 H         1 UNK         0.0800 
    246 H246        4.4879  -17.9348  -52.6769 H         1 UNK         0.0800 
    247 H247        3.4234  -16.6195  -53.1051 H         1 UNK         0.0800 
@<TRIPOS>BOND
     1    1    2 1    
     2    1  127 1    
     3    1  128 1    
     4    1  129 1    
     5    2    3 2    
     6    2    4 am   BACKBONE|DICT|INTERRES
     7    4    5 1    
     8    4  130 1    
     9    5    6 1    
    10    5   65 1    
    11    5  131 1    
    12    6    7 1    
    13    6  132 1    
    14    6  133 1    
    15    7    8 1    
    16    8    9 1    
    17    8  134 1    
    18    8  135 1    
    19    9   10 ar   
    20    9   14 ar   
    21   10   11 ar   
    22   10  136 1    
    23   11   12 ar   
    24   11  126 1    
    25   12   13 ar   
    26   12  137 1    
    27   13   14 ar   
    28   13   15 1    
    29   14  138 1    
    30   15   16 1    
    31   15  139 1    
    32   15  140 1    
    33   16   17 1    
    34   17   18 1    
    35   17  141 1    
    36   17  142 1    
    37   18   19 1    
    38   18   67 1    
    39   18  143 1    
    40   19   20 am   BACKBONE|DICT|INTERRES
    41   19  144 1    
    42   20   21 2    
    43   20   22 1    
    44   22   23 1    
    45   22   24 1    
    46   22  145 1    
    47   23  146 1    
    48   23  147 1    
    49   23  148 1    
    50   24   25 am   BACKBONE|DICT|INTERRES
    51   24  149 1    
    52   25   26 2    
    53   25   27 1    
    54   27   28 1    
    55   27   29 1    
    56   27  150 1    
    57   28  151 1    
    58   28  152 1    
    59   28  153 1    
    60   29   30 am   BACKBONE|DICT|INTERRES
    61   29  154 1    
    62   30   31 2    
    63   30   32 1    
    64   32   33 1    
    65   32   34 1    
    66   32  155 1    
    67   33  156 1    
    68   33  157 1    
    69   33  158 1    
    70   34   35 am   BACKBONE|DICT|INTERRES
    71   34  159 1    
    72   35   36 2    
    73   35   37 1    
    74   37   38 1    
    75   37   39 1    
    76   37  160 1    
    77   38  161 1    
    78   38  162 1    
    79   38  163 1    
    80   39   40 am   BACKBONE|DICT|INTERRES
    81   39  164 1    
    82   40   41 2    
    83   40   42 1    
    84   42   43 1    
    85   42   44 1    
    86   42  165 1    
    87   43  166 1    
    88   43  167 1    
    89   43  168 1    
    90   44   45 am   BACKBONE|DICT|INTERRES
    91   44  169 1    
    92   45   46 2    
    93   45   47 1    
    94   47   48 1    
    95   47   49 1    
    96   47  170 1    
    97   48  171 1    
    98   48  172 1    
    99   48  173 1    
   100   49   50 am   BACKBONE|DICT|INTERRES
   101   49  174 1    
   102   50   51 2    
   103   50   52 1    
   104   52   53 1    
   105   52   54 1    
   106   52  175 1    
   107   53  176 1    
   108   53  177 1    
   109   53  178 1    
   110   54   55 am   BACKBONE|DICT|INTERRES
   111   54  179 1    
   112   55   56 2    
   113   55   57 1    
   114   57   58 1    
   115   57   59 1    
   116   57  180 1    
   117   58  181 1    
   118   58  182 1    
   119   58  183 1    
   120   59   60 am   BACKBONE|DICT|INTERRES
   121   59  184 1    
   122   60   61 2    
   123   60   62 1    
   124   62   63 1    
   125   62   64 1    
   126   62  185 1    
   127   63  186 1    
   128   63  187 1    
   129   63  188 1    
   130   64   65 am   BACKBONE|DICT|INTERRES
   131   64  189 1    
   132   65   66 2    
   133   67   68 2    
   134   67   69 am   BACKBONE|DICT|INTERRES
   135   69   70 1    
   136   69  190 1    
   137   70   71 1    
   138   70   72 1    
   139   70  191 1    
   140   71  192 1    
   141   71  193 1    
   142   71  194 1    
   143   72   73 2    
   144   72   74 am   BACKBONE|DICT|INTERRES
   145   74   75 1    
   146   74  195 1    
   147   75   76 1    
   148   75   77 1    
   149   75  196 1    
   150   76  197 1    
   151   76  198 1    
   152   76  199 1    
   153   77   78 2    
   154   77   79 am   BACKBONE|DICT|INTERRES
   155   79   80 1    
   156   79  200 1    
   157   80   81 1    
   158   80   82 1    
   159   80  201 1    
   160   81  202 1    
   161   81  203 1    
   162   81  204 1    
   163   82   83 2    
   164   82   84 am   BACKBONE|DICT|INTERRES
   165   84   85 1    
   166   84  205 1    
   167   85   86 1    
   168   85   87 1    
   169   85  206 1    
   170   86  207 1    
   171   86  208 1    
   172   86  209 1    
   173   87   88 2    
   174   87   89 am   BACKBONE|DICT|INTERRES
   175   89   90 1    
   176   89  210 1    
   177   90   91 1    
   178   90   92 1    
   179   90  211 1    
   180   91  212 1    
   181   91  213 1    
   182   91  214 1    
   183   92   93 2    
   184   92   94 am   BACKBONE|DICT|INTERRES
   185   94   95 1    
   186   94  215 1    
   187   95   96 1    
   188   95   97 1    
   189   95  216 1    
   190   96  217 1    
   191   96  218 1    
   192   96  219 1    
   193   97   98 2    
   194   97   99 am   BACKBONE|DICT|INTERRES
   195   99  100 1    
   196   99  220 1    
   197  100  101 1    
   198  100  102 1    
   199  100  221 1    
   200  101  222 1    
   201  101  223 1    
   202  101  224 1    
   203  102  103 2    
   204  102  104 am   BACKBONE|DICT|INTERRES
   205  104  105 1    
   206  104  225 1    
   207  105  106 1    
   208  105  107 1    
   209  105  226 1    
   210  106  227 1    
   211  106  228 1    
   212  106  229 1    
   213  107  108 2    
   214  107  109 am   BACKBONE|DICT|INTERRES
   215  109  110 1    
   216  109  230 1    
   217  110  111 1    
   218  110  112 1    
   219  110  231 1    
   220  111  232 1    
   221  111  233 1    
   222  111  234 1    
   223  112  113 2    
   224  112  114 am   BACKBONE|DICT|INTERRES
   225  114  115 1    
   226  114  235 1    
   227  115  116 1    
   228  115  117 1    
   229  115  236 1    
   230  116  237 1    
   231  116  238 1    
   232  116  239 1    
   233  117  118 2    
   234  117  119 am   BACKBONE|DICT|INTERRES
   235  119  120 1    
   236  119  240 1    
   237  120  121 1    
   238  120  124 1    
   239  120  241 1    
   240  121  122 am   BACKBONE|DICT|INTERRES
   241  121  123 2    
   242  122  242 1    
   243  122  243 1    
   244  124  125 1    
   245  124  244 1    
   246  124  245 1    
   247  125  126 1    
   248  126  246 1    
   249  126  247 1    
@<TRIPOS>SUBSTRUCTURE
     1 UNK         1 GROUP             0       ****    0 ROOT    
