@<TRIPOS>MOLECULE
3R540
247   249    1
SMALL
USER_CHARGES


@<TRIPOS>ATOM
      1 CA          1.6964  -11.9101  -48.7955 C.3       0 UNK        -0.1800 
      2 C           0.9294  -12.6283  -47.6955 C.2       0 UNK         0.5000 
      3 O           1.3354  -12.5835  -46.5355 O.2       0 UNK        -0.5000 
      4 N          -0.1925  -13.2707  -48.0477 N.am      1 UNK        -0.5000 
      5 CA         -1.0344  -14.0917  -47.1604 C.3       1 UNK         0.1400 
      6 C6         -2.1271  -14.8672  -47.9386 C.3       23 UNK        -0.0398 
      7 S7         -1.4847  -15.7734  -49.3848 S.3       23 UNK        -0.2404 
      8 C8         -1.1271  -17.4016  -48.6628 C.3       23 UNK        -0.0205 
      9 C9         -0.5548  -18.3353  -49.7156 C.ar      23 UNK        -0.0193 
     10 C10        -1.3995  -18.9494  -50.6449 C.ar      23 UNK        -0.1150 
     11 C11        -0.8802  -19.7655  -51.6550 C.ar      23 UNK        -0.0193 
     12 C12         0.5035  -19.9762  -51.7130 C.ar      23 UNK        -0.1150 
     13 C13         1.3588  -19.3784  -50.7818 C.ar      23 UNK        -0.0193 
     14 C14         0.8223  -18.5557  -49.7871 C.ar      23 UNK        -0.1150 
     15 C15         2.8653  -19.5902  -50.8820 C.3       23 UNK        -0.0205 
     16 S16         3.6007  -20.2367  -49.3456 S.3       23 UNK        -0.2404 
     17 C17         2.6251  -21.7574  -49.1029 C.3       23 UNK        -0.0398 
     18 CA          3.3376  -22.7902  -48.1958 C.3       11 UNK         0.1400 
     19 N           3.6252  -22.2269  -46.8727 N.am      11 UNK        -0.5000 
     20 C           4.7288  -22.4596  -46.1528 C.2       10 UNK         0.5000 
     21 O           5.6660  -23.1575  -46.5412 O.2       10 UNK        -0.5000 
     22 CA          4.7872  -21.8232  -44.7482 C.3       10 UNK         0.1400 
     23 CB          5.4995  -20.4635  -44.8113 C.3       10 UNK        -0.1800 
     24 N           3.4720  -21.6467  -44.1239 N.am      10 UNK        -0.5000 
     25 C           2.6241  -22.6410  -43.8226 C.2       9 UNK         0.5000 
     26 O           2.8818  -23.8320  -43.9934 O.2       9 UNK        -0.5000 
     27 CA          1.2274  -22.2458  -43.3111 C.3       9 UNK         0.1400 
     28 CB          1.2320  -22.1108  -41.7825 C.3       9 UNK        -0.1800 
     29 N           0.7041  -21.0173  -43.9127 N.am      9 UNK        -0.5000 
     30 C           0.4767  -20.8326  -45.2215 C.2       8 UNK         0.5000 
     31 O           0.7371  -21.6699  -46.0857 O.2       8 UNK        -0.5000 
     32 CA         -0.1041  -19.4731  -45.6372 C.3       8 UNK         0.1400 
     33 CB         -1.6050  -19.3932  -45.3266 C.3       8 UNK        -0.1800 
     34 N           0.5912  -18.3779  -44.9674 N.am      8 UNK        -0.5000 
     35 C           1.7649  -17.8761  -45.3733 C.2       7 UNK         0.5000 
     36 O           2.3331  -18.2172  -46.4095 O.2       7 UNK        -0.5000 
     37 CA          2.4294  -16.8329  -44.4565 C.3       7 UNK         0.1400 
     38 CB          1.9907  -15.4143  -44.8446 C.3       7 UNK        -0.1800 
     39 N           2.1514  -17.0547  -43.0364 N.am      7 UNK        -0.5000 
     40 C           2.6046  -18.1039  -42.3337 C.2       6 UNK         0.5000 
     41 O           3.3050  -18.9953  -42.8127 O.2       6 UNK        -0.5000 
     42 CA          2.1678  -18.2020  -40.8594 C.3       6 UNK         0.1400 
     43 CB          3.1269  -17.4038  -39.9638 C.3       6 UNK        -0.1800 
     44 N           0.7998  -17.7430  -40.6198 N.am      6 UNK        -0.5000 
     45 C          -0.3051  -18.2057  -41.2230 C.2       5 UNK         0.5000 
     46 O          -0.3048  -19.1273  -42.0382 O.2       5 UNK        -0.5000 
     47 CA         -1.6268  -17.4813  -40.9007 C.3       5 UNK         0.1400 
     48 CB         -2.4146  -18.2542  -39.8331 C.3       5 UNK        -0.1800 
     49 N          -1.4425  -16.0943  -40.4573 N.am      5 UNK        -0.5000 
     50 C          -0.8940  -15.1221  -41.2000 C.2       4 UNK         0.5000 
     51 O          -0.5120  -15.2996  -42.3586 O.2       4 UNK        -0.5000 
     52 CA         -0.7441  -13.7503  -40.5086 C.3       4 UNK         0.1400 
     53 CB          0.1265  -13.8434  -39.2366 C.3       4 UNK        -0.1800 
     54 N          -0.2491  -12.6967  -41.4005 N.am      4 UNK        -0.5000 
     55 C           0.9462  -12.5939  -41.9990 C.2       3 UNK         0.5000 
     56 O           1.8796  -13.3792  -41.8196 O.2       3 UNK        -0.5000 
     57 CA          1.1094  -11.3967  -42.9629 C.3       3 UNK         0.1400 
     58 CB          2.4980  -11.3477  -43.6254 C.3       3 UNK        -0.1800 
     59 N           0.0814  -11.3800  -44.0091 N.am      3 UNK        -0.5000 
     60 C          -1.1856  -10.9665  -43.8474 C.2       2 UNK         0.5000 
     61 O          -1.6223  -10.5448  -42.7752 O.2       2 UNK        -0.5000 
     62 CA         -2.1362  -11.0397  -45.0600 C.3       2 UNK         0.1400 
     63 CB         -2.3171   -9.6473  -45.6835 C.3       2 UNK        -0.1800 
     64 N          -1.6870  -11.9644  -46.0986 N.am      2 UNK        -0.5000 
     65 C          -1.6795  -13.3008  -45.9980 C.2       1 UNK         0.5000 
     66 O          -2.1555  -13.9106  -45.0414 O.2       1 UNK        -0.5000 
     67 C           2.4730  -24.0660  -48.0886 C.2       11 UNK         0.5000 
     68 O           2.2309  -24.7107  -49.1095 O.2       11 UNK        -0.5000 
     69 N           1.9870  -24.3795  -46.8761 N.am      12 UNK        -0.5000 
     70 CA          0.9527  -25.3674  -46.5506 C.3       12 UNK         0.1400 
     71 CB          1.4556  -26.8020  -46.8126 C.3       12 UNK        -0.1800 
     72 C          -0.3983  -25.0588  -47.2365 C.2       12 UNK         0.5000 
     73 O          -1.1380  -25.9798  -47.5880 O.2       12 UNK        -0.5000 
     74 N          -0.6869  -23.7650  -47.4307 N.am      13 UNK        -0.5000 
     75 CA         -1.8882  -23.2695  -48.0919 C.3       13 UNK         0.1400 
     76 CB         -1.6059  -21.8687  -48.6566 C.3       13 UNK        -0.1800 
     77 C          -3.0830  -23.2294  -47.1266 C.2       13 UNK         0.5000 
     78 O          -2.9100  -22.9778  -45.9304 O.2       13 UNK        -0.5000 
     79 N          -4.2848  -23.4319  -47.6751 N.am      14 UNK        -0.5000 
     80 CA         -5.5693  -23.3384  -46.9838 C.3       14 UNK         0.1400 
     81 CB         -6.6072  -24.1608  -47.7683 C.3       14 UNK        -0.1800 
     82 C          -5.9871  -21.8643  -46.8086 C.2       14 UNK         0.5000 
     83 O          -6.9447  -21.4111  -47.4384 O.2       14 UNK        -0.5000 
     84 N          -5.2253  -21.1399  -45.9770 N.am      15 UNK        -0.5000 
     85 CA         -5.2741  -19.6895  -45.7703 C.3       15 UNK         0.1400 
     86 CB         -6.6175  -19.2561  -45.1409 C.3       15 UNK        -0.1800 
     87 C          -4.9035  -18.9333  -47.0652 C.2       15 UNK         0.5000 
     88 O          -4.0454  -19.4050  -47.8150 O.2       15 UNK        -0.5000 
     89 N          -5.5377  -17.7814  -47.3189 N.am      16 UNK        -0.5000 
     90 CA         -5.3466  -16.9457  -48.5083 C.3       16 UNK         0.1400 
     91 CB         -5.8049  -15.5126  -48.1832 C.3       16 UNK        -0.1800 
     92 C          -6.0419  -17.5313  -49.7582 C.2       16 UNK         0.5000 
     93 O          -6.8763  -16.8695  -50.3791 O.2       16 UNK        -0.5000 
     94 N          -5.6988  -18.7805  -50.0858 N.am      17 UNK        -0.5000 
     95 CA         -6.1652  -19.5211  -51.2540 C.3       17 UNK         0.1400 
     96 CB         -5.8156  -21.0023  -51.0481 C.3       17 UNK        -0.1800 
     97 C          -5.5552  -18.9857  -52.5647 C.2       17 UNK         0.5000 
     98 O          -4.5205  -18.3144  -52.5418 O.2       17 UNK        -0.5000 
     99 N          -6.2043  -19.3076  -53.6903 N.am      18 UNK        -0.5000 
    100 CA        -5.7484  -18.9621  -55.0371 C.3       18 UNK         0.1400 
    101 CB        -6.8839  -19.2392  -56.0347 C.3       18 UNK        -0.1800 
    102 C         -4.4898  -19.7540  -55.4337 C.2       18 UNK         0.5000 
    103 O         -4.3797  -20.9325  -55.0947 O.2       18 UNK        -0.5000 
    104 N         -3.5923  -19.1101  -56.1915 N.am      19 UNK        -0.5000 
    105 CA        -2.3079  -19.6607  -56.6444 C.3       19 UNK         0.1400 
    106 CB        -1.5171  -18.5505  -57.3533 C.3       19 UNK        -0.1800 
    107 C         -2.4157  -20.9060  -57.5483 C.2       19 UNK         0.5000 
    108 O         -1.4505  -21.6635  -57.6532 O.2       19 UNK        -0.5000 
    109 N         -3.5791  -21.0964  -58.1837 N.am      20 UNK        -0.5000 
    110 CA        -3.8896  -22.2451  -59.0326 C.3       20 UNK         0.1400 
    111 CB        -5.1501  -21.9262  -59.8517 C.3       20 UNK        -0.1800 
    112 C         -4.0783  -23.5614  -58.2513 C.2       20 UNK         0.5000 
    113 O         -3.8832  -24.6298  -58.8329 O.2       20 UNK        -0.5000 
    114 N         -4.4618  -23.4764  -56.9702 N.am      21 UNK        -0.5000 
    115 CA        -4.7637  -24.6181  -56.1113 C.3       21 UNK         0.1400 
    116 CB        -6.0932  -25.2793  -56.5357 C.3       21 UNK        -0.1800 
    117 C         -4.7957  -24.1353  -54.6557 C.2       21 UNK         0.5000 
    118 O         -5.8720  -23.8451  -54.1292 O.2       21 UNK        -0.5000 
    119 N         -3.6099  -24.0181  -54.0450 N.am      22 UNK        -0.5000 
    120 CA        -3.4395  -23.5057  -52.6736 C.3       22 UNK         0.1400 
    121 C         -4.0034  -24.4226  -51.5498 C.2       22 UNK         0.5000 
    122 N         -4.2485  -25.7041  -51.7922 N.am      22 UNK        -0.7600 
    123 O         -4.2277  -23.9567  -50.4378 O.2       22 UNK        -0.5000 
    124 C124       -1.9729  -23.1117  -52.3590 C.3       23 UNK        -0.0398 
    125 S125       -1.3076  -21.8741  -53.5184 S.3       23 UNK        -0.2404 
    126 C126       -1.8316  -20.3188  -52.7148 C.3       23 UNK        -0.0205 
    127 H127        1.7646  -10.8457  -48.5712 H         1 UNK         0.0600 
    128 H128        1.2145  -12.0242  -49.7668 H         1 UNK         0.0600 
    129 H129        2.7077  -12.3100  -48.8679 H         1 UNK         0.0600 
    130 H130       -0.4701  -13.2748  -49.0194 H         1 UNK         0.3000 
    131 H131       -0.3748  -14.8300  -46.7010 H         1 UNK         0.0600 
    132 H132       -2.6410  -15.5694  -47.2793 H         1 UNK         0.0800 
    133 H133       -2.8921  -14.1789  -48.3028 H         1 UNK         0.0800 
    134 H134       -0.4254  -17.2799  -47.8364 H         1 UNK         0.0800 
    135 H135       -2.0351  -17.8318  -48.2427 H         1 UNK         0.0800 
    136 H136       -2.4632  -18.7587  -50.6016 H         1 UNK         0.1150 
    137 H137        0.9241  -20.5844  -52.5004 H         1 UNK         0.1150 
    138 H138        1.4817  -18.0784  -49.0752 H         1 UNK         0.1150 
    139 H139        3.1088  -20.2705  -51.6996 H         1 UNK         0.0800 
    140 H140        3.3383  -18.6377  -51.1242 H         1 UNK         0.0800 
    141 H141        1.6582  -21.4749  -48.6822 H         1 UNK         0.0800 
    142 H142        2.4191  -22.1903  -50.0838 H         1 UNK         0.0800 
    143 H143        4.2712  -23.0785  -48.6833 H         1 UNK         0.0600 
    144 H144        2.8936  -21.6507  -46.4752 H         1 UNK         0.3000 
    145 H145        5.3723  -22.4886  -44.1104 H         1 UNK         0.0600 
    146 H146        5.6573  -20.0549  -43.8131 H         1 UNK         0.0600 
    147 H147        4.9230  -19.7358  -45.3845 H         1 UNK         0.0600 
    148 H148        6.4791  -20.5539  -45.2825 H         1 UNK         0.0600 
    149 H149        3.2073  -20.6942  -43.8915 H         1 UNK         0.3000 
    150 H150        0.5405  -23.0516  -43.5780 H         1 UNK         0.0600 
    151 H151        1.5377  -23.0450  -41.3098 H         1 UNK         0.0600 
    152 H152        0.2410  -21.8622  -41.4023 H         1 UNK         0.0600 
    153 H153        1.9240  -21.3368  -41.4540 H         1 UNK         0.0600 
    154 H154        0.4306  -20.2826  -43.2638 H         1 UNK         0.3000 
    155 H155        0.0230  -19.3770  -46.7173 H         1 UNK         0.0600 
    156 H156       -2.1455  -20.2034  -45.8163 H         1 UNK         0.0600 
    157 H157       -2.0296  -18.4550  -45.6837 H         1 UNK         0.0600 
    158 H158       -1.8066  -19.4673  -44.2579 H         1 UNK         0.0600 
    159 H159        0.2183  -18.0760  -44.0778 H         1 UNK         0.3000 
    160 H160        3.5089  -16.9068  -44.6043 H         1 UNK         0.0600 
    161 H161        0.9257  -15.2580  -44.6711 H         1 UNK         0.0600 
    162 H162        2.1857  -15.2177  -45.8996 H         1 UNK         0.0600 
    163 H163        2.5340  -14.6652  -44.2698 H         1 UNK         0.0600 
    164 H164        1.5490  -16.3786  -42.5826 H         1 UNK         0.3000 
    165 H165        2.2203  -19.2498  -40.5628 H         1 UNK         0.0600 
    166 H166        2.8851  -17.5360  -38.9090 H         1 UNK         0.0600 
    167 H167        4.1573  -17.7337  -40.1035 H         1 UNK         0.0600 
    168 H168        3.0904  -16.3363  -40.1863 H         1 UNK         0.0600 
    169 H169        0.6923  -16.9785  -39.9706 H         1 UNK         0.3000 
    170 H170       -2.2185  -17.4634  -41.8183 H         1 UNK         0.0600 
    171 H171       -2.5879  -19.2849  -40.1458 H         1 UNK         0.0600 
    172 H172       -1.8810  -18.2850  -38.8823 H         1 UNK         0.0600 
    173 H173       -3.3906  -17.8015  -39.6573 H         1 UNK         0.0600 
    174 H174       -1.7457  -15.8815  -39.5178 H         1 UNK         0.3000 
    175 H175       -1.7461  -13.4385  -40.2105 H         1 UNK         0.0600 
    176 H176        1.1111  -14.2631  -39.4454 H         1 UNK         0.0600 
    177 H177        0.2715  -12.8613  -38.7864 H         1 UNK         0.0600 
    178 H178       -0.3407  -14.4741  -38.4800 H         1 UNK         0.0600 
    179 H179       -0.9355  -11.9960  -41.6634 H         1 UNK         0.3000 
    180 H180        1.0069  -10.4907  -42.3620 H         1 UNK         0.0600 
    181 H181        3.2874  -11.2846  -42.8756 H         1 UNK         0.0600 
    182 H182        2.5957  -10.4767  -44.2736 H         1 UNK         0.0600 
    183 H183        2.6884  -12.2354  -44.2285 H         1 UNK         0.0600 
    184 H184        0.3624  -11.7586  -44.9079 H         1 UNK         0.3000 
    185 H185       -3.1073  -11.3804  -44.6950 H         1 UNK         0.0600 
    186 H186       -2.6831   -8.9325  -44.9451 H         1 UNK         0.0600 
    187 H187       -1.3778   -9.2585  -46.0790 H         1 UNK         0.0600 
    188 H188       -3.0416   -9.6701  -46.4978 H         1 UNK         0.0600 
    189 H189       -1.2733  -11.5527  -46.9224 H         1 UNK         0.3000 
    190 H190        2.2822  -23.8044  -46.0976 H         1 UNK         0.3000 
    191 H191        0.7734  -25.2730  -45.4787 H         1 UNK         0.0600 
    192 H192        0.7483  -27.5392  -46.4313 H         1 UNK         0.0600 
    193 H193        2.4089  -26.9815  -46.3156 H         1 UNK         0.0600 
    194 H194        1.5889  -26.9985  -47.8767 H         1 UNK         0.0600 
    195 H195       -0.0723  -23.0601  -47.0315 H         1 UNK         0.3000 
    196 H196       -2.1213  -23.9359  -48.9237 H         1 UNK         0.0600 
    197 H197       -1.3790  -21.1511  -47.8696 H         1 UNK         0.0600 
    198 H198       -0.7625  -21.8803  -49.3468 H         1 UNK         0.0600 
    199 H199       -2.4699  -21.4863  -49.2020 H         1 UNK         0.0600 
    200 H200       -4.3327  -23.6020  -48.6797 H         1 UNK         0.3000 
    201 H201       -5.4745  -23.7792  -45.9892 H         1 UNK         0.0600 
    202 H202       -7.5837  -24.1239  -47.2840 H         1 UNK         0.0600 
    203 H203       -6.3135  -25.2088  -47.8294 H         1 UNK         0.0600 
    204 H204       -6.7285  -23.7895  -48.7871 H         1 UNK         0.0600 
    205 H205       -4.4136  -21.6093  -45.5893 H         1 UNK         0.3000 
    206 H206       -4.4892  -19.4610  -45.0492 H         1 UNK         0.0600 
    207 H207       -6.8532  -19.8654  -44.2683 H         1 UNK         0.0600 
    208 H208       -6.5798  -18.2203  -44.8022 H         1 UNK         0.0600 
    209 H209       -7.4487  -19.3467  -45.8410 H         1 UNK         0.0600 
    210 H210       -6.2567  -17.4806  -46.6774 H         1 UNK         0.3000 
    211 H211       -4.2806  -16.9052  -48.7367 H         1 UNK         0.0600 
    212 H212       -6.8710  -15.4725  -47.9567 H         1 UNK         0.0600 
    213 H213       -5.6207  -14.8434  -49.0247 H         1 UNK         0.0600 
    214 H214       -5.2652  -15.1094  -47.3262 H         1 UNK         0.0600 
    215 H215       -5.0097  -19.2399  -49.4986 H         1 UNK         0.3000 
    216 H216       -7.2509  -19.4218  -51.3146 H         1 UNK         0.0600 
    217 H217       -6.3286  -21.4102  -50.1770 H         1 UNK         0.0600 
    218 H218       -4.7455  -21.1417  -50.8933 H         1 UNK         0.0600 
    219 H219       -6.1122  -21.6054  -51.9072 H         1 UNK         0.0600 
    220 H220       -7.0195  -19.9002  -53.6346 H         1 UNK         0.3000 
    221 H221       -5.5177  -17.8948  -55.0572 H         1 UNK         0.0600 
    222 H222       -7.7761  -18.6637  -55.7873 H         1 UNK         0.0600 
    223 H223       -6.5915  -18.9625  -57.0484 H         1 UNK         0.0600 
    224 H224       -7.1582  -20.2951  -56.0492 H         1 UNK         0.0600 
    225 H225       -3.7733  -18.1496  -56.4454 H         1 UNK         0.3000 
    226 H226       -1.7441  -19.9617  -55.7618 H         1 UNK         0.0600 
    227 H227       -1.3412  -17.7047  -56.6884 H         1 UNK         0.0600 
    228 H228       -0.5409  -18.9120  -57.6797 H         1 UNK         0.0600 
    229 H229       -2.0429  -18.1832  -58.2354 H         1 UNK         0.0600 
    230 H230       -4.3143  -20.4196  -58.0450 H         1 UNK         0.3000 
    231 H231       -3.0597  -22.3911  -59.7273 H         1 UNK         0.0600 
    232 H232       -5.4000  -22.7503  -60.5214 H         1 UNK         0.0600 
    233 H233       -5.0060  -21.0398  -60.4698 H         1 UNK         0.0600 
    234 H234       -6.0141  -21.7522  -59.2090 H         1 UNK         0.0600 
    235 H235       -4.5419  -22.5657  -56.5285 H         1 UNK         0.3000 
    236 H236       -3.9647  -25.3569  -56.2023 H         1 UNK         0.0600 
    237 H237       -6.9129  -24.5599  -56.5518 H         1 UNK         0.0600 
    238 H238       -6.0216  -25.7246  -57.5277 H         1 UNK         0.0600 
    239 H239       -6.3689  -26.0777  -55.8458 H         1 UNK         0.0600 
    240 H240       -2.7640  -24.2314  -54.5525 H         1 UNK         0.3000 
    241 H241       -4.0271  -22.5891  -52.6246 H         1 UNK         0.0600 
    242 H242       -4.0742  -26.0995  -52.7017 H         1 UNK         0.3800 
    243 H243       -4.6203  -26.2831  -51.0564 H         1 UNK         0.3800 
    244 H244       -1.3288  -23.9916  -52.3927 H         1 UNK         0.0800 
    245 H245       -1.8863  -22.7125  -51.3486 H         1 UNK         0.0800 
    246 H246       -2.8242  -20.4636  -52.2887 H         1 UNK         0.0800 
    247 H247       -1.9463  -19.5531  -53.4814 H         1 UNK         0.0800 
@<TRIPOS>BOND
     1    1    2 1    
     2    1  127 1    
     3    1  128 1    
     4    1  129 1    
     5    2    3 2    
     6    2    4 am   BACKBONE|DICT|INTERRES
     7    4    5 1    
     8    4  130 1    
     9    5    6 1    
    10    5   65 1    
    11    5  131 1    
    12    6    7 1    
    13    6  132 1    
    14    6  133 1    
    15    7    8 1    
    16    8    9 1    
    17    8  134 1    
    18    8  135 1    
    19    9   10 ar   
    20    9   14 ar   
    21   10   11 ar   
    22   10  136 1    
    23   11   12 ar   
    24   11  126 1    
    25   12   13 ar   
    26   12  137 1    
    27   13   14 ar   
    28   13   15 1    
    29   14  138 1    
    30   15   16 1    
    31   15  139 1    
    32   15  140 1    
    33   16   17 1    
    34   17   18 1    
    35   17  141 1    
    36   17  142 1    
    37   18   19 1    
    38   18   67 1    
    39   18  143 1    
    40   19   20 am   BACKBONE|DICT|INTERRES
    41   19  144 1    
    42   20   21 2    
    43   20   22 1    
    44   22   23 1    
    45   22   24 1    
    46   22  145 1    
    47   23  146 1    
    48   23  147 1    
    49   23  148 1    
    50   24   25 am   BACKBONE|DICT|INTERRES
    51   24  149 1    
    52   25   26 2    
    53   25   27 1    
    54   27   28 1    
    55   27   29 1    
    56   27  150 1    
    57   28  151 1    
    58   28  152 1    
    59   28  153 1    
    60   29   30 am   BACKBONE|DICT|INTERRES
    61   29  154 1    
    62   30   31 2    
    63   30   32 1    
    64   32   33 1    
    65   32   34 1    
    66   32  155 1    
    67   33  156 1    
    68   33  157 1    
    69   33  158 1    
    70   34   35 am   BACKBONE|DICT|INTERRES
    71   34  159 1    
    72   35   36 2    
    73   35   37 1    
    74   37   38 1    
    75   37   39 1    
    76   37  160 1    
    77   38  161 1    
    78   38  162 1    
    79   38  163 1    
    80   39   40 am   BACKBONE|DICT|INTERRES
    81   39  164 1    
    82   40   41 2    
    83   40   42 1    
    84   42   43 1    
    85   42   44 1    
    86   42  165 1    
    87   43  166 1    
    88   43  167 1    
    89   43  168 1    
    90   44   45 am   BACKBONE|DICT|INTERRES
    91   44  169 1    
    92   45   46 2    
    93   45   47 1    
    94   47   48 1    
    95   47   49 1    
    96   47  170 1    
    97   48  171 1    
    98   48  172 1    
    99   48  173 1    
   100   49   50 am   BACKBONE|DICT|INTERRES
   101   49  174 1    
   102   50   51 2    
   103   50   52 1    
   104   52   53 1    
   105   52   54 1    
   106   52  175 1    
   107   53  176 1    
   108   53  177 1    
   109   53  178 1    
   110   54   55 am   BACKBONE|DICT|INTERRES
   111   54  179 1    
   112   55   56 2    
   113   55   57 1    
   114   57   58 1    
   115   57   59 1    
   116   57  180 1    
   117   58  181 1    
   118   58  182 1    
   119   58  183 1    
   120   59   60 am   BACKBONE|DICT|INTERRES
   121   59  184 1    
   122   60   61 2    
   123   60   62 1    
   124   62   63 1    
   125   62   64 1    
   126   62  185 1    
   127   63  186 1    
   128   63  187 1    
   129   63  188 1    
   130   64   65 am   BACKBONE|DICT|INTERRES
   131   64  189 1    
   132   65   66 2    
   133   67   68 2    
   134   67   69 am   BACKBONE|DICT|INTERRES
   135   69   70 1    
   136   69  190 1    
   137   70   71 1    
   138   70   72 1    
   139   70  191 1    
   140   71  192 1    
   141   71  193 1    
   142   71  194 1    
   143   72   73 2    
   144   72   74 am   BACKBONE|DICT|INTERRES
   145   74   75 1    
   146   74  195 1    
   147   75   76 1    
   148   75   77 1    
   149   75  196 1    
   150   76  197 1    
   151   76  198 1    
   152   76  199 1    
   153   77   78 2    
   154   77   79 am   BACKBONE|DICT|INTERRES
   155   79   80 1    
   156   79  200 1    
   157   80   81 1    
   158   80   82 1    
   159   80  201 1    
   160   81  202 1    
   161   81  203 1    
   162   81  204 1    
   163   82   83 2    
   164   82   84 am   BACKBONE|DICT|INTERRES
   165   84   85 1    
   166   84  205 1    
   167   85   86 1    
   168   85   87 1    
   169   85  206 1    
   170   86  207 1    
   171   86  208 1    
   172   86  209 1    
   173   87   88 2    
   174   87   89 am   BACKBONE|DICT|INTERRES
   175   89   90 1    
   176   89  210 1    
   177   90   91 1    
   178   90   92 1    
   179   90  211 1    
   180   91  212 1    
   181   91  213 1    
   182   91  214 1    
   183   92   93 2    
   184   92   94 am   BACKBONE|DICT|INTERRES
   185   94   95 1    
   186   94  215 1    
   187   95   96 1    
   188   95   97 1    
   189   95  216 1    
   190   96  217 1    
   191   96  218 1    
   192   96  219 1    
   193   97   98 2    
   194   97   99 am   BACKBONE|DICT|INTERRES
   195   99  100 1    
   196   99  220 1    
   197  100  101 1    
   198  100  102 1    
   199  100  221 1    
   200  101  222 1    
   201  101  223 1    
   202  101  224 1    
   203  102  103 2    
   204  102  104 am   BACKBONE|DICT|INTERRES
   205  104  105 1    
   206  104  225 1    
   207  105  106 1    
   208  105  107 1    
   209  105  226 1    
   210  106  227 1    
   211  106  228 1    
   212  106  229 1    
   213  107  108 2    
   214  107  109 am   BACKBONE|DICT|INTERRES
   215  109  110 1    
   216  109  230 1    
   217  110  111 1    
   218  110  112 1    
   219  110  231 1    
   220  111  232 1    
   221  111  233 1    
   222  111  234 1    
   223  112  113 2    
   224  112  114 am   BACKBONE|DICT|INTERRES
   225  114  115 1    
   226  114  235 1    
   227  115  116 1    
   228  115  117 1    
   229  115  236 1    
   230  116  237 1    
   231  116  238 1    
   232  116  239 1    
   233  117  118 2    
   234  117  119 am   BACKBONE|DICT|INTERRES
   235  119  120 1    
   236  119  240 1    
   237  120  121 1    
   238  120  124 1    
   239  120  241 1    
   240  121  122 am   BACKBONE|DICT|INTERRES
   241  121  123 2    
   242  122  242 1    
   243  122  243 1    
   244  124  125 1    
   245  124  244 1    
   246  124  245 1    
   247  125  126 1    
   248  126  246 1    
   249  126  247 1    
@<TRIPOS>SUBSTRUCTURE
     1 UNK         1 GROUP             0       ****    0 ROOT    
