@<TRIPOS>MOLECULE
3R540
247   249    1
SMALL
USER_CHARGES


@<TRIPOS>ATOM
      1 CA          5.0469  -15.5231  -47.9153 C.3       0 UNK        -0.1800 
      2 C           4.1463  -14.7016  -47.0051 C.2       0 UNK         0.5000 
      3 O           4.4521  -14.5344  -45.8265 O.2       0 UNK        -0.5000 
      4 N           3.0455  -14.1701  -47.5517 N.am      1 UNK        -0.5000 
      5 CA          1.9790  -13.4541  -46.8327 C.3       1 UNK         0.1400 
      6 C6          0.7894  -13.0913  -47.7607 C.3       23 UNK        -0.0398 
      7 S7          0.1638  -14.5086  -48.7259 S.3       23 UNK        -0.2404 
      8 C8          1.0421  -14.2546  -50.3058 C.3       23 UNK        -0.0205 
      9 C9          1.4330  -15.5641  -50.9778 C.ar      23 UNK        -0.0193 
     10 C10         1.1534  -15.7677  -52.3315 C.ar      23 UNK        -0.1150 
     11 C11         1.5447  -16.9489  -52.9680 C.ar      23 UNK        -0.0193 
     12 C12         2.2070  -17.9388  -52.2357 C.ar      23 UNK        -0.1150 
     13 C13         2.4850  -17.7564  -50.8782 C.ar      23 UNK        -0.0193 
     14 C14         2.1127  -16.5565  -50.2639 C.ar      23 UNK        -0.1150 
     15 C15         3.1972  -18.8587  -50.0970 C.3       23 UNK        -0.0205 
     16 S16         2.5507  -19.1079  -48.4072 S.3       23 UNK        -0.2404 
     17 C17         0.7924  -19.4851  -48.7230 C.3       23 UNK        -0.0398 
     18 CA          0.3669  -20.8548  -48.1457 C.3       11 UNK         0.1400 
     19 N           0.4194  -20.8977  -46.6784 N.am      11 UNK        -0.5000 
     20 C           0.2330  -22.0041  -45.9432 C.2       10 UNK         0.5000 
     21 O           0.0491  -23.1219  -46.4258 O.2       10 UNK        -0.5000 
     22 CA          0.1860  -21.8309  -44.4138 C.3       10 UNK         0.1400 
     23 CB          1.6009  -21.7451  -43.8228 C.3       10 UNK        -0.1800 
     24 N          -0.6067  -20.6709  -44.0005 N.am      10 UNK        -0.5000 
     25 C          -1.9248  -20.5451  -44.2126 C.2       9 UNK         0.5000 
     26 O          -2.6134  -21.4172  -44.7374 O.2       9 UNK        -0.5000 
     27 CA         -2.5874  -19.2139  -43.8180 C.3       9 UNK         0.1400 
     28 CB         -2.9509  -19.2047  -42.3263 C.3       9 UNK        -0.1800 
     29 N          -1.7614  -18.0508  -44.1350 N.am      9 UNK        -0.5000 
     30 C          -1.3877  -17.6909  -45.3716 C.2       8 UNK         0.5000 
     31 O          -1.7373  -18.2831  -46.3933 O.2       8 UNK        -0.5000 
     32 CA         -0.4119  -16.5017  -45.4690 C.3       8 UNK         0.1400 
     33 CB         -1.1606  -15.1720  -45.2748 C.3       8 UNK        -0.1800 
     34 N           0.6845  -16.6053  -44.5009 N.am      8 UNK        -0.5000 
     35 C           1.5611  -17.6213  -44.4615 C.2       7 UNK         0.5000 
     36 O           1.5769  -18.5404  -45.2781 O.2       7 UNK        -0.5000 
     37 CA          2.5261  -17.6669  -43.2647 C.3       7 UNK         0.1400 
     38 CB          3.7553  -16.7762  -43.4934 C.3       7 UNK        -0.1800 
     39 N           1.8550  -17.2890  -42.0213 N.am      7 UNK        -0.5000 
     40 C           0.9614  -18.0633  -41.3883 C.2       6 UNK         0.5000 
     41 O           0.6592  -19.1962  -41.7604 O.2       6 UNK        -0.5000 
     42 CA          0.2587  -17.4583  -40.1581 C.3       6 UNK         0.1400 
     43 CB          1.0981  -17.6855  -38.8922 C.3       6 UNK        -0.1800 
     44 N          -0.0085  -16.0278  -40.3091 N.am      6 UNK        -0.5000 
     45 C          -0.8496  -15.4981  -41.2096 C.2       5 UNK         0.5000 
     46 O          -1.5565  -16.1717  -41.9567 O.2       5 UNK        -0.5000 
     47 CA         -0.8534  -13.9611  -41.3358 C.3       5 UNK         0.1400 
     48 CB         -1.9231  -13.3463  -40.4218 C.3       5 UNK        -0.1800 
     49 N           0.4525  -13.3707  -41.0250 N.am      5 UNK        -0.5000 
     50 C           1.5624  -13.5839  -41.7434 C.2       4 UNK         0.5000 
     51 O           1.5819  -14.2257  -42.7973 O.2       4 UNK        -0.5000 
     52 CA          2.8745  -13.0965  -41.1173 C.3       4 UNK         0.1400 
     53 CB          3.3247  -14.0989  -40.0315 C.3       4 UNK        -0.1800 
     54 N           3.8906  -12.9761  -42.1580 N.am      4 UNK        -0.5000 
     55 C           5.1163  -12.4609  -41.9999 C.2       3 UNK         0.5000 
     56 O           5.5363  -11.9933  -40.9405 O.2       3 UNK        -0.5000 
     57 CA          6.0249  -12.4481  -43.2402 C.3       3 UNK         0.1400 
     58 CB          6.6510  -13.8322  -43.4722 C.3       3 UNK        -0.1800 
     59 N           5.3116  -12.0137  -44.4416 N.am      3 UNK        -0.5000 
     60 C           4.9632  -10.7390  -44.6797 C.2       2 UNK         0.5000 
     61 O           5.2246   -9.8105  -43.9134 O.2       2 UNK        -0.5000 
     62 CA          4.2157  -10.4268  -45.9916 C.3       2 UNK         0.1400 
     63 CB          5.1784   -9.8252  -47.0272 C.3       2 UNK        -0.1800 
     64 N           3.5610  -11.5915  -46.5827 N.am      2 UNK        -0.5000 
     65 C           2.4635  -12.1861  -46.0963 C.2       1 UNK         0.5000 
     66 O           1.8451  -11.7761  -45.1142 O.2       1 UNK        -0.5000 
     67 C          -1.0221  -21.2537  -48.6848 C.2       11 UNK         0.5000 
     68 O          -1.0960  -21.9868  -49.6729 O.2       11 UNK        -0.5000 
     69 N          -2.0918  -20.7963  -48.0180 N.am      12 UNK        -0.5000 
     70 CA         -3.4682  -21.1712  -48.3337 C.3       12 UNK         0.1400 
     71 CB         -4.4491  -20.2554  -47.5877 C.3       12 UNK        -0.1800 
     72 C          -3.7505  -22.6513  -48.0248 C.2       12 UNK         0.5000 
     73 O          -4.3238  -23.3414  -48.8666 O.2       12 UNK        -0.5000 
     74 N          -3.3267  -23.1282  -46.8460 N.am      13 UNK        -0.5000 
     75 CA         -3.4757  -24.5143  -46.3928 C.3       13 UNK         0.1400 
     76 CB         -2.9822  -24.6465  -44.9450 C.3       13 UNK        -0.1800 
     77 C          -2.7623  -25.5281  -47.3038 C.2       13 UNK         0.5000 
     78 O          -3.3340  -26.5762  -47.6060 O.2       13 UNK        -0.5000 
     79 N          -1.5634  -25.1685  -47.7843 N.am      14 UNK        -0.5000 
     80 CA         -0.7909  -25.9262  -48.7741 C.3       14 UNK         0.1400 
     81 CB          0.5885  -25.2709  -48.9403 C.3       14 UNK        -0.1800 
     82 C          -1.4943  -26.0562  -50.1422 C.2       14 UNK         0.5000 
     83 O          -1.2173  -27.0031  -50.8788 O.2       14 UNK        -0.5000 
     84 N          -2.4075  -25.1243  -50.4387 N.am      15 UNK        -0.5000 
     85 CA         -3.2642  -25.0982  -51.6204 C.3       15 UNK         0.1400 
     86 CB         -3.2376  -23.6768  -52.2034 C.3       15 UNK        -0.1800 
     87 C          -4.6994  -25.5676  -51.3072 C.2       15 UNK         0.5000 
     88 O          -5.6156  -25.2245  -52.0526 O.2       15 UNK        -0.5000 
     89 N          -4.8828  -26.3317  -50.2184 N.am      16 UNK        -0.5000 
     90 CA         -6.1457  -26.9244  -49.7607 C.3       16 UNK         0.1400 
     91 CB         -6.6308  -28.0027  -50.7529 C.3       16 UNK        -0.1800 
     92 C          -7.2218  -25.8646  -49.4436 C.2       16 UNK         0.5000 
     93 O          -8.3563  -25.9677  -49.9129 O.2       16 UNK        -0.5000 
     94 N          -6.8190  -24.8575  -48.6563 N.am      17 UNK        -0.5000 
     95 CA         -7.5749  -23.6567  -48.2836 C.3       17 UNK         0.1400 
     96 CB         -8.8732  -24.0034  -47.5239 C.3       17 UNK        -0.1800 
     97 C          -7.7883  -22.7228  -49.4919 C.2       17 UNK         0.5000 
     98 O          -8.8910  -22.2150  -49.7029 O.2       17 UNK        -0.5000 
     99 N          -6.7000  -22.5166  -50.2475 N.am      18 UNK        -0.5000 
    100 CA        -6.5733  -21.6711  -51.4362 C.3       18 UNK         0.1400 
    101 CB        -6.6491  -20.1800  -51.0493 C.3       18 UNK        -0.1800 
    102 C         -7.5537  -22.0603  -52.5619 C.2       18 UNK         0.5000 
    103 O         -8.2989  -21.2152  -53.0646 O.2       18 UNK        -0.5000 
    104 N         -7.5476  -23.3475  -52.9320 N.am      19 UNK        -0.5000 
    105 CA        -8.3231  -23.9061  -54.0361 C.3       19 UNK         0.1400 
    106 CB        -8.4257  -25.4311  -53.8585 C.3       19 UNK        -0.1800 
    107 C         -7.6782  -23.5127  -55.3783 C.2       19 UNK         0.5000 
    108 O         -6.8403  -24.2489  -55.9029 O.2       19 UNK        -0.5000 
    109 N         -8.0392  -22.3196  -55.8692 N.am      20 UNK        -0.5000 
    110 CA        -7.5591  -21.6204  -57.0698 C.3       20 UNK         0.1400 
    111 CB        -7.7750  -22.4546  -58.3474 C.3       20 UNK        -0.1800 
    112 C         -6.1071  -21.1119  -56.9648 C.2       20 UNK         0.5000 
    113 O         -5.8439  -19.9647  -57.3291 O.2       20 UNK        -0.5000 
    114 N         -5.1975  -21.9516  -56.4587 N.am      21 UNK        -0.5000 
    115 CA        -3.8194  -21.5976  -56.1259 C.3       21 UNK         0.1400 
    116 CB        -3.0018  -22.8879  -55.9600 C.3       21 UNK        -0.1800 
    117 C         -3.7484  -20.7216  -54.8591 C.2       21 UNK         0.5000 
    118 O         -4.6371  -20.7884  -54.0082 O.2       21 UNK        -0.5000 
    119 N         -2.6851  -19.9176  -54.7634 N.am      22 UNK        -0.5000 
    120 CA        -2.4322  -18.9648  -53.6682 C.3       22 UNK         0.1400 
    121 C         -2.0164  -19.5945  -52.3057 C.2       22 UNK         0.5000 
    122 N         -1.5653  -20.8405  -52.2650 N.am      22 UNK        -0.7600 
    123 O         -2.1244  -18.9445  -51.2704 O.2       22 UNK        -0.5000 
    124 C124       -1.4446  -17.8553  -54.1135 C.3       23 UNK        -0.0398 
    125 S125        0.1265  -18.5129  -54.7827 S.3       23 UNK        -0.2404 
    126 C126        1.2774  -17.1434  -54.4535 C.3       23 UNK        -0.0205 
    127 H127        5.0092  -16.5733  -47.6257 H         1 UNK         0.0600 
    128 H128        6.0784  -15.1809  -47.8318 H         1 UNK         0.0600 
    129 H129        4.7470  -15.4464  -48.9606 H         1 UNK         0.0600 
    130 H130        2.8558  -14.3430  -48.5270 H         1 UNK         0.3000 
    131 H131        1.6213  -14.1410  -46.0644 H         1 UNK         0.0600 
    132 H132       -0.0427  -12.7097  -47.1663 H         1 UNK         0.0800 
    133 H133        1.0583  -12.2837  -48.4443 H         1 UNK         0.0800 
    134 H134        1.9504  -13.6712  -50.1544 H         1 UNK         0.0800 
    135 H135        0.4033  -13.6582  -50.9593 H         1 UNK         0.0800 
    136 H136        0.6437  -14.9990  -52.8953 H         1 UNK         0.1150 
    137 H137        2.5032  -18.8543  -52.7286 H         1 UNK         0.1150 
    138 H138        2.3362  -16.4040  -49.2184 H         1 UNK         0.1150 
    139 H139        3.1330  -19.8077  -50.6317 H         1 UNK         0.0800 
    140 H140        4.2569  -18.6095  -50.0325 H         1 UNK         0.0800 
    141 H141        0.6118  -19.4575  -49.7995 H         1 UNK         0.0800 
    142 H142        0.1878  -18.6819  -48.2988 H         1 UNK         0.0800 
    143 H143        1.0703  -21.6051  -48.5135 H         1 UNK         0.0600 
    144 H144        0.6199  -20.0208  -46.2054 H         1 UNK         0.3000 
    145 H145       -0.2930  -22.7189  -43.9966 H         1 UNK         0.0600 
    146 H146        1.5709  -21.6800  -42.7351 H         1 UNK         0.0600 
    147 H147        2.1828  -22.6310  -44.0796 H         1 UNK         0.0600 
    148 H148        2.1455  -20.8785  -44.1956 H         1 UNK         0.0600 
    149 H149       -0.1151  -19.9326  -43.5090 H         1 UNK         0.3000 
    150 H150       -3.5127  -19.1239  -44.3903 H         1 UNK         0.0600 
    151 H151       -3.5999  -20.0454  -42.0782 H         1 UNK         0.0600 
    152 H152       -3.4825  -18.2922  -42.0554 H         1 UNK         0.0600 
    153 H153       -2.0658  -19.2763  -41.6947 H         1 UNK         0.0600 
    154 H154       -1.4778  -17.4688  -43.3514 H         1 UNK         0.3000 
    155 H155        0.0328  -16.5087  -46.4659 H         1 UNK         0.0600 
    156 H156       -1.7635  -15.1706  -44.3676 H         1 UNK         0.0600 
    157 H157       -1.8364  -14.9882  -46.1107 H         1 UNK         0.0600 
    158 H158       -0.4798  -14.3248  -45.2134 H         1 UNK         0.0600 
    159 H159        0.7643  -15.8695  -43.8083 H         1 UNK         0.3000 
    160 H160        2.8794  -18.6951  -43.1620 H         1 UNK         0.0600 
    161 H161        3.4833  -15.7295  -43.6181 H         1 UNK         0.0600 
    162 H162        4.2913  -17.0792  -44.3937 H         1 UNK         0.0600 
    163 H163        4.4543  -16.8431  -42.6599 H         1 UNK         0.0600 
    164 H164        2.0090  -16.3483  -41.6918 H         1 UNK         0.3000 
    165 H165       -0.6971  -17.9710  -40.0328 H         1 UNK         0.0600 
    166 H166        0.5778  -17.3261  -38.0042 H         1 UNK         0.0600 
    167 H167        1.2980  -18.7474  -38.7428 H         1 UNK         0.0600 
    168 H168        2.0604  -17.1749  -38.9481 H         1 UNK         0.0600 
    169 H169        0.5183  -15.4022  -39.7190 H         1 UNK         0.3000 
    170 H170       -1.1007  -13.7131  -42.3701 H         1 UNK         0.0600 
    171 H171       -2.9095  -13.7536  -40.6480 H         1 UNK         0.0600 
    172 H172       -1.7187  -13.5461  -39.3692 H         1 UNK         0.0600 
    173 H173       -1.9811  -12.2657  -40.5543 H         1 UNK         0.0600 
    174 H174        0.5130  -12.8360  -40.1702 H         1 UNK         0.3000 
    175 H175        2.7073  -12.1135  -40.6729 H         1 UNK         0.0600 
    176 H176        3.5625  -15.0736  -40.4595 H         1 UNK         0.0600 
    177 H177        4.2074  -13.7484  -39.4976 H         1 UNK         0.0600 
    178 H178        2.5480  -14.2492  -39.2811 H         1 UNK         0.0600 
    179 H179        3.5994  -13.3144  -43.0673 H         1 UNK         0.3000 
    180 H180        6.8392  -11.7447  -43.0527 H         1 UNK         0.0600 
    181 H181        5.8930  -14.6029  -43.6122 H         1 UNK         0.0600 
    182 H182        7.2614  -14.1292  -42.6186 H         1 UNK         0.0600 
    183 H183        7.2961  -13.8330  -44.3508 H         1 UNK         0.0600 
    184 H184        5.0341  -12.7414  -45.0926 H         1 UNK         0.3000 
    185 H185        3.4505   -9.6818  -45.7634 H         1 UNK         0.0600 
    186 H186        5.6651   -8.9307  -46.6359 H         1 UNK         0.0600 
    187 H187        5.9627  -10.5306  -47.3048 H         1 UNK         0.0600 
    188 H188        4.6502   -9.5341  -47.9354 H         1 UNK         0.0600 
    189 H189        4.0094  -12.0041  -47.3876 H         1 UNK         0.3000 
    190 H190       -1.9530  -20.1494  -47.2487 H         1 UNK         0.3000 
    191 H191       -3.6193  -21.0214  -49.4053 H         1 UNK         0.0600 
    192 H192       -4.3394  -20.3366  -46.5065 H         1 UNK         0.0600 
    193 H193       -5.4816  -20.5076  -47.8327 H         1 UNK         0.0600 
    194 H194       -4.2947  -19.2113  -47.8610 H         1 UNK         0.0600 
    195 H195       -2.9060  -22.4825  -46.1801 H         1 UNK         0.3000 
    196 H196       -4.5413  -24.7510  -46.4078 H         1 UNK         0.0600 
    197 H197       -3.0989  -25.6688  -44.5832 H         1 UNK         0.0600 
    198 H198       -3.5480  -23.9988  -44.2753 H         1 UNK         0.0600 
    199 H199       -1.9282  -24.3836  -44.8544 H         1 UNK         0.0600 
    200 H200       -1.1419  -24.3079  -47.4448 H         1 UNK         0.3000 
    201 H201       -0.6471  -26.9353  -48.3831 H         1 UNK         0.0600 
    202 H202        1.1319  -25.2510  -47.9954 H         1 UNK         0.0600 
    203 H203        0.5037  -24.2445  -49.2988 H         1 UNK         0.0600 
    204 H204        1.2009  -25.8207  -49.6560 H         1 UNK         0.0600 
    205 H205       -2.5858  -24.3948  -49.7596 H         1 UNK         0.3000 
    206 H206       -2.8798  -25.7782  -52.3828 H         1 UNK         0.0600 
    207 H207       -2.2536  -23.4576  -52.6149 H         1 UNK         0.0600 
    208 H208       -3.9589  -23.5494  -53.0099 H         1 UNK         0.0600 
    209 H209       -3.4599  -22.9255  -51.4456 H         1 UNK         0.0600 
    210 H210       -4.0822  -26.5134  -49.6248 H         1 UNK         0.3000 
    211 H211       -5.9236  -27.4249  -48.8171 H         1 UNK         0.0600 
    212 H212       -6.9141  -27.5735  -51.7145 H         1 UNK         0.0600 
    213 H213       -7.5024  -28.5285  -50.3614 H         1 UNK         0.0600 
    214 H214       -5.8568  -28.7485  -50.9336 H         1 UNK         0.0600 
    215 H215       -5.8359  -24.8283  -48.4173 H         1 UNK         0.3000 
    216 H216       -6.9381  -23.1065  -47.5894 H         1 UNK         0.0600 
    217 H217       -9.3347  -23.1030  -47.1172 H         1 UNK         0.0600 
    218 H218       -8.6737  -24.6720  -46.6865 H         1 UNK         0.0600 
    219 H219       -9.6115  -24.4811  -48.1680 H         1 UNK         0.0600 
    220 H220       -5.8479  -22.9888  -49.9592 H         1 UNK         0.3000 
    221 H221       -5.5733  -21.8541  -51.8269 H         1 UNK         0.0600 
    222 H222       -7.6262  -19.9138  -50.6456 H         1 UNK         0.0600 
    223 H223       -5.8952  -19.9275  -50.3043 H         1 UNK         0.0600 
    224 H224       -6.4671  -19.5457  -51.9177 H         1 UNK         0.0600 
    225 H225       -6.8819  -23.9845  -52.4969 H         1 UNK         0.3000 
    226 H226       -9.3360  -23.4996  -54.0021 H         1 UNK         0.0600 
    227 H227       -8.8906  -25.6858  -52.9057 H         1 UNK         0.0600 
    228 H228       -9.0326  -25.8743  -54.6485 H         1 UNK         0.0600 
    229 H229       -7.4474  -25.9120  -53.8882 H         1 UNK         0.0600 
    230 H230       -8.6484  -21.7640  -55.2809 H         1 UNK         0.3000 
    231 H231       -8.1898  -20.7342  -57.1556 H         1 UNK         0.0600 
    232 H232       -8.8141  -22.7697  -58.4420 H         1 UNK         0.0600 
    233 H233       -7.1497  -23.3473  -58.3663 H         1 UNK         0.0600 
    234 H234       -7.5302  -21.8707  -59.2354 H         1 UNK         0.0600 
    235 H235       -5.5217  -22.8701  -56.1721 H         1 UNK         0.3000 
    236 H236       -3.3985  -21.0288  -56.9578 H         1 UNK         0.0600 
    237 H237       -3.4494  -23.5592  -55.2284 H         1 UNK         0.0600 
    238 H238       -2.9346  -23.4293  -56.9037 H         1 UNK         0.0600 
    239 H239       -1.9823  -22.6749  -55.6361 H         1 UNK         0.0600 
    240 H240       -1.9808  -19.9360  -55.4870 H         1 UNK         0.3000 
    241 H241       -3.3834  -18.4679  -53.4665 H         1 UNK         0.0600 
    242 H242       -1.3393  -21.2600  -51.3675 H         1 UNK         0.3800 
    243 H243       -1.4614  -21.3720  -53.1119 H         1 UNK         0.3800 
    244 H244       -1.9080  -17.2482  -54.8922 H         1 UNK         0.0800 
    245 H245       -1.2443  -17.1699  -53.2885 H         1 UNK         0.0800 
    246 H246        0.8859  -16.2306  -54.9054 H         1 UNK         0.0800 
    247 H247        2.2227  -17.3515  -54.9564 H         1 UNK         0.0800 
@<TRIPOS>BOND
     1    1    2 1    
     2    1  127 1    
     3    1  128 1    
     4    1  129 1    
     5    2    3 2    
     6    2    4 am   BACKBONE|DICT|INTERRES
     7    4    5 1    
     8    4  130 1    
     9    5    6 1    
    10    5   65 1    
    11    5  131 1    
    12    6    7 1    
    13    6  132 1    
    14    6  133 1    
    15    7    8 1    
    16    8    9 1    
    17    8  134 1    
    18    8  135 1    
    19    9   10 ar   
    20    9   14 ar   
    21   10   11 ar   
    22   10  136 1    
    23   11   12 ar   
    24   11  126 1    
    25   12   13 ar   
    26   12  137 1    
    27   13   14 ar   
    28   13   15 1    
    29   14  138 1    
    30   15   16 1    
    31   15  139 1    
    32   15  140 1    
    33   16   17 1    
    34   17   18 1    
    35   17  141 1    
    36   17  142 1    
    37   18   19 1    
    38   18   67 1    
    39   18  143 1    
    40   19   20 am   BACKBONE|DICT|INTERRES
    41   19  144 1    
    42   20   21 2    
    43   20   22 1    
    44   22   23 1    
    45   22   24 1    
    46   22  145 1    
    47   23  146 1    
    48   23  147 1    
    49   23  148 1    
    50   24   25 am   BACKBONE|DICT|INTERRES
    51   24  149 1    
    52   25   26 2    
    53   25   27 1    
    54   27   28 1    
    55   27   29 1    
    56   27  150 1    
    57   28  151 1    
    58   28  152 1    
    59   28  153 1    
    60   29   30 am   BACKBONE|DICT|INTERRES
    61   29  154 1    
    62   30   31 2    
    63   30   32 1    
    64   32   33 1    
    65   32   34 1    
    66   32  155 1    
    67   33  156 1    
    68   33  157 1    
    69   33  158 1    
    70   34   35 am   BACKBONE|DICT|INTERRES
    71   34  159 1    
    72   35   36 2    
    73   35   37 1    
    74   37   38 1    
    75   37   39 1    
    76   37  160 1    
    77   38  161 1    
    78   38  162 1    
    79   38  163 1    
    80   39   40 am   BACKBONE|DICT|INTERRES
    81   39  164 1    
    82   40   41 2    
    83   40   42 1    
    84   42   43 1    
    85   42   44 1    
    86   42  165 1    
    87   43  166 1    
    88   43  167 1    
    89   43  168 1    
    90   44   45 am   BACKBONE|DICT|INTERRES
    91   44  169 1    
    92   45   46 2    
    93   45   47 1    
    94   47   48 1    
    95   47   49 1    
    96   47  170 1    
    97   48  171 1    
    98   48  172 1    
    99   48  173 1    
   100   49   50 am   BACKBONE|DICT|INTERRES
   101   49  174 1    
   102   50   51 2    
   103   50   52 1    
   104   52   53 1    
   105   52   54 1    
   106   52  175 1    
   107   53  176 1    
   108   53  177 1    
   109   53  178 1    
   110   54   55 am   BACKBONE|DICT|INTERRES
   111   54  179 1    
   112   55   56 2    
   113   55   57 1    
   114   57   58 1    
   115   57   59 1    
   116   57  180 1    
   117   58  181 1    
   118   58  182 1    
   119   58  183 1    
   120   59   60 am   BACKBONE|DICT|INTERRES
   121   59  184 1    
   122   60   61 2    
   123   60   62 1    
   124   62   63 1    
   125   62   64 1    
   126   62  185 1    
   127   63  186 1    
   128   63  187 1    
   129   63  188 1    
   130   64   65 am   BACKBONE|DICT|INTERRES
   131   64  189 1    
   132   65   66 2    
   133   67   68 2    
   134   67   69 am   BACKBONE|DICT|INTERRES
   135   69   70 1    
   136   69  190 1    
   137   70   71 1    
   138   70   72 1    
   139   70  191 1    
   140   71  192 1    
   141   71  193 1    
   142   71  194 1    
   143   72   73 2    
   144   72   74 am   BACKBONE|DICT|INTERRES
   145   74   75 1    
   146   74  195 1    
   147   75   76 1    
   148   75   77 1    
   149   75  196 1    
   150   76  197 1    
   151   76  198 1    
   152   76  199 1    
   153   77   78 2    
   154   77   79 am   BACKBONE|DICT|INTERRES
   155   79   80 1    
   156   79  200 1    
   157   80   81 1    
   158   80   82 1    
   159   80  201 1    
   160   81  202 1    
   161   81  203 1    
   162   81  204 1    
   163   82   83 2    
   164   82   84 am   BACKBONE|DICT|INTERRES
   165   84   85 1    
   166   84  205 1    
   167   85   86 1    
   168   85   87 1    
   169   85  206 1    
   170   86  207 1    
   171   86  208 1    
   172   86  209 1    
   173   87   88 2    
   174   87   89 am   BACKBONE|DICT|INTERRES
   175   89   90 1    
   176   89  210 1    
   177   90   91 1    
   178   90   92 1    
   179   90  211 1    
   180   91  212 1    
   181   91  213 1    
   182   91  214 1    
   183   92   93 2    
   184   92   94 am   BACKBONE|DICT|INTERRES
   185   94   95 1    
   186   94  215 1    
   187   95   96 1    
   188   95   97 1    
   189   95  216 1    
   190   96  217 1    
   191   96  218 1    
   192   96  219 1    
   193   97   98 2    
   194   97   99 am   BACKBONE|DICT|INTERRES
   195   99  100 1    
   196   99  220 1    
   197  100  101 1    
   198  100  102 1    
   199  100  221 1    
   200  101  222 1    
   201  101  223 1    
   202  101  224 1    
   203  102  103 2    
   204  102  104 am   BACKBONE|DICT|INTERRES
   205  104  105 1    
   206  104  225 1    
   207  105  106 1    
   208  105  107 1    
   209  105  226 1    
   210  106  227 1    
   211  106  228 1    
   212  106  229 1    
   213  107  108 2    
   214  107  109 am   BACKBONE|DICT|INTERRES
   215  109  110 1    
   216  109  230 1    
   217  110  111 1    
   218  110  112 1    
   219  110  231 1    
   220  111  232 1    
   221  111  233 1    
   222  111  234 1    
   223  112  113 2    
   224  112  114 am   BACKBONE|DICT|INTERRES
   225  114  115 1    
   226  114  235 1    
   227  115  116 1    
   228  115  117 1    
   229  115  236 1    
   230  116  237 1    
   231  116  238 1    
   232  116  239 1    
   233  117  118 2    
   234  117  119 am   BACKBONE|DICT|INTERRES
   235  119  120 1    
   236  119  240 1    
   237  120  121 1    
   238  120  124 1    
   239  120  241 1    
   240  121  122 am   BACKBONE|DICT|INTERRES
   241  121  123 2    
   242  122  242 1    
   243  122  243 1    
   244  124  125 1    
   245  124  244 1    
   246  124  245 1    
   247  125  126 1    
   248  126  246 1    
   249  126  247 1    
@<TRIPOS>SUBSTRUCTURE
     1 UNK         1 GROUP             0       ****    0 ROOT    
