@<TRIPOS>MOLECULE
3R540
247   249    1
SMALL
USER_CHARGES


@<TRIPOS>ATOM
      1 CA          4.9754  -14.6258  -47.9836 C.3       0 UNK        -0.1800 
      2 C           3.9347  -13.5786  -48.3515 C.2       0 UNK         0.5000 
      3 O           3.9729  -13.0453  -49.4599 O.2       0 UNK        -0.5000 
      4 N           3.0205  -13.2826  -47.4185 N.am      1 UNK        -0.5000 
      5 CA          1.9979  -12.2295  -47.4874 C.3       1 UNK         0.1400 
      6 C6          0.9669  -12.4036  -48.6369 C.3       23 UNK        -0.0398 
      7 S7          0.0115  -13.9500  -48.4758 S.3       23 UNK        -0.2404 
      8 C8          0.6172  -14.9079  -49.9034 C.3       23 UNK        -0.0205 
      9 C9          0.0801  -16.3354  -49.9247 C.ar      23 UNK        -0.0193 
     10 C10        -1.2917  -16.5822  -49.8015 C.ar      23 UNK        -0.1150 
     11 C11        -1.7956  -17.8893  -49.8268 C.ar      23 UNK        -0.0193 
     12 C12        -0.9030  -18.9498  -49.9949 C.ar      23 UNK        -0.1150 
     13 C13         0.4684  -18.7225  -50.1332 C.ar      23 UNK        -0.0193 
     14 C14         0.9548  -17.4129  -50.0964 C.ar      23 UNK        -0.1150 
     15 C15         1.4149  -19.9002  -50.3230 C.3       23 UNK        -0.0205 
     16 S16         2.5245  -20.1874  -48.9024 S.3       23 UNK        -0.2404 
     17 C17         1.4273  -20.0722  -47.4478 C.3       23 UNK        -0.0398 
     18 CA          0.8358  -21.4188  -46.9722 C.3       11 UNK         0.1400 
     19 N           0.6383  -21.4264  -45.5216 N.am      11 UNK        -0.5000 
     20 C           0.6465  -22.5307  -44.7679 C.2       10 UNK         0.5000 
     21 O           0.8235  -23.6641  -45.2174 O.2       10 UNK        -0.5000 
     22 CA          0.3947  -22.3321  -43.2620 C.3       10 UNK         0.1400 
     23 CB          1.5313  -21.5242  -42.6143 C.3       10 UNK        -0.1800 
     24 N          -0.8869  -21.6997  -42.9380 N.am      10 UNK        -0.5000 
     25 C          -2.0979  -22.1204  -43.3224 C.2       9 UNK         0.5000 
     26 O          -2.2800  -23.0201  -44.1405 O.2       9 UNK        -0.5000 
     27 CA         -3.3266  -21.4394  -42.6896 C.3       9 UNK         0.1400 
     28 CB         -3.6521  -22.0574  -41.3170 C.3       9 UNK        -0.1800 
     29 N          -3.2642  -19.9756  -42.6186 N.am      9 UNK        -0.5000 
     30 C          -2.4761  -19.1829  -41.8816 C.2       8 UNK         0.5000 
     31 O          -1.5830  -19.5985  -41.1409 O.2       8 UNK        -0.5000 
     32 CA         -2.7177  -17.6659  -42.0432 C.3       8 UNK         0.1400 
     33 CB         -1.9737  -16.8333  -40.9837 C.3       8 UNK        -0.1800 
     34 N          -2.3111  -17.1980  -43.3664 N.am      8 UNK        -0.5000 
     35 C          -2.9150  -17.4666  -44.5321 C.2       7 UNK         0.5000 
     36 O          -3.9875  -18.0660  -44.6197 O.2       7 UNK        -0.5000 
     37 CA         -2.1926  -17.0117  -45.8161 C.3       7 UNK         0.1400 
     38 CB         -2.9049  -15.7941  -46.4220 C.3       7 UNK        -0.1800 
     39 N          -0.7782  -16.6823  -45.6187 N.am      7 UNK        -0.5000 
     40 C           0.1872  -17.5307  -45.2483 C.2       6 UNK         0.5000 
     41 O          -0.0123  -18.7210  -45.0022 O.2       6 UNK        -0.5000 
     42 CA          1.6098  -16.9571  -45.1007 C.3       6 UNK         0.1400 
     43 CB          2.1980  -16.5438  -46.4609 C.3       6 UNK        -0.1800 
     44 N           1.7396  -15.8719  -44.1180 N.am      6 UNK        -0.5000 
     45 C           1.1675  -14.6574  -44.1125 C.2       5 UNK         0.5000 
     46 O           0.3830  -14.2500  -44.9673 O.2       5 UNK        -0.5000 
     47 CA          1.5645  -13.7260  -42.9547 C.3       5 UNK         0.1400 
     48 CB          0.7531  -14.0585  -41.6928 C.3       5 UNK        -0.1800 
     49 N           2.9962  -13.7745  -42.6458 N.am      5 UNK        -0.5000 
     50 C           3.9581  -13.3394  -43.4695 C.2       4 UNK         0.5000 
     51 O           3.7467  -12.8856  -44.5983 O.2       4 UNK        -0.5000 
     52 CA          5.4032  -13.4347  -42.9605 C.3       4 UNK         0.1400 
     53 CB          6.1079  -14.6524  -43.5775 C.3       4 UNK        -0.1800 
     54 N           6.1048  -12.2203  -43.3632 N.am      4 UNK        -0.5000 
     55 C           6.3126  -11.1566  -42.5773 C.2       3 UNK         0.5000 
     56 O           6.1163  -11.1479  -41.3613 O.2       3 UNK        -0.5000 
     57 CA          6.7827   -9.8693  -43.2840 C.3       3 UNK         0.1400 
     58 CB          8.3150   -9.8364  -43.3908 C.3       3 UNK        -0.1800 
     59 N           6.2000   -9.7156  -44.6214 N.am      3 UNK        -0.5000 
     60 C           4.8987   -9.5028  -44.8669 C.2       2 UNK         0.5000 
     61 O           4.0561   -9.3435  -43.9820 O.2       2 UNK        -0.5000 
     62 CA          4.4443   -9.4983  -46.3346 C.3       2 UNK         0.1400 
     63 CB          5.5946   -9.4710  -47.3649 C.3       2 UNK        -0.1800 
     64 N           3.6242  -10.6851  -46.5369 N.am      2 UNK        -0.5000 
     65 C           2.6665  -10.8376  -47.4581 C.2       1 UNK         0.5000 
     66 O           2.3343   -9.9581  -48.2554 O.2       1 UNK        -0.5000 
     67 C          -0.4774  -21.7530  -47.7043 C.2       11 UNK         0.5000 
     68 O          -0.4323  -22.3124  -48.7971 O.2       11 UNK        -0.5000 
     69 N          -1.6285  -21.4407  -47.0889 N.am      12 UNK        -0.5000 
     70 CA         -2.9570  -21.7516  -47.6206 C.3       12 UNK         0.1400 
     71 CB         -4.0336  -21.0999  -46.7424 C.3       12 UNK        -0.1800 
     72 C          -3.1926  -23.2669  -47.7632 C.2       12 UNK         0.5000 
     73 O          -3.7092  -23.7047  -48.7903 O.2       12 UNK        -0.5000 
     74 N          -2.7527  -24.0454  -46.7642 N.am      13 UNK        -0.5000 
     75 CA         -2.7434  -25.5081  -46.7900 C.3       13 UNK         0.1400 
     76 CB         -2.2793  -26.0456  -45.4282 C.3       13 UNK        -0.1800 
     77 C          -1.8697  -26.0689  -47.9262 C.2       13 UNK         0.5000 
     78 O          -2.3167  -26.9595  -48.6511 O.2       13 UNK        -0.5000 
     79 N          -0.6649  -25.4996  -48.0848 N.am      14 UNK        -0.5000 
     80 CA          0.2867  -25.8323  -49.1477 C.3       14 UNK         0.1400 
     81 CB          1.6278  -25.1323  -48.8799 C.3       14 UNK        -0.1800 
     82 C          -0.2425  -25.4930  -50.5543 C.2       14 UNK         0.5000 
     83 O          -0.0003  -26.2531  -51.4922 O.2       14 UNK        -0.5000 
     84 N          -1.0137  -24.4033  -50.6679 N.am      15 UNK        -0.5000 
     85 CA         -1.7342  -23.9595  -51.8640 C.3       15 UNK         0.1400 
     86 CB         -2.0537  -22.4600  -51.7240 C.3       15 UNK        -0.1800 
     87 C          -2.9944  -24.8043  -52.1676 C.2       15 UNK         0.5000 
     88 O          -4.0403  -24.2519  -52.5213 O.2       15 UNK        -0.5000 
     89 N          -2.8664  -26.1322  -52.0407 N.am      16 UNK        -0.5000 
     90 CA         -3.8678  -27.1661  -52.3123 C.3       16 UNK         0.1400 
     91 CB         -4.1026  -27.2821  -53.8331 C.3       16 UNK        -0.1800 
     92 C          -5.1684  -26.9868  -51.5006 C.2       16 UNK         0.5000 
     93 O          -6.2596  -27.1644  -52.0425 O.2       16 UNK        -0.5000 
     94 N          -5.0188  -26.6309  -50.2149 N.am      17 UNK        -0.5000 
     95 CA         -6.0896  -26.3017  -49.2661 C.3       17 UNK         0.1400 
     96 CB         -6.9431  -27.5446  -48.9376 C.3       17 UNK        -0.1800 
     97 C          -6.9216  -25.0881  -49.7321 C.2       17 UNK         0.5000 
     98 O          -8.1464  -25.1696  -49.8439 O.2       17 UNK        -0.5000 
     99 N          -6.2082  -23.9861  -49.9963 N.am      18 UNK        -0.5000 
    100 CA        -6.6862  -22.6847  -50.4634 C.3       18 UNK         0.1400 
    101 CB        -7.5077  -21.9786  -49.3653 C.3       18 UNK        -0.1800 
    102 C         -7.4196  -22.7603  -51.8189 C.2       18 UNK         0.5000 
    103 O         -8.4970  -22.1806  -51.9729 O.2       18 UNK        -0.5000 
    104 N         -6.8276  -23.4916  -52.7716 N.am      19 UNK        -0.5000 
    105 CA        -7.3535  -23.6689  -54.1258 C.3       19 UNK         0.1400 
    106 CB        -7.6163  -25.1590  -54.3853 C.3       19 UNK        -0.1800 
    107 C         -6.4025  -23.0921  -55.1853 C.2       19 UNK         0.5000 
    108 O         -6.8800  -22.5479  -56.1818 O.2       19 UNK        -0.5000 
    109 N         -5.0838  -23.1972  -54.9631 N.am      20 UNK        -0.5000 
    110 CA        -4.0614  -22.6405  -55.8554 C.3       20 UNK         0.1400 
    111 CB        -2.7546  -23.4300  -55.6863 C.3       20 UNK        -0.1800 
    112 C         -3.8265  -21.1368  -55.6105 C.2       20 UNK         0.5000 
    113 O         -3.3432  -20.4424  -56.5054 O.2       20 UNK        -0.5000 
    114 N         -4.1828  -20.6631  -54.4128 N.am      21 UNK        -0.5000 
    115 CA        -4.1376  -19.2764  -53.9713 C.3       21 UNK         0.1400 
    116 CB        -2.7170  -18.9150  -53.5008 C.3       21 UNK        -0.1800 
    117 C         -5.1487  -19.1289  -52.8282 C.2       21 UNK         0.5000 
    118 O         -5.4321  -20.1148  -52.1453 O.2       21 UNK        -0.5000 
    119 N         -5.6562  -17.9080  -52.6276 N.am      22 UNK        -0.5000 
    120 CA        -6.6012  -17.5324  -51.5549 C.3       22 UNK         0.1400 
    121 C         -8.0272  -18.1548  -51.6829 C.2       22 UNK         0.5000 
    122 N         -8.4144  -18.6903  -52.8337 N.am      22 UNK        -0.7600 
    123 O         -8.8112  -18.1217  -50.7381 O.2       22 UNK        -0.5000 
    124 C124       -6.0124  -17.7020  -50.1231 C.3       23 UNK        -0.0398 
    125 S125       -4.4287  -16.8198  -49.9055 S.3       23 UNK        -0.2404 
    126 C126       -3.2803  -18.2181  -49.6663 C.3       23 UNK        -0.0205 
    127 H127        5.0275  -14.7775  -46.9055 H         1 UNK         0.0600 
    128 H128        5.9624  -14.3136  -48.3249 H         1 UNK         0.0600 
    129 H129        4.7337  -15.5777  -48.4565 H         1 UNK         0.0600 
    130 H130        3.0975  -13.7171  -46.5078 H         1 UNK         0.3000 
    131 H131        1.4437  -12.2957  -46.5501 H         1 UNK         0.0600 
    132 H132        0.2461  -11.5847  -48.6211 H         1 UNK         0.0800 
    133 H133        1.4498  -12.3568  -49.6135 H         1 UNK         0.0800 
    134 H134        1.7076  -14.9141  -49.8842 H         1 UNK         0.0800 
    135 H135        0.3223  -14.4051  -50.8251 H         1 UNK         0.0800 
    136 H136       -1.9578  -15.7419  -49.6773 H         1 UNK         0.1150 
    137 H137       -1.2804  -19.9621  -50.0185 H         1 UNK         0.1150 
    138 H138        2.0164  -17.2372  -50.2000 H         1 UNK         0.1150 
    139 H139        0.8571  -20.8153  -50.5233 H         1 UNK         0.0800 
    140 H140        2.0241  -19.7247  -51.2104 H         1 UNK         0.0800 
    141 H141        0.6529  -19.3191  -47.5922 H         1 UNK         0.0800 
    142 H142        2.0662  -19.6738  -46.6592 H         1 UNK         0.0800 
    143 H143        1.5528  -22.2059  -47.2159 H         1 UNK         0.0600 
    144 H144        0.4448  -20.5245  -45.0913 H         1 UNK         0.3000 
    145 H145        0.3861  -23.3234  -42.8047 H         1 UNK         0.0600 
    146 H146        1.4313  -21.5072  -41.5289 H         1 UNK         0.0600 
    147 H147        1.5425  -20.4906  -42.9630 H         1 UNK         0.0600 
    148 H148        2.5042  -21.9609  -42.8436 H         1 UNK         0.0600 
    149 H149       -0.8634  -20.9397  -42.2634 H         1 UNK         0.3000 
    150 H150       -4.1716  -21.6586  -43.3435 H         1 UNK         0.0600 
    151 H151       -2.8499  -21.8996  -40.5956 H         1 UNK         0.0600 
    152 H152       -3.8032  -23.1342  -41.4027 H         1 UNK         0.0600 
    153 H153       -4.5660  -21.6337  -40.9007 H         1 UNK         0.0600 
    154 H154       -3.8784  -19.4942  -43.2696 H         1 UNK         0.3000 
    155 H155       -3.7879  -17.4857  -41.9223 H         1 UNK         0.0600 
    156 H156       -2.2569  -17.1405  -39.9762 H         1 UNK         0.0600 
    157 H157       -2.2109  -15.7734  -41.0772 H         1 UNK         0.0600 
    158 H158       -0.8919  -16.9434  -41.0693 H         1 UNK         0.0600 
    159 H159       -1.4246  -16.7195  -43.4132 H         1 UNK         0.3000 
    160 H160       -2.2449  -17.8352  -46.5308 H         1 UNK         0.0600 
    161 H161       -2.8776  -14.9368  -45.7483 H         1 UNK         0.0600 
    162 H162       -3.9514  -16.0167  -46.6346 H         1 UNK         0.0600 
    163 H163       -2.4431  -15.4933  -47.3610 H         1 UNK         0.0600 
    164 H164       -0.5162  -15.7050  -45.7286 H         1 UNK         0.3000 
    165 H165        2.2278  -17.7724  -44.7212 H         1 UNK         0.0600 
    166 H166        3.2531  -16.2948  -46.3628 H         1 UNK         0.0600 
    167 H167        2.1232  -17.3444  -47.1951 H         1 UNK         0.0600 
    168 H168        1.6843  -15.6814  -46.8800 H         1 UNK         0.0600 
    169 H169        2.3554  -16.0798  -43.3448 H         1 UNK         0.3000 
    170 H170        1.3205  -12.7045  -43.2554 H         1 UNK         0.0600 
    171 H171        0.9785  -15.0569  -41.3163 H         1 UNK         0.0600 
    172 H172        0.9575  -13.3452  -40.8942 H         1 UNK         0.0600 
    173 H173       -0.3181  -14.0179  -41.8954 H         1 UNK         0.0600 
    174 H174        3.2511  -14.1306  -41.7357 H         1 UNK         0.3000 
    175 H175        5.4034  -13.5406  -41.8737 H         1 UNK         0.0600 
    176 H176        6.1306  -14.5990  -44.6666 H         1 UNK         0.0600 
    177 H177        7.1369  -14.7293  -43.2260 H         1 UNK         0.0600 
    178 H178        5.6004  -15.5783  -43.3041 H         1 UNK         0.0600 
    179 H179        6.2439  -12.1069  -44.3564 H         1 UNK         0.3000 
    180 H180        6.4644   -9.0206  -42.6749 H         1 UNK         0.0600 
    181 H181        8.6601   -8.8977  -43.8244 H         1 UNK         0.0600 
    182 H182        8.6945  -10.6519  -44.0078 H         1 UNK         0.0600 
    183 H183        8.7762   -9.9274  -42.4065 H         1 UNK         0.0600 
    184 H184        6.8278   -9.8246  -45.4048 H         1 UNK         0.3000 
    185 H185        3.8297   -8.6064  -46.4726 H         1 UNK         0.0600 
    186 H186        6.2023  -10.3757  -47.3232 H         1 UNK         0.0600 
    187 H187        5.2053   -9.3878  -48.3797 H         1 UNK         0.0600 
    188 H188        6.2491   -8.6131  -47.2052 H         1 UNK         0.0600 
    189 H189        3.7786  -11.4453  -45.8777 H         1 UNK         0.3000 
    190 H190       -1.5846  -21.0122  -46.1765 H         1 UNK         0.3000 
    191 H191       -3.0254  -21.3120  -48.6176 H         1 UNK         0.0600 
    192 H192       -3.8837  -20.0235  -46.6622 H         1 UNK         0.0600 
    193 H193       -5.0262  -21.2580  -47.1638 H         1 UNK         0.0600 
    194 H194       -4.0378  -21.5135  -45.7350 H         1 UNK         0.0600 
    195 H195       -2.3901  -23.6083  -45.9200 H         1 UNK         0.3000 
    196 H196       -3.7665  -25.8477  -46.9536 H         1 UNK         0.0600 
    197 H197       -2.9562  -25.7345  -44.6323 H         1 UNK         0.0600 
    198 H198       -1.2802  -25.6896  -45.1732 H         1 UNK         0.0600 
    199 H199       -2.2531  -27.1360  -45.4248 H         1 UNK         0.0600 
    200 H200       -0.3960  -24.7609  -47.4503 H         1 UNK         0.3000 
    201 H201        0.4553  -26.9104  -49.1106 H         1 UNK         0.0600 
    202 H202        2.0145  -25.3812  -47.8914 H         1 UNK         0.0600 
    203 H203        1.5411  -24.0480  -48.9428 H         1 UNK         0.0600 
    204 H204        2.3775  -25.4403  -49.6097 H         1 UNK         0.0600 
    205 H205       -1.1085  -23.8073  -49.8512 H         1 UNK         0.3000 
    206 H206       -1.0668  -24.0755  -52.7197 H         1 UNK         0.0600 
    207 H207       -1.1470  -21.8791  -51.5584 H         1 UNK         0.0600 
    208 H208       -2.7330  -22.2682  -50.8937 H         1 UNK         0.0600 
    209 H209       -2.5233  -22.0691  -52.6254 H         1 UNK         0.0600 
    210 H210       -1.9526  -26.4711  -51.7583 H         1 UNK         0.3000 
    211 H211       -3.4354  -28.1089  -51.9747 H         1 UNK         0.0600 
    212 H212       -4.4844  -26.3540  -54.2569 H         1 UNK         0.0600 
    213 H213       -4.8170  -28.0724  -54.0664 H         1 UNK         0.0600 
    214 H214       -3.1755  -27.5235  -54.3528 H         1 UNK         0.0600 
    215 H215       -4.0736  -26.5218  -49.8643 H         1 UNK         0.3000 
    216 H216       -5.5999  -25.9941  -48.3427 H         1 UNK         0.0600 
    217 H217       -7.6651  -27.3223  -48.1512 H         1 UNK         0.0600 
    218 H218       -6.3208  -28.3666  -48.5839 H         1 UNK         0.0600 
    219 H219       -7.5043  -27.8970  -49.8033 H         1 UNK         0.0600 
    220 H220       -5.2061  -24.0269  -49.8213 H         1 UNK         0.3000 
    221 H221       -5.7853  -22.0946  -50.6270 H         1 UNK         0.0600 
    222 H222       -8.4507  -22.4911  -49.1731 H         1 UNK         0.0600 
    223 H223       -6.9555  -21.9310  -48.4277 H         1 UNK         0.0600 
    224 H224       -7.7435  -20.9540  -49.6565 H         1 UNK         0.0600 
    225 H225       -5.9315  -23.9229  -52.5625 H         1 UNK         0.3000 
    226 H226       -8.3048  -23.1451  -54.2382 H         1 UNK         0.0600 
    227 H227       -8.3108  -25.5692  -53.6518 H         1 UNK         0.0600 
    228 H228       -8.0536  -25.3130  -55.3725 H         1 UNK         0.0600 
    229 H229       -6.6997  -25.7445  -54.3379 H         1 UNK         0.0600 
    230 H230       -4.7504  -23.6443  -54.1130 H         1 UNK         0.3000 
    231 H231       -4.3900  -22.7606  -56.8900 H         1 UNK         0.0600 
    232 H232       -2.0134  -23.1134  -56.4210 H         1 UNK         0.0600 
    233 H233       -2.3176  -23.2796  -54.7010 H         1 UNK         0.0600 
    234 H234       -2.9154  -24.4993  -55.8250 H         1 UNK         0.0600 
    235 H235       -4.6150  -21.2870  -53.7424 H         1 UNK         0.3000 
    236 H236       -4.4355  -18.6233  -54.7941 H         1 UNK         0.0600 
    237 H237       -2.3888  -19.5573  -52.6832 H         1 UNK         0.0600 
    238 H238       -1.9940  -19.0100  -54.3108 H         1 UNK         0.0600 
    239 H239       -2.6718  -17.8854  -53.1434 H         1 UNK         0.0600 
    240 H240       -5.3683  -17.1529  -53.2332 H         1 UNK         0.3000 
    241 H241       -6.7698  -16.4643  -51.6956 H         1 UNK         0.0600 
    242 H242       -9.3334  -19.0977  -52.9042 H         1 UNK         0.3800 
    243 H243       -7.7894  -18.7211  -53.6222 H         1 UNK         0.3800 
    244 H244       -5.8938  -18.7583  -49.8771 H         1 UNK         0.0800 
    245 H245       -6.7032  -17.3008  -49.3800 H         1 UNK         0.0800 
    246 H246       -3.5383  -19.0075  -50.3726 H         1 UNK         0.0800 
    247 H247       -3.4405  -18.6296  -48.6698 H         1 UNK         0.0800 
@<TRIPOS>BOND
     1    1    2 1    
     2    1  127 1    
     3    1  128 1    
     4    1  129 1    
     5    2    3 2    
     6    2    4 am   BACKBONE|DICT|INTERRES
     7    4    5 1    
     8    4  130 1    
     9    5    6 1    
    10    5   65 1    
    11    5  131 1    
    12    6    7 1    
    13    6  132 1    
    14    6  133 1    
    15    7    8 1    
    16    8    9 1    
    17    8  134 1    
    18    8  135 1    
    19    9   10 ar   
    20    9   14 ar   
    21   10   11 ar   
    22   10  136 1    
    23   11   12 ar   
    24   11  126 1    
    25   12   13 ar   
    26   12  137 1    
    27   13   14 ar   
    28   13   15 1    
    29   14  138 1    
    30   15   16 1    
    31   15  139 1    
    32   15  140 1    
    33   16   17 1    
    34   17   18 1    
    35   17  141 1    
    36   17  142 1    
    37   18   19 1    
    38   18   67 1    
    39   18  143 1    
    40   19   20 am   BACKBONE|DICT|INTERRES
    41   19  144 1    
    42   20   21 2    
    43   20   22 1    
    44   22   23 1    
    45   22   24 1    
    46   22  145 1    
    47   23  146 1    
    48   23  147 1    
    49   23  148 1    
    50   24   25 am   BACKBONE|DICT|INTERRES
    51   24  149 1    
    52   25   26 2    
    53   25   27 1    
    54   27   28 1    
    55   27   29 1    
    56   27  150 1    
    57   28  151 1    
    58   28  152 1    
    59   28  153 1    
    60   29   30 am   BACKBONE|DICT|INTERRES
    61   29  154 1    
    62   30   31 2    
    63   30   32 1    
    64   32   33 1    
    65   32   34 1    
    66   32  155 1    
    67   33  156 1    
    68   33  157 1    
    69   33  158 1    
    70   34   35 am   BACKBONE|DICT|INTERRES
    71   34  159 1    
    72   35   36 2    
    73   35   37 1    
    74   37   38 1    
    75   37   39 1    
    76   37  160 1    
    77   38  161 1    
    78   38  162 1    
    79   38  163 1    
    80   39   40 am   BACKBONE|DICT|INTERRES
    81   39  164 1    
    82   40   41 2    
    83   40   42 1    
    84   42   43 1    
    85   42   44 1    
    86   42  165 1    
    87   43  166 1    
    88   43  167 1    
    89   43  168 1    
    90   44   45 am   BACKBONE|DICT|INTERRES
    91   44  169 1    
    92   45   46 2    
    93   45   47 1    
    94   47   48 1    
    95   47   49 1    
    96   47  170 1    
    97   48  171 1    
    98   48  172 1    
    99   48  173 1    
   100   49   50 am   BACKBONE|DICT|INTERRES
   101   49  174 1    
   102   50   51 2    
   103   50   52 1    
   104   52   53 1    
   105   52   54 1    
   106   52  175 1    
   107   53  176 1    
   108   53  177 1    
   109   53  178 1    
   110   54   55 am   BACKBONE|DICT|INTERRES
   111   54  179 1    
   112   55   56 2    
   113   55   57 1    
   114   57   58 1    
   115   57   59 1    
   116   57  180 1    
   117   58  181 1    
   118   58  182 1    
   119   58  183 1    
   120   59   60 am   BACKBONE|DICT|INTERRES
   121   59  184 1    
   122   60   61 2    
   123   60   62 1    
   124   62   63 1    
   125   62   64 1    
   126   62  185 1    
   127   63  186 1    
   128   63  187 1    
   129   63  188 1    
   130   64   65 am   BACKBONE|DICT|INTERRES
   131   64  189 1    
   132   65   66 2    
   133   67   68 2    
   134   67   69 am   BACKBONE|DICT|INTERRES
   135   69   70 1    
   136   69  190 1    
   137   70   71 1    
   138   70   72 1    
   139   70  191 1    
   140   71  192 1    
   141   71  193 1    
   142   71  194 1    
   143   72   73 2    
   144   72   74 am   BACKBONE|DICT|INTERRES
   145   74   75 1    
   146   74  195 1    
   147   75   76 1    
   148   75   77 1    
   149   75  196 1    
   150   76  197 1    
   151   76  198 1    
   152   76  199 1    
   153   77   78 2    
   154   77   79 am   BACKBONE|DICT|INTERRES
   155   79   80 1    
   156   79  200 1    
   157   80   81 1    
   158   80   82 1    
   159   80  201 1    
   160   81  202 1    
   161   81  203 1    
   162   81  204 1    
   163   82   83 2    
   164   82   84 am   BACKBONE|DICT|INTERRES
   165   84   85 1    
   166   84  205 1    
   167   85   86 1    
   168   85   87 1    
   169   85  206 1    
   170   86  207 1    
   171   86  208 1    
   172   86  209 1    
   173   87   88 2    
   174   87   89 am   BACKBONE|DICT|INTERRES
   175   89   90 1    
   176   89  210 1    
   177   90   91 1    
   178   90   92 1    
   179   90  211 1    
   180   91  212 1    
   181   91  213 1    
   182   91  214 1    
   183   92   93 2    
   184   92   94 am   BACKBONE|DICT|INTERRES
   185   94   95 1    
   186   94  215 1    
   187   95   96 1    
   188   95   97 1    
   189   95  216 1    
   190   96  217 1    
   191   96  218 1    
   192   96  219 1    
   193   97   98 2    
   194   97   99 am   BACKBONE|DICT|INTERRES
   195   99  100 1    
   196   99  220 1    
   197  100  101 1    
   198  100  102 1    
   199  100  221 1    
   200  101  222 1    
   201  101  223 1    
   202  101  224 1    
   203  102  103 2    
   204  102  104 am   BACKBONE|DICT|INTERRES
   205  104  105 1    
   206  104  225 1    
   207  105  106 1    
   208  105  107 1    
   209  105  226 1    
   210  106  227 1    
   211  106  228 1    
   212  106  229 1    
   213  107  108 2    
   214  107  109 am   BACKBONE|DICT|INTERRES
   215  109  110 1    
   216  109  230 1    
   217  110  111 1    
   218  110  112 1    
   219  110  231 1    
   220  111  232 1    
   221  111  233 1    
   222  111  234 1    
   223  112  113 2    
   224  112  114 am   BACKBONE|DICT|INTERRES
   225  114  115 1    
   226  114  235 1    
   227  115  116 1    
   228  115  117 1    
   229  115  236 1    
   230  116  237 1    
   231  116  238 1    
   232  116  239 1    
   233  117  118 2    
   234  117  119 am   BACKBONE|DICT|INTERRES
   235  119  120 1    
   236  119  240 1    
   237  120  121 1    
   238  120  124 1    
   239  120  241 1    
   240  121  122 am   BACKBONE|DICT|INTERRES
   241  121  123 2    
   242  122  242 1    
   243  122  243 1    
   244  124  125 1    
   245  124  244 1    
   246  124  245 1    
   247  125  126 1    
   248  126  246 1    
   249  126  247 1    
@<TRIPOS>SUBSTRUCTURE
     1 UNK         1 GROUP             0       ****    0 ROOT    
