@<TRIPOS>MOLECULE
3R540
247   249    1
SMALL
USER_CHARGES


@<TRIPOS>ATOM
      1 CA         -0.9508  -16.2670  -50.6170 C.3       0 UNK        -0.1800 
      2 C          -0.6529  -16.1651  -49.1294 C.2       0 UNK         0.5000 
      3 O           0.5030  -16.2832  -48.7243 O.2       0 UNK        -0.5000 
      4 N          -1.6908  -15.9252  -48.3181 N.am      1 UNK        -0.5000 
      5 CA         -1.5977  -15.7192  -46.8675 C.3       1 UNK         0.1400 
      6 C6         -2.9695  -15.8720  -46.1606 C.3       23 UNK        -0.0398 
      7 S7         -4.3145  -14.8615  -46.8776 S.3       23 UNK        -0.2404 
      8 C8         -5.4733  -16.1383  -47.4673 C.3       23 UNK        -0.0205 
      9 C9         -4.9585  -16.8419  -48.7137 C.ar      23 UNK        -0.0193 
     10 C10        -5.0968  -16.2342  -49.9643 C.ar      23 UNK        -0.1150 
     11 C11        -4.6270  -16.8666  -51.1184 C.ar      23 UNK        -0.0193 
     12 C12        -4.0073  -18.1146  -51.0145 C.ar      23 UNK        -0.1150 
     13 C13        -3.8611  -18.7312  -49.7687 C.ar      23 UNK        -0.0193 
     14 C14        -4.3484  -18.0965  -48.6227 C.ar      23 UNK        -0.1150 
     15 C15        -3.1751  -20.0826  -49.6699 C.3       23 UNK        -0.0205 
     16 S16        -1.3725  -19.9010  -49.5026 S.3       23 UNK        -0.2404 
     17 C17        -1.1393  -19.7655  -47.6953 C.3       23 UNK        -0.0398 
     18 CA         -0.7763  -21.1406  -47.0777 C.3       11 UNK         0.1400 
     19 N           0.2688  -21.0712  -46.0545 N.am      11 UNK        -0.5000 
     20 C           0.9778  -22.1421  -45.6662 C.2       10 UNK         0.5000 
     21 O           0.8078  -23.2740  -46.1225 O.2       10 UNK        -0.5000 
     22 CA          2.0213  -21.9277  -44.5579 C.3       10 UNK         0.1400 
     23 CB          3.2663  -21.2158  -45.1077 C.3       10 UNK        -0.1800 
     24 N           1.4849  -21.1886  -43.4160 N.am      10 UNK        -0.5000 
     25 C           0.4808  -21.6220  -42.6398 C.2       9 UNK         0.5000 
     26 O          -0.0884  -22.7028  -42.7948 O.2       9 UNK        -0.5000 
     27 CA          0.0040  -20.6728  -41.5269 C.3       9 UNK         0.1400 
     28 CB          0.9514  -20.7325  -40.3195 C.3       9 UNK        -0.1800 
     29 N          -0.1339  -19.2881  -41.9799 N.am      9 UNK        -0.5000 
     30 C          -0.9748  -18.8846  -42.9428 C.2       8 UNK         0.5000 
     31 O          -1.7387  -19.6352  -43.5465 O.2       8 UNK        -0.5000 
     32 CA         -0.9137  -17.4057  -43.3509 C.3       8 UNK         0.1400 
     33 CB         -1.5979  -16.5034  -42.3148 C.3       8 UNK        -0.1800 
     34 N           0.4508  -16.9470  -43.5900 N.am      8 UNK        -0.5000 
     35 C           1.2697  -17.4483  -44.5252 C.2       7 UNK         0.5000 
     36 O           0.9481  -18.3335  -45.3189 O.2       7 UNK        -0.5000 
     37 CA          2.7085  -16.9079  -44.5325 C.3       7 UNK         0.1400 
     38 CB          2.7845  -15.5479  -45.2428 C.3       7 UNK        -0.1800 
     39 N           3.2518  -16.7917  -43.1784 N.am      7 UNK        -0.5000 
     40 C           3.5159  -17.8342  -42.3771 C.2       6 UNK         0.5000 
     41 O           3.3608  -19.0099  -42.7057 O.2       6 UNK        -0.5000 
     42 CA          3.9927  -17.5026  -40.9523 C.3       6 UNK         0.1400 
     43 CB          5.4872  -17.1479  -40.9454 C.3       6 UNK        -0.1800 
     44 N           3.2288  -16.4104  -40.3485 N.am      6 UNK        -0.5000 
     45 C           1.9290  -16.4837  -40.0292 C.2       5 UNK         0.5000 
     46 O           1.2395  -17.4896  -40.1894 O.2       5 UNK        -0.5000 
     47 CA          1.2802  -15.2035  -39.4744 C.3       5 UNK         0.1400 
     48 CB          1.4819  -15.1109  -37.9546 C.3       5 UNK        -0.1800 
     49 N           1.7759  -13.9785  -40.1077 N.am      5 UNK        -0.5000 
     50 C           1.6307  -13.6833  -41.4056 C.2       4 UNK         0.5000 
     51 O           1.1140  -14.4406  -42.2297 O.2       4 UNK        -0.5000 
     52 CA          2.1812  -12.3306  -41.8666 C.3       4 UNK         0.1400 
     53 CB          3.5760  -12.4927  -42.4927 C.3       4 UNK        -0.1800 
     54 N           1.2644  -11.7687  -42.8527 N.am      4 UNK        -0.5000 
     55 C           0.9057  -10.4807  -42.9228 C.2       3 UNK         0.5000 
     56 O           1.3592   -9.6077  -42.1805 O.2       3 UNK        -0.5000 
     57 CA         -0.1107  -10.1100  -44.0179 C.3       3 UNK         0.1400 
     58 CB         -0.1587   -8.5998  -44.3219 C.3       3 UNK        -0.1800 
     59 N           0.1873  -10.8514  -45.2402 N.am      3 UNK        -0.5000 
     60 C          -0.7173  -11.3091  -46.1113 C.2       2 UNK         0.5000 
     61 O          -1.9293  -11.1095  -46.0064 O.2       2 UNK        -0.5000 
     62 CA         -0.1900  -12.1294  -47.3092 C.3       2 UNK         0.1400 
     63 CB          1.3455  -12.3149  -47.3302 C.3       2 UNK        -0.1800 
     64 N          -0.8512  -13.4320  -47.4147 N.am      2 UNK        -0.5000 
     65 C          -0.9002  -14.3950  -46.4800 C.2       1 UNK         0.5000 
     66 O          -0.4096  -14.2855  -45.3564 O.2       1 UNK        -0.5000 
     67 C          -2.0184  -21.9131  -46.5908 C.2       11 UNK         0.5000 
     68 O          -2.6141  -22.6333  -47.3864 O.2       11 UNK        -0.5000 
     69 N          -2.3703  -21.8094  -45.3005 N.am      12 UNK        -0.5000 
     70 CA         -3.4461  -22.5935  -44.6860 C.3       12 UNK         0.1400 
     71 CB         -3.7303  -22.0806  -43.2665 C.3       12 UNK        -0.1800 
     72 C          -3.1494  -24.1049  -44.6661 C.2       12 UNK         0.5000 
     73 O          -4.0601  -24.9004  -44.8988 O.2       12 UNK        -0.5000 
     74 N          -1.8846  -24.4716  -44.4139 N.am      13 UNK        -0.5000 
     75 CA         -1.4027  -25.8521  -44.4563 C.3       13 UNK         0.1400 
     76 CB         -0.0141  -25.9341  -43.8039 C.3       13 UNK        -0.1800 
     77 C          -1.3744  -26.4236  -45.8864 C.2       13 UNK         0.5000 
     78 O          -1.7787  -27.5695  -46.0878 O.2       13 UNK        -0.5000 
     79 N          -0.9080  -25.6177  -46.8507 N.am      14 UNK        -0.5000 
     80 CA         -0.8598  -25.9714  -48.2716 C.3       14 UNK         0.1400 
     81 CB          0.0757  -24.9959  -48.9978 C.3       14 UNK        -0.1800 
     82 C          -2.2488  -25.9977  -48.9409 C.2       14 UNK         0.5000 
     83 O          -2.4768  -26.8160  -49.8324 O.2       14 UNK        -0.5000 
     84 N          -3.1467  -25.1110  -48.4926 N.am      15 UNK        -0.5000 
     85 CA         -4.5137  -24.8970  -48.9654 C.3       15 UNK         0.1400 
     86 CB         -5.4000  -26.1169  -48.6266 C.3       15 UNK        -0.1800 
     87 C          -4.5501  -24.4733  -50.4495 C.2       15 UNK         0.5000 
     88 O          -3.6789  -23.7244  -50.8969 O.2       15 UNK        -0.5000 
     89 N          -5.5466  -24.9613  -51.1999 N.am      16 UNK        -0.5000 
     90 CA         -5.7435  -24.6860  -52.6265 C.3       16 UNK         0.1400 
     91 CB         -7.1113  -25.2424  -53.0518 C.3       16 UNK        -0.1800 
     92 C          -4.6277  -25.2383  -53.5384 C.2       16 UNK         0.5000 
     93 O          -4.5339  -24.8207  -54.6917 O.2       16 UNK        -0.5000 
     94 N          -3.7997  -26.1524  -53.0146 N.am      17 UNK        -0.5000 
     95 CA         -2.6466  -26.7292  -53.7024 C.3       17 UNK         0.1400 
     96 CB         -2.3803  -28.1331  -53.1343 C.3       17 UNK        -0.1800 
     97 C          -1.3819  -25.8475  -53.6262 C.2       17 UNK         0.5000 
     98 O          -0.3687  -26.2324  -54.2115 O.2       17 UNK        -0.5000 
     99 N          -1.4390  -24.7045  -52.9189 N.am      18 UNK        -0.5000 
    100 CA        -0.3457  -23.7328  -52.7933 C.3       18 UNK         0.1400 
    101 CB        -0.7410  -22.5769  -51.8577 C.3       18 UNK        -0.1800 
    102 C          0.2315  -23.2349  -54.1415 C.2       18 UNK         0.5000 
    103 O          1.4403  -23.3534  -54.3347 O.2       18 UNK        -0.5000 
    104 N         -0.5659  -22.7511  -55.1075 N.am      19 UNK        -0.5000 
    105 CA        -1.9369  -22.2392  -54.9928 C.3       19 UNK         0.1400 
    106 CB        -2.6892  -22.5831  -56.2867 C.3       19 UNK        -0.1800 
    107 C         -1.9487  -20.7112  -54.7724 C.2       19 UNK         0.5000 
    108 O         -2.9706  -20.1671  -54.3523 O.2       19 UNK        -0.5000 
    109 N         -0.8154  -20.0531  -55.0699 N.am      20 UNK        -0.5000 
    110 CA        -0.6033  -18.6030  -55.0969 C.3       20 UNK         0.1400 
    111 CB        -0.7169  -18.0125  -53.6743 C.3       20 UNK        -0.1800 
    112 C         -1.5147  -17.9070  -56.1331 C.2       20 UNK         0.5000 
    113 O         -1.9289  -18.5363  -57.1109 O.2       20 UNK        -0.5000 
    114 N         -1.8335  -16.6258  -55.9021 N.am      21 UNK        -0.5000 
    115 CA        -2.7471  -15.8216  -56.7247 C.3       21 UNK         0.1400 
    116 CB        -2.7052  -14.3682  -56.2277 C.3       21 UNK        -0.1800 
    117 C         -4.2005  -16.3439  -56.7340 C.2       21 UNK         0.5000 
    118 O         -4.9682  -15.9985  -57.6328 O.2       21 UNK        -0.5000 
    119 N         -4.5378  -17.1698  -55.7383 N.am      22 UNK        -0.5000 
    120 CA        -5.8194  -17.8671  -55.5848 C.3       22 UNK         0.1400 
    121 C         -5.9038  -19.2015  -56.3856 C.2       22 UNK         0.5000 
    122 N         -4.8617  -19.6379  -57.0855 N.am      22 UNK        -0.7600 
    123 O         -6.9501  -19.8442  -56.3944 O.2       22 UNK        -0.5000 
    124 C124       -6.1572  -18.0695  -54.0842 C.3       23 UNK        -0.0398 
    125 S125       -6.3974  -16.4762  -53.2199 S.3       23 UNK        -0.2404 
    126 C126       -4.7650  -16.1808  -52.4673 C.3       23 UNK        -0.0205 
    127 H127       -0.9630  -17.3121  -50.9210 H         1 UNK         0.0600 
    128 H128       -0.1846  -15.7500  -51.1945 H         1 UNK         0.0600 
    129 H129       -1.9155  -15.8252  -50.8653 H         1 UNK         0.0600 
    130 H130       -2.6235  -15.8627  -48.7036 H         1 UNK         0.3000 
    131 H131       -0.9526  -16.5117  -46.4838 H         1 UNK         0.0600 
    132 H132       -3.2609  -16.9220  -46.1739 H         1 UNK         0.0800 
    133 H133       -2.8898  -15.6143  -45.1031 H         1 UNK         0.0800 
    134 H134       -5.6717  -16.8556  -46.6693 H         1 UNK         0.0800 
    135 H135       -6.4306  -15.6651  -47.6911 H         1 UNK         0.0800 
    136 H136       -5.5701  -15.2649  -50.0390 H         1 UNK         0.1150 
    137 H137       -3.6296  -18.6063  -51.9002 H         1 UNK         0.1150 
    138 H138       -4.2463  -18.5763  -47.6601 H         1 UNK         0.1150 
    139 H139       -3.5833  -20.6590  -48.8400 H         1 UNK         0.0800 
    140 H140       -3.3821  -20.6666  -50.5684 H         1 UNK         0.0800 
    141 H141       -0.3205  -19.0597  -47.5512 H         1 UNK         0.0800 
    142 H142       -2.0063  -19.3069  -47.2182 H         1 UNK         0.0800 
    143 H143       -0.3450  -21.7492  -47.8759 H         1 UNK         0.0600 
    144 H144        0.4672  -20.1592  -45.6499 H         1 UNK         0.3000 
    145 H145        2.3277  -22.9127  -44.1996 H         1 UNK         0.0600 
    146 H146        4.0514  -21.1590  -44.3537 H         1 UNK         0.0600 
    147 H147        3.6772  -21.7515  -45.9644 H         1 UNK         0.0600 
    148 H148        3.0406  -20.1996  -45.4320 H         1 UNK         0.0600 
    149 H149        1.9264  -20.2991  -43.2033 H         1 UNK         0.3000 
    150 H150       -0.9809  -21.0136  -41.2016 H         1 UNK         0.0600 
    151 H151        1.0699  -21.7570  -39.9646 H         1 UNK         0.0600 
    152 H152        0.5657  -20.1430  -39.4876 H         1 UNK         0.0600 
    153 H153        1.9431  -20.3519  -40.5668 H         1 UNK         0.0600 
    154 H154        0.4463  -18.5983  -41.5089 H         1 UNK         0.3000 
    155 H155       -1.4574  -17.3145  -44.2897 H         1 UNK         0.0600 
    156 H156       -1.6071  -15.4643  -42.6456 H         1 UNK         0.0600 
    157 H157       -1.0929  -16.5419  -41.3500 H         1 UNK         0.0600 
    158 H158       -2.6337  -16.8059  -42.1571 H         1 UNK         0.0600 
    159 H159        0.7775  -16.1724  -43.0188 H         1 UNK         0.3000 
    160 H160        3.3273  -17.6158  -45.0878 H         1 UNK         0.0600 
    161 H161        2.2135  -14.7844  -44.7144 H         1 UNK         0.0600 
    162 H162        2.3801  -15.6136  -46.2541 H         1 UNK         0.0600 
    163 H163        3.8144  -15.2008  -45.3246 H         1 UNK         0.0600 
    164 H164        3.3561  -15.8589  -42.8094 H         1 UNK         0.3000 
    165 H165        3.8513  -18.3948  -40.3384 H         1 UNK         0.0600 
    166 H166        5.6916  -16.2426  -41.5184 H         1 UNK         0.0600 
    167 H167        5.8500  -16.9913  -39.9294 H         1 UNK         0.0600 
    168 H168        6.0806  -17.9531  -41.3806 H         1 UNK         0.0600 
    169 H169        3.7177  -15.5432  -40.1834 H         1 UNK         0.3000 
    170 H170        0.2080  -15.2675  -39.6704 H         1 UNK         0.0600 
    171 H171        1.1034  -16.0042  -37.4557 H         1 UNK         0.0600 
    172 H172        2.5358  -15.0101  -37.6923 H         1 UNK         0.0600 
    173 H173        0.9480  -14.2571  -37.5370 H         1 UNK         0.0600 
    174 H174        2.2219  -13.3078  -39.4984 H         1 UNK         0.3000 
    175 H175        2.2531  -11.6736  -40.9971 H         1 UNK         0.0600 
    176 H176        3.9824  -11.5286  -42.7985 H         1 UNK         0.0600 
    177 H177        4.2774  -12.9301  -41.7813 H         1 UNK         0.0600 
    178 H178        3.5516  -13.1374  -43.3718 H         1 UNK         0.0600 
    179 H179        0.8051  -12.4517  -43.4443 H         1 UNK         0.3000 
    180 H180       -1.0877  -10.4150  -43.6373 H         1 UNK         0.0600 
    181 H181       -0.9097   -8.3730  -45.0788 H         1 UNK         0.0600 
    182 H182       -0.4172   -8.0267  -43.4307 H         1 UNK         0.0600 
    183 H183        0.8028   -8.2341  -44.6838 H         1 UNK         0.0600 
    184 H184        1.1615  -11.0746  -45.3903 H         1 UNK         0.3000 
    185 H185       -0.4665  -11.5698  -48.2038 H         1 UNK         0.0600 
    186 H186        1.6548  -12.8809  -48.2092 H         1 UNK         0.0600 
    187 H187        1.8612  -11.3549  -47.3740 H         1 UNK         0.0600 
    188 H188        1.7079  -12.8527  -46.4533 H         1 UNK         0.0600 
    189 H189       -1.3216  -13.6140  -48.2890 H         1 UNK         0.3000 
    190 H190       -1.8823  -21.1558  -44.6936 H         1 UNK         0.3000 
    191 H191       -4.3485  -22.4445  -45.2827 H         1 UNK         0.0600 
    192 H192       -4.5231  -22.6601  -42.7919 H         1 UNK         0.0600 
    193 H193       -4.0557  -21.0404  -43.2819 H         1 UNK         0.0600 
    194 H194       -2.8477  -22.1477  -42.6301 H         1 UNK         0.0600 
    195 H195       -1.2051  -23.7582  -44.1710 H         1 UNK         0.3000 
    196 H196       -2.0864  -26.4665  -43.8668 H         1 UNK         0.0600 
    197 H197        0.3604  -26.9584  -43.8094 H         1 UNK         0.0600 
    198 H198       -0.0480  -25.6054  -42.7651 H         1 UNK         0.0600 
    199 H199        0.7157  -25.3142  -44.3252 H         1 UNK         0.0600 
    200 H200       -0.5377  -24.7088  -46.5912 H         1 UNK         0.3000 
    201 H201       -0.4349  -26.9735  -48.3606 H         1 UNK         0.0600 
    202 H202        1.0904  -25.0566  -48.6043 H         1 UNK         0.0600 
    203 H203       -0.2623  -23.9659  -48.8869 H         1 UNK         0.0600 
    204 H204        0.1239  -25.2207  -50.0635 H         1 UNK         0.0600 
    205 H205       -2.8205  -24.3952  -47.8480 H         1 UNK         0.3000 
    206 H206       -4.8939  -24.0450  -48.4004 H         1 UNK         0.0600 
    207 H207       -5.3026  -26.3844  -47.5740 H         1 UNK         0.0600 
    208 H208       -6.4551  -25.9041  -48.8015 H         1 UNK         0.0600 
    209 H209       -5.1318  -26.9949  -49.2154 H         1 UNK         0.0600 
    210 H210       -6.2169  -25.5794  -50.7661 H         1 UNK         0.3000 
    211 H211       -5.7585  -23.6020  -52.7588 H         1 UNK         0.0600 
    212 H212       -7.1620  -26.3245  -52.9246 H         1 UNK         0.0600 
    213 H213       -7.3133  -25.0256  -54.1018 H         1 UNK         0.0600 
    214 H214       -7.9180  -24.7962  -52.4698 H         1 UNK         0.0600 
    215 H215       -3.9254  -26.4224  -52.0487 H         1 UNK         0.3000 
    216 H216       -2.8904  -26.8430  -54.7609 H         1 UNK         0.0600 
    217 H217       -1.5843  -28.6345  -53.6862 H         1 UNK         0.0600 
    218 H218       -3.2672  -28.7631  -53.2048 H         1 UNK         0.0600 
    219 H219       -2.0768  -28.0955  -52.0885 H         1 UNK         0.0600 
    220 H220       -2.2979  -24.4780  -52.4316 H         1 UNK         0.3000 
    221 H221        0.4692  -24.2649  -52.2987 H         1 UNK         0.0600 
    222 H222       -1.6439  -22.0602  -52.1772 H         1 UNK         0.0600 
    223 H223       -0.9294  -22.9374  -50.8480 H         1 UNK         0.0600 
    224 H224        0.0551  -21.8343  -51.7913 H         1 UNK         0.0600 
    225 H225       -0.1366  -22.5820  -56.0047 H         1 UNK         0.3000 
    226 H226       -2.4756  -22.7038  -54.1694 H         1 UNK         0.0600 
    227 H227       -2.6793  -23.6570  -56.4741 H         1 UNK         0.0600 
    228 H228       -3.7342  -22.2778  -56.2190 H         1 UNK         0.0600 
    229 H229       -2.2550  -22.0850  -57.1546 H         1 UNK         0.0600 
    230 H230       -0.0390  -20.6022  -55.4073 H         1 UNK         0.3000 
    231 H231        0.4208  -18.4516  -55.4404 H         1 UNK         0.0600 
    232 H232       -0.3424  -16.9893  -53.6359 H         1 UNK         0.0600 
    233 H233       -0.1270  -18.5915  -52.9633 H         1 UNK         0.0600 
    234 H234       -1.7464  -18.0036  -53.3165 H         1 UNK         0.0600 
    235 H235       -1.4468  -16.1704  -55.0883 H         1 UNK         0.3000 
    236 H236       -2.3845  -15.8459  -57.7544 H         1 UNK         0.0600 
    237 H237       -3.0449  -14.2870  -55.1942 H         1 UNK         0.0600 
    238 H238       -1.6961  -13.9595  -56.2843 H         1 UNK         0.0600 
    239 H239       -3.3471  -13.7285  -56.8349 H         1 UNK         0.0600 
    240 H240       -3.8209  -17.4293  -55.0788 H         1 UNK         0.3000 
    241 H241       -6.5998  -17.2328  -56.0095 H         1 UNK         0.0600 
    242 H242       -3.9800  -19.1404  -57.0772 H         1 UNK         0.3800 
    243 H243       -4.9473  -20.4929  -57.6101 H         1 UNK         0.3800 
    244 H244       -7.0840  -18.6348  -53.9736 H         1 UNK         0.0800 
    245 H245       -5.3844  -18.6579  -53.5878 H         1 UNK         0.0800 
    246 H246       -4.6330  -15.1053  -52.3397 H         1 UNK         0.0800 
    247 H247       -3.9688  -16.4993  -53.1398 H         1 UNK         0.0800 
@<TRIPOS>BOND
     1    1    2 1    
     2    1  127 1    
     3    1  128 1    
     4    1  129 1    
     5    2    3 2    
     6    2    4 am   BACKBONE|DICT|INTERRES
     7    4    5 1    
     8    4  130 1    
     9    5    6 1    
    10    5   65 1    
    11    5  131 1    
    12    6    7 1    
    13    6  132 1    
    14    6  133 1    
    15    7    8 1    
    16    8    9 1    
    17    8  134 1    
    18    8  135 1    
    19    9   10 ar   
    20    9   14 ar   
    21   10   11 ar   
    22   10  136 1    
    23   11   12 ar   
    24   11  126 1    
    25   12   13 ar   
    26   12  137 1    
    27   13   14 ar   
    28   13   15 1    
    29   14  138 1    
    30   15   16 1    
    31   15  139 1    
    32   15  140 1    
    33   16   17 1    
    34   17   18 1    
    35   17  141 1    
    36   17  142 1    
    37   18   19 1    
    38   18   67 1    
    39   18  143 1    
    40   19   20 am   BACKBONE|DICT|INTERRES
    41   19  144 1    
    42   20   21 2    
    43   20   22 1    
    44   22   23 1    
    45   22   24 1    
    46   22  145 1    
    47   23  146 1    
    48   23  147 1    
    49   23  148 1    
    50   24   25 am   BACKBONE|DICT|INTERRES
    51   24  149 1    
    52   25   26 2    
    53   25   27 1    
    54   27   28 1    
    55   27   29 1    
    56   27  150 1    
    57   28  151 1    
    58   28  152 1    
    59   28  153 1    
    60   29   30 am   BACKBONE|DICT|INTERRES
    61   29  154 1    
    62   30   31 2    
    63   30   32 1    
    64   32   33 1    
    65   32   34 1    
    66   32  155 1    
    67   33  156 1    
    68   33  157 1    
    69   33  158 1    
    70   34   35 am   BACKBONE|DICT|INTERRES
    71   34  159 1    
    72   35   36 2    
    73   35   37 1    
    74   37   38 1    
    75   37   39 1    
    76   37  160 1    
    77   38  161 1    
    78   38  162 1    
    79   38  163 1    
    80   39   40 am   BACKBONE|DICT|INTERRES
    81   39  164 1    
    82   40   41 2    
    83   40   42 1    
    84   42   43 1    
    85   42   44 1    
    86   42  165 1    
    87   43  166 1    
    88   43  167 1    
    89   43  168 1    
    90   44   45 am   BACKBONE|DICT|INTERRES
    91   44  169 1    
    92   45   46 2    
    93   45   47 1    
    94   47   48 1    
    95   47   49 1    
    96   47  170 1    
    97   48  171 1    
    98   48  172 1    
    99   48  173 1    
   100   49   50 am   BACKBONE|DICT|INTERRES
   101   49  174 1    
   102   50   51 2    
   103   50   52 1    
   104   52   53 1    
   105   52   54 1    
   106   52  175 1    
   107   53  176 1    
   108   53  177 1    
   109   53  178 1    
   110   54   55 am   BACKBONE|DICT|INTERRES
   111   54  179 1    
   112   55   56 2    
   113   55   57 1    
   114   57   58 1    
   115   57   59 1    
   116   57  180 1    
   117   58  181 1    
   118   58  182 1    
   119   58  183 1    
   120   59   60 am   BACKBONE|DICT|INTERRES
   121   59  184 1    
   122   60   61 2    
   123   60   62 1    
   124   62   63 1    
   125   62   64 1    
   126   62  185 1    
   127   63  186 1    
   128   63  187 1    
   129   63  188 1    
   130   64   65 am   BACKBONE|DICT|INTERRES
   131   64  189 1    
   132   65   66 2    
   133   67   68 2    
   134   67   69 am   BACKBONE|DICT|INTERRES
   135   69   70 1    
   136   69  190 1    
   137   70   71 1    
   138   70   72 1    
   139   70  191 1    
   140   71  192 1    
   141   71  193 1    
   142   71  194 1    
   143   72   73 2    
   144   72   74 am   BACKBONE|DICT|INTERRES
   145   74   75 1    
   146   74  195 1    
   147   75   76 1    
   148   75   77 1    
   149   75  196 1    
   150   76  197 1    
   151   76  198 1    
   152   76  199 1    
   153   77   78 2    
   154   77   79 am   BACKBONE|DICT|INTERRES
   155   79   80 1    
   156   79  200 1    
   157   80   81 1    
   158   80   82 1    
   159   80  201 1    
   160   81  202 1    
   161   81  203 1    
   162   81  204 1    
   163   82   83 2    
   164   82   84 am   BACKBONE|DICT|INTERRES
   165   84   85 1    
   166   84  205 1    
   167   85   86 1    
   168   85   87 1    
   169   85  206 1    
   170   86  207 1    
   171   86  208 1    
   172   86  209 1    
   173   87   88 2    
   174   87   89 am   BACKBONE|DICT|INTERRES
   175   89   90 1    
   176   89  210 1    
   177   90   91 1    
   178   90   92 1    
   179   90  211 1    
   180   91  212 1    
   181   91  213 1    
   182   91  214 1    
   183   92   93 2    
   184   92   94 am   BACKBONE|DICT|INTERRES
   185   94   95 1    
   186   94  215 1    
   187   95   96 1    
   188   95   97 1    
   189   95  216 1    
   190   96  217 1    
   191   96  218 1    
   192   96  219 1    
   193   97   98 2    
   194   97   99 am   BACKBONE|DICT|INTERRES
   195   99  100 1    
   196   99  220 1    
   197  100  101 1    
   198  100  102 1    
   199  100  221 1    
   200  101  222 1    
   201  101  223 1    
   202  101  224 1    
   203  102  103 2    
   204  102  104 am   BACKBONE|DICT|INTERRES
   205  104  105 1    
   206  104  225 1    
   207  105  106 1    
   208  105  107 1    
   209  105  226 1    
   210  106  227 1    
   211  106  228 1    
   212  106  229 1    
   213  107  108 2    
   214  107  109 am   BACKBONE|DICT|INTERRES
   215  109  110 1    
   216  109  230 1    
   217  110  111 1    
   218  110  112 1    
   219  110  231 1    
   220  111  232 1    
   221  111  233 1    
   222  111  234 1    
   223  112  113 2    
   224  112  114 am   BACKBONE|DICT|INTERRES
   225  114  115 1    
   226  114  235 1    
   227  115  116 1    
   228  115  117 1    
   229  115  236 1    
   230  116  237 1    
   231  116  238 1    
   232  116  239 1    
   233  117  118 2    
   234  117  119 am   BACKBONE|DICT|INTERRES
   235  119  120 1    
   236  119  240 1    
   237  120  121 1    
   238  120  124 1    
   239  120  241 1    
   240  121  122 am   BACKBONE|DICT|INTERRES
   241  121  123 2    
   242  122  242 1    
   243  122  243 1    
   244  124  125 1    
   245  124  244 1    
   246  124  245 1    
   247  125  126 1    
   248  126  246 1    
   249  126  247 1    
@<TRIPOS>SUBSTRUCTURE
     1 UNK         1 GROUP             0       ****    0 ROOT    
