@<TRIPOS>MOLECULE
3R540
247   249    1
SMALL
USER_CHARGES


@<TRIPOS>ATOM
      1 CA          5.7908  -11.3980  -48.5248 C.3       0 UNK        -0.1800 
      2 C           4.7872  -12.4935  -48.1944 C.2       0 UNK         0.5000 
      3 O           4.1200  -12.4220  -47.1638 O.2       0 UNK        -0.5000 
      4 N           4.6789  -13.5037  -49.0655 N.am      1 UNK        -0.5000 
      5 CA          3.7531  -14.6372  -48.9370 C.3       1 UNK         0.1400 
      6 C6          4.2789  -15.8808  -49.6989 C.3       23 UNK        -0.0398 
      7 S7          4.4855  -15.6106  -51.4994 S.3       23 UNK        -0.2404 
      8 C8          4.6287  -17.3140  -52.1351 C.3       23 UNK        -0.0205 
      9 C9          3.4359  -18.1886  -51.7706 C.ar      23 UNK        -0.0193 
     10 C10         2.1430  -17.8283  -52.1631 C.ar      23 UNK        -0.1150 
     11 C11         1.0385  -18.6017  -51.7855 C.ar      23 UNK        -0.0193 
     12 C12         1.2534  -19.7826  -51.0669 C.ar      23 UNK        -0.1150 
     13 C13         2.5384  -20.1489  -50.6585 C.ar      23 UNK        -0.0193 
     14 C14         3.6260  -19.3493  -51.0161 C.ar      23 UNK        -0.1150 
     15 C15         2.7528  -21.3971  -49.8179 C.3       23 UNK        -0.0205 
     16 S16         2.7692  -21.0107  -48.0358 S.3       23 UNK        -0.2404 
     17 C17         3.1339  -22.6648  -47.3457 C.3       23 UNK        -0.0398 
     18 CA          1.9455  -23.3998  -46.6754 C.3       11 UNK         0.1400 
     19 N           1.4999  -22.7731  -45.4264 N.am      11 UNK        -0.5000 
     20 C           0.7557  -23.4091  -44.5098 C.2       10 UNK         0.5000 
     21 O           0.3990  -24.5800  -44.6391 O.2       10 UNK        -0.5000 
     22 CA          0.2587  -22.6191  -43.2860 C.3       10 UNK         0.1400 
     23 CB          0.3175  -23.4459  -41.9851 C.3       10 UNK        -0.1800 
     24 N           0.8785  -21.3070  -43.1105 N.am      10 UNK        -0.5000 
     25 C           2.1338  -21.0124  -42.7477 C.2       9 UNK         0.5000 
     26 O           3.0154  -21.8512  -42.5618 O.2       9 UNK        -0.5000 
     27 CA          2.4592  -19.5155  -42.5686 C.3       9 UNK         0.1400 
     28 CB          3.3237  -19.0225  -43.7397 C.3       9 UNK        -0.1800 
     29 N           1.2613  -18.6732  -42.4706 N.am      9 UNK        -0.5000 
     30 C           0.4232  -18.6347  -41.4239 C.2       8 UNK         0.5000 
     31 O           0.6208  -19.2373  -40.3686 O.2       8 UNK        -0.5000 
     32 CA         -0.8786  -17.8300  -41.6086 C.3       8 UNK         0.1400 
     33 CB         -0.6347  -16.3308  -41.3804 C.3       8 UNK        -0.1800 
     34 N          -1.4843  -18.0325  -42.9277 N.am      8 UNK        -0.5000 
     35 C          -2.0180  -19.1843  -43.3617 C.2       7 UNK         0.5000 
     36 O          -2.1018  -20.1998  -42.6731 O.2       7 UNK        -0.5000 
     37 CA         -2.4836  -19.2311  -44.8276 C.3       7 UNK         0.1400 
     38 CB         -3.9106  -18.6857  -44.9859 C.3       7 UNK        -0.1800 
     39 N          -1.5707  -18.4842  -45.6884 N.am      7 UNK        -0.5000 
     40 C          -0.3969  -18.9558  -46.1274 C.2       6 UNK         0.5000 
     41 O          -0.0103  -20.1107  -45.9311 O.2       6 UNK        -0.5000 
     42 CA          0.5003  -17.9755  -46.9060 C.3       6 UNK         0.1400 
     43 CB          0.2588  -18.1274  -48.4068 C.3       6 UNK        -0.1800 
     44 N           0.3100  -16.5728  -46.5323 N.am      6 UNK        -0.5000 
     45 C           0.6773  -16.0501  -45.3563 C.2       5 UNK         0.5000 
     46 O           1.2392  -16.6966  -44.4755 O.2       5 UNK        -0.5000 
     47 CA          0.2995  -14.5827  -45.0817 C.3       5 UNK         0.1400 
     48 CB          1.3856  -13.6271  -45.5890 C.3       5 UNK        -0.1800 
     49 N          -1.0031  -14.1963  -45.6300 N.am      5 UNK        -0.5000 
     50 C          -2.1670  -14.7596  -45.2725 C.2       4 UNK         0.5000 
     51 O          -2.2415  -15.6967  -44.4776 O.2       4 UNK        -0.5000 
     52 CA         -3.4681  -14.2016  -45.8819 C.3       4 UNK         0.1400 
     53 CB         -4.2986  -13.4841  -44.8068 C.3       4 UNK        -0.1800 
     54 N          -3.2631  -13.2863  -47.0056 N.am      4 UNK        -0.5000 
     55 C          -2.8808  -13.6597  -48.2318 C.2       3 UNK         0.5000 
     56 O          -2.6376  -14.8284  -48.5347 O.2       3 UNK        -0.5000 
     57 CA         -2.7845  -12.5662  -49.3152 C.3       3 UNK         0.1400 
     58 CB         -3.0282  -11.1278  -48.8042 C.3       3 UNK        -0.1800 
     59 N          -1.5244  -12.6507  -50.0539 N.am      3 UNK        -0.5000 
     60 C          -0.2872  -12.5153  -49.5591 C.2       2 UNK         0.5000 
     61 O          -0.0378  -12.2314  -48.3846 O.2       2 UNK        -0.5000 
     62 CA          0.8517  -12.6727  -50.5863 C.3       2 UNK         0.1400 
     63 CB          1.1086  -11.3377  -51.3025 C.3       2 UNK        -0.1800 
     64 N           2.1159  -13.1419  -50.0211 N.am      2 UNK        -0.5000 
     65 C           2.3040  -14.2889  -49.3535 C.2       1 UNK         0.5000 
     66 O           1.3981  -15.0725  -49.0775 O.2       1 UNK        -0.5000 
     67 C           0.7600  -23.6435  -47.6321 C.2       11 UNK         0.5000 
     68 O           0.6759  -24.7096  -48.2427 O.2       11 UNK        -0.5000 
     69 N          -0.1721  -22.6804  -47.6907 N.am      12 UNK        -0.5000 
     70 CA         -1.4119  -22.8020  -48.4545 C.3       12 UNK         0.1400 
     71 CB         -2.0207  -21.4151  -48.6743 C.3       12 UNK        -0.1800 
     72 C          -2.4309  -23.7270  -47.7700 C.2       12 UNK         0.5000 
     73 O          -3.2518  -24.3342  -48.4584 O.2       12 UNK        -0.5000 
     74 N          -2.3696  -23.8214  -46.4348 N.am      13 UNK        -0.5000 
     75 CA         -3.1925  -24.7296  -45.6358 C.3       13 UNK         0.1400 
     76 CB         -3.1527  -24.3131  -44.1585 C.3       13 UNK        -0.1800 
     77 C          -2.7517  -26.1923  -45.8181 C.2       13 UNK         0.5000 
     78 O          -3.6039  -27.0595  -46.0032 O.2       13 UNK        -0.5000 
     79 N          -1.4316  -26.4318  -45.8364 N.am      14 UNK        -0.5000 
     80 CA         -0.8155  -27.7272  -46.1396 C.3       14 UNK         0.1400 
     81 CB          0.6967  -27.6441  -45.8834 C.3       14 UNK        -0.1800 
     82 C          -1.0963  -28.2042  -47.5781 C.2       14 UNK         0.5000 
     83 O          -1.2549  -29.4043  -47.8020 O.2       14 UNK        -0.5000 
     84 N          -1.2001  -27.2516  -48.5154 N.am      15 UNK        -0.5000 
     85 CA         -1.6220  -27.4744  -49.9004 C.3       15 UNK         0.1400 
     86 CB         -1.1722  -26.2754  -50.7508 C.3       15 UNK        -0.1800 
     87 C          -3.1425  -27.7044  -50.0548 C.2       15 UNK         0.5000 
     88 O          -3.5848  -28.0350  -51.1554 O.2       15 UNK        -0.5000 
     89 N          -3.9115  -27.5092  -48.9711 N.am      16 UNK        -0.5000 
     90 CA         -5.3723  -27.6102  -48.8669 C.3       16 UNK         0.1400 
     91 CB         -5.8528  -29.0470  -49.1595 C.3       16 UNK        -0.1800 
     92 C          -6.1293  -26.5428  -49.6862 C.2       16 UNK         0.5000 
     93 O          -7.2993  -26.7417  -50.0183 O.2       16 UNK        -0.5000 
     94 N          -5.4581  -25.4238  -49.9839 N.am      17 UNK        -0.5000 
     95 CA         -6.0135  -24.2837  -50.7078 C.3       17 UNK         0.1400 
     96 CB         -4.9262  -23.6965  -51.6234 C.3       17 UNK        -0.1800 
     97 C          -6.5299  -23.2094  -49.7385 C.2       17 UNK         0.5000 
     98 O          -7.5861  -22.6279  -49.9856 O.2       17 UNK        -0.5000 
     99 N          -5.7545  -22.9523  -48.6716 N.am      18 UNK        -0.5000 
    100 CA        -5.9470  -21.9106  -47.6496 C.3       18 UNK         0.1400 
    101 CB        -7.1870  -22.2181  -46.7867 C.3       18 UNK        -0.1800 
    102 C         -5.9519  -20.4687  -48.2143 C.2       18 UNK         0.5000 
    103 O         -6.4922  -19.5599  -47.5838 O.2       18 UNK        -0.5000 
    104 N         -5.3493  -20.2960  -49.3968 N.am      19 UNK        -0.5000 
    105 CA        -5.2081  -19.0468  -50.1370 C.3       19 UNK         0.1400 
    106 CB        -4.6303  -19.3993  -51.5174 C.3       19 UNK        -0.1800 
    107 C         -4.2720  -18.0454  -49.4259 C.2       19 UNK         0.5000 
    108 O         -3.2230  -18.4762  -48.9520 O.2       19 UNK        -0.5000 
    109 N         -4.5526  -16.7337  -49.3778 N.am      20 UNK        -0.5000 
    110 CA        -5.7691  -15.9841  -49.7180 C.3       20 UNK         0.1400 
    111 CB        -6.9171  -16.3157  -48.7424 C.3       20 UNK        -0.1800 
    112 C         -6.1771  -16.0312  -51.2051 C.2       20 UNK         0.5000 
    113 O         -7.3605  -16.1736  -51.5147 O.2       20 UNK        -0.5000 
    114 N         -5.1890  -15.9017  -52.0978 N.am      21 UNK        -0.5000 
    115 CA        -5.3852  -15.7718  -53.5479 C.3       21 UNK         0.1400 
    116 CB        -5.6842  -17.1328  -54.2047 C.3       21 UNK        -0.1800 
    117 C         -4.1659  -15.1085  -54.2049 C.2       21 UNK         0.5000 
    118 O         -4.3265  -14.3189  -55.1349 O.2       21 UNK        -0.5000 
    119 N         -2.9722  -15.4143  -53.6823 N.am      22 UNK        -0.5000 
    120 CA        -1.6703  -14.8437  -54.0687 C.3       22 UNK         0.1400 
    121 C         -1.4457  -13.3469  -53.6907 C.2       22 UNK         0.5000 
    122 N         -2.3878  -12.6613  -53.0535 N.am      22 UNK        -0.7600 
    123 O         -0.3974  -12.7872  -53.9955 O.2       22 UNK        -0.5000 
    124 C124       -0.4968  -15.7510  -53.5987 C.3       23 UNK        -0.0398 
    125 S125       -0.6873  -16.3801  -51.8875 S.3       23 UNK        -0.2404 
    126 C126       -0.3923  -18.1729  -52.1091 C.3       23 UNK        -0.0205 
    127 H127        5.2829  -10.4373  -48.6100 H         1 UNK         0.0600 
    128 H128        6.5365  -11.3215  -47.7335 H         1 UNK         0.0600 
    129 H129        6.3101  -11.5926  -49.4636 H         1 UNK         0.0600 
    130 H130        5.2553  -13.5122  -49.8959 H         1 UNK         0.3000 
    131 H131        3.7040  -14.9101  -47.8804 H         1 UNK         0.0600 
    132 H132        3.6081  -16.7239  -49.5264 H         1 UNK         0.0800 
    133 H133        5.2426  -16.1839  -49.2878 H         1 UNK         0.0800 
    134 H134        5.5575  -17.7487  -51.7625 H         1 UNK         0.0800 
    135 H135        4.7207  -17.2783  -53.2213 H         1 UNK         0.0800 
    136 H136        1.9996  -16.9194  -52.7282 H         1 UNK         0.1150 
    137 H137        0.4120  -20.3971  -50.7811 H         1 UNK         0.1150 
    138 H138        4.6198  -19.6279  -50.6945 H         1 UNK         0.1150 
    139 H139        1.9695  -22.1276  -50.0256 H         1 UNK         0.0800 
    140 H140        3.6967  -21.8672  -50.0984 H         1 UNK         0.0800 
    141 H141        3.9364  -22.5459  -46.6166 H         1 UNK         0.0800 
    142 H142        3.5557  -23.2963  -48.1292 H         1 UNK         0.0800 
    143 H143        2.3225  -24.3896  -46.4071 H         1 UNK         0.0600 
    144 H144        1.6879  -21.7869  -45.3094 H         1 UNK         0.3000 
    145 H145       -0.7924  -22.4127  -43.4873 H         1 UNK         0.0600 
    146 H146       -0.0673  -22.8754  -41.1396 H         1 UNK         0.0600 
    147 H147       -0.2866  -24.3502  -42.0648 H         1 UNK         0.0600 
    148 H148        1.3346  -23.7575  -41.7467 H         1 UNK         0.0600 
    149 H149        0.2549  -20.5252  -43.2540 H         1 UNK         0.3000 
    150 H150        3.0327  -19.4089  -41.6457 H         1 UNK         0.0600 
    151 H151        4.2445  -19.6017  -43.8198 H         1 UNK         0.0600 
    152 H152        3.6082  -17.9784  -43.6082 H         1 UNK         0.0600 
    153 H153        2.7974  -19.1098  -44.6910 H         1 UNK         0.0600 
    154 H154        1.0751  -18.0678  -43.2678 H         1 UNK         0.3000 
    155 H155       -1.5930  -18.1744  -40.8580 H         1 UNK         0.0600 
    156 H156        0.0928  -15.9289  -42.0849 H         1 UNK         0.0600 
    157 H157       -0.2525  -16.1476  -40.3756 H         1 UNK         0.0600 
    158 H158       -1.5568  -15.7593  -41.4885 H         1 UNK         0.0600 
    159 H159       -1.5176  -17.2244  -43.5426 H         1 UNK         0.3000 
    160 H160       -2.4910  -20.2761  -45.1456 H         1 UNK         0.0600 
    161 H161       -4.2276  -18.7133  -46.0288 H         1 UNK         0.0600 
    162 H162       -3.9971  -17.6565  -44.6383 H         1 UNK         0.0600 
    163 H163       -4.6204  -19.2846  -44.4142 H         1 UNK         0.0600 
    164 H164       -1.8043  -17.5187  -45.8725 H         1 UNK         0.3000 
    165 H165        1.5364  -18.2517  -46.7006 H         1 UNK         0.0600 
    166 H166        1.0541  -17.6568  -48.9834 H         1 UNK         0.0600 
    167 H167        0.2420  -19.1798  -48.6807 H         1 UNK         0.0600 
    168 H168       -0.6892  -17.6879  -48.7176 H         1 UNK         0.0600 
    169 H169       -0.1119  -15.9706  -47.2275 H         1 UNK         0.3000 
    170 H170        0.2392  -14.4637  -43.9984 H         1 UNK         0.0600 
    171 H171        2.3613  -13.8852  -45.1752 H         1 UNK         0.0600 
    172 H172        1.4723  -13.6597  -46.6732 H         1 UNK         0.0600 
    173 H173        1.1729  -12.5970  -45.3035 H         1 UNK         0.0600 
    174 H174       -1.0077  -13.4530  -46.3154 H         1 UNK         0.3000 
    175 H175       -4.0453  -15.0578  -46.2384 H         1 UNK         0.0600 
    176 H176       -5.2589  -13.1547  -45.2042 H         1 UNK         0.0600 
    177 H177       -4.5082  -14.1468  -43.9659 H         1 UNK         0.0600 
    178 H178       -3.7783  -12.6099  -44.4137 H         1 UNK         0.0600 
    179 H179       -3.4350  -12.3072  -46.8279 H         1 UNK         0.3000 
    180 H180       -3.5719  -12.7928  -50.0352 H         1 UNK         0.0600 
    181 H181       -2.3084  -10.8322  -48.0401 H         1 UNK         0.0600 
    182 H182       -4.0280  -11.0212  -48.3817 H         1 UNK         0.0600 
    183 H183       -2.9524  -10.4091  -49.6204 H         1 UNK         0.0600 
    184 H184       -1.6199  -12.8907  -51.0320 H         1 UNK         0.3000 
    185 H185        0.5418  -13.4136  -51.3257 H         1 UNK         0.0600 
    186 H186        1.4702  -10.5747  -50.6119 H         1 UNK         0.0600 
    187 H187        1.8457  -11.4517  -52.0976 H         1 UNK         0.0600 
    188 H188        0.1966  -10.9569  -51.7640 H         1 UNK         0.0600 
    189 H189        2.9205  -12.5532  -50.1714 H         1 UNK         0.3000 
    190 H190       -0.0334  -21.8280  -47.1569 H         1 UNK         0.3000 
    191 H191       -1.1787  -23.2252  -49.4334 H         1 UNK         0.0600 
    192 H192       -1.3297  -20.7565  -49.1963 H         1 UNK         0.0600 
    193 H193       -2.2998  -20.9343  -47.7358 H         1 UNK         0.0600 
    194 H194       -2.9144  -21.4838  -49.2918 H         1 UNK         0.0600 
    195 H195       -1.6552  -23.3006  -45.9509 H         1 UNK         0.3000 
    196 H196       -4.2259  -24.6441  -45.9797 H         1 UNK         0.0600 
    197 H197       -3.8523  -24.9094  -43.5716 H         1 UNK         0.0600 
    198 H198       -3.4321  -23.2668  -44.0320 H         1 UNK         0.0600 
    199 H199       -2.1648  -24.4548  -43.7226 H         1 UNK         0.0600 
    200 H200       -0.7910  -25.6777  -45.6025 H         1 UNK         0.3000 
    201 H201       -1.2385  -28.4669  -45.4568 H         1 UNK         0.0600 
    202 H202        0.9064  -27.3864  -44.8451 H         1 UNK         0.0600 
    203 H203        1.1709  -26.8930  -46.5161 H         1 UNK         0.0600 
    204 H204        1.1817  -28.5998  -46.0858 H         1 UNK         0.0600 
    205 H205       -0.9856  -26.2974  -48.2559 H         1 UNK         0.3000 
    206 H206       -1.1170  -28.3666  -50.2762 H         1 UNK         0.0600 
    207 H207       -0.0998  -26.1027  -50.6575 H         1 UNK         0.0600 
    208 H208       -1.3824  -26.4446  -51.8076 H         1 UNK         0.0600 
    209 H209       -1.6870  -25.3604  -50.4597 H         1 UNK         0.0600 
    210 H210       -3.4502  -27.2463  -48.1088 H         1 UNK         0.3000 
    211 H211       -5.6099  -27.3979  -47.8240 H         1 UNK         0.0600 
    212 H212       -5.7326  -29.3102  -50.2106 H         1 UNK         0.0600 
    213 H213       -6.9089  -29.1640  -48.9140 H         1 UNK         0.0600 
    214 H214       -5.3012  -29.7752  -48.5649 H         1 UNK         0.0600 
    215 H215       -4.5173  -25.3167  -49.6191 H         1 UNK         0.3000 
    216 H216       -6.8471  -24.6050  -51.3359 H         1 UNK         0.0600 
    217 H217       -5.3034  -22.8362  -52.1779 H         1 UNK         0.0600 
    218 H218       -4.5922  -24.4330  -52.3545 H         1 UNK         0.0600 
    219 H219       -4.0514  -23.3686  -51.0603 H         1 UNK         0.0600 
    220 H220       -4.9069  -23.5045  -48.5729 H         1 UNK         0.3000 
    221 H221       -5.0749  -21.9669  -46.9965 H         1 UNK         0.0600 
    222 H222       -8.1110  -22.1194  -47.3570 H         1 UNK         0.0600 
    223 H223       -7.1459  -23.2308  -46.3857 H         1 UNK         0.0600 
    224 H224       -7.2528  -21.5370  -45.9375 H         1 UNK         0.0600 
    225 H225       -4.9299  -21.1064  -49.8228 H         1 UNK         0.3000 
    226 H226       -6.2032  -18.6298  -50.2715 H         1 UNK         0.0600 
    227 H227       -5.3509  -19.9527  -52.1198 H         1 UNK         0.0600 
    228 H228       -4.3562  -18.5041  -52.0707 H         1 UNK         0.0600 
    229 H229       -3.7257  -20.0033  -51.4332 H         1 UNK         0.0600 
    230 H230       -3.8172  -16.1469  -48.9890 H         1 UNK         0.3000 
    231 H231       -5.5113  -14.9400  -49.5359 H         1 UNK         0.0600 
    232 H232       -6.5868  -16.2380  -47.7063 H         1 UNK         0.0600 
    233 H233       -7.7454  -15.6174  -48.8679 H         1 UNK         0.0600 
    234 H234       -7.3195  -17.3167  -48.8873 H         1 UNK         0.0600 
    235 H235       -4.2522  -15.7515  -51.7529 H         1 UNK         0.3000 
    236 H236       -6.2393  -15.1122  -53.7176 H         1 UNK         0.0600 
    237 H237       -5.9575  -17.0000  -55.2521 H         1 UNK         0.0600 
    238 H238       -4.8187  -17.7947  -54.1822 H         1 UNK         0.0600 
    239 H239       -6.5145  -17.6444  -53.7183 H         1 UNK         0.0600 
    240 H240       -2.9152  -16.1087  -52.9531 H         1 UNK         0.3000 
    241 H241       -1.6466  -14.8450  -55.1600 H         1 UNK         0.0600 
    242 H242       -2.2494  -11.6746  -52.8997 H         1 UNK         0.3800 
    243 H243       -3.2971  -13.0674  -52.9080 H         1 UNK         0.3800 
    244 H244       -0.4236  -16.5962  -54.2829 H         1 UNK         0.0800 
    245 H245        0.4658  -15.2433  -53.6800 H         1 UNK         0.0800 
    246 H246       -0.6514  -18.4959  -53.1173 H         1 UNK         0.0800 
    247 H247       -1.0849  -18.6896  -51.4421 H         1 UNK         0.0800 
@<TRIPOS>BOND
     1    1    2 1    
     2    1  127 1    
     3    1  128 1    
     4    1  129 1    
     5    2    3 2    
     6    2    4 am   BACKBONE|DICT|INTERRES
     7    4    5 1    
     8    4  130 1    
     9    5    6 1    
    10    5   65 1    
    11    5  131 1    
    12    6    7 1    
    13    6  132 1    
    14    6  133 1    
    15    7    8 1    
    16    8    9 1    
    17    8  134 1    
    18    8  135 1    
    19    9   10 ar   
    20    9   14 ar   
    21   10   11 ar   
    22   10  136 1    
    23   11   12 ar   
    24   11  126 1    
    25   12   13 ar   
    26   12  137 1    
    27   13   14 ar   
    28   13   15 1    
    29   14  138 1    
    30   15   16 1    
    31   15  139 1    
    32   15  140 1    
    33   16   17 1    
    34   17   18 1    
    35   17  141 1    
    36   17  142 1    
    37   18   19 1    
    38   18   67 1    
    39   18  143 1    
    40   19   20 am   BACKBONE|DICT|INTERRES
    41   19  144 1    
    42   20   21 2    
    43   20   22 1    
    44   22   23 1    
    45   22   24 1    
    46   22  145 1    
    47   23  146 1    
    48   23  147 1    
    49   23  148 1    
    50   24   25 am   BACKBONE|DICT|INTERRES
    51   24  149 1    
    52   25   26 2    
    53   25   27 1    
    54   27   28 1    
    55   27   29 1    
    56   27  150 1    
    57   28  151 1    
    58   28  152 1    
    59   28  153 1    
    60   29   30 am   BACKBONE|DICT|INTERRES
    61   29  154 1    
    62   30   31 2    
    63   30   32 1    
    64   32   33 1    
    65   32   34 1    
    66   32  155 1    
    67   33  156 1    
    68   33  157 1    
    69   33  158 1    
    70   34   35 am   BACKBONE|DICT|INTERRES
    71   34  159 1    
    72   35   36 2    
    73   35   37 1    
    74   37   38 1    
    75   37   39 1    
    76   37  160 1    
    77   38  161 1    
    78   38  162 1    
    79   38  163 1    
    80   39   40 am   BACKBONE|DICT|INTERRES
    81   39  164 1    
    82   40   41 2    
    83   40   42 1    
    84   42   43 1    
    85   42   44 1    
    86   42  165 1    
    87   43  166 1    
    88   43  167 1    
    89   43  168 1    
    90   44   45 am   BACKBONE|DICT|INTERRES
    91   44  169 1    
    92   45   46 2    
    93   45   47 1    
    94   47   48 1    
    95   47   49 1    
    96   47  170 1    
    97   48  171 1    
    98   48  172 1    
    99   48  173 1    
   100   49   50 am   BACKBONE|DICT|INTERRES
   101   49  174 1    
   102   50   51 2    
   103   50   52 1    
   104   52   53 1    
   105   52   54 1    
   106   52  175 1    
   107   53  176 1    
   108   53  177 1    
   109   53  178 1    
   110   54   55 am   BACKBONE|DICT|INTERRES
   111   54  179 1    
   112   55   56 2    
   113   55   57 1    
   114   57   58 1    
   115   57   59 1    
   116   57  180 1    
   117   58  181 1    
   118   58  182 1    
   119   58  183 1    
   120   59   60 am   BACKBONE|DICT|INTERRES
   121   59  184 1    
   122   60   61 2    
   123   60   62 1    
   124   62   63 1    
   125   62   64 1    
   126   62  185 1    
   127   63  186 1    
   128   63  187 1    
   129   63  188 1    
   130   64   65 am   BACKBONE|DICT|INTERRES
   131   64  189 1    
   132   65   66 2    
   133   67   68 2    
   134   67   69 am   BACKBONE|DICT|INTERRES
   135   69   70 1    
   136   69  190 1    
   137   70   71 1    
   138   70   72 1    
   139   70  191 1    
   140   71  192 1    
   141   71  193 1    
   142   71  194 1    
   143   72   73 2    
   144   72   74 am   BACKBONE|DICT|INTERRES
   145   74   75 1    
   146   74  195 1    
   147   75   76 1    
   148   75   77 1    
   149   75  196 1    
   150   76  197 1    
   151   76  198 1    
   152   76  199 1    
   153   77   78 2    
   154   77   79 am   BACKBONE|DICT|INTERRES
   155   79   80 1    
   156   79  200 1    
   157   80   81 1    
   158   80   82 1    
   159   80  201 1    
   160   81  202 1    
   161   81  203 1    
   162   81  204 1    
   163   82   83 2    
   164   82   84 am   BACKBONE|DICT|INTERRES
   165   84   85 1    
   166   84  205 1    
   167   85   86 1    
   168   85   87 1    
   169   85  206 1    
   170   86  207 1    
   171   86  208 1    
   172   86  209 1    
   173   87   88 2    
   174   87   89 am   BACKBONE|DICT|INTERRES
   175   89   90 1    
   176   89  210 1    
   177   90   91 1    
   178   90   92 1    
   179   90  211 1    
   180   91  212 1    
   181   91  213 1    
   182   91  214 1    
   183   92   93 2    
   184   92   94 am   BACKBONE|DICT|INTERRES
   185   94   95 1    
   186   94  215 1    
   187   95   96 1    
   188   95   97 1    
   189   95  216 1    
   190   96  217 1    
   191   96  218 1    
   192   96  219 1    
   193   97   98 2    
   194   97   99 am   BACKBONE|DICT|INTERRES
   195   99  100 1    
   196   99  220 1    
   197  100  101 1    
   198  100  102 1    
   199  100  221 1    
   200  101  222 1    
   201  101  223 1    
   202  101  224 1    
   203  102  103 2    
   204  102  104 am   BACKBONE|DICT|INTERRES
   205  104  105 1    
   206  104  225 1    
   207  105  106 1    
   208  105  107 1    
   209  105  226 1    
   210  106  227 1    
   211  106  228 1    
   212  106  229 1    
   213  107  108 2    
   214  107  109 am   BACKBONE|DICT|INTERRES
   215  109  110 1    
   216  109  230 1    
   217  110  111 1    
   218  110  112 1    
   219  110  231 1    
   220  111  232 1    
   221  111  233 1    
   222  111  234 1    
   223  112  113 2    
   224  112  114 am   BACKBONE|DICT|INTERRES
   225  114  115 1    
   226  114  235 1    
   227  115  116 1    
   228  115  117 1    
   229  115  236 1    
   230  116  237 1    
   231  116  238 1    
   232  116  239 1    
   233  117  118 2    
   234  117  119 am   BACKBONE|DICT|INTERRES
   235  119  120 1    
   236  119  240 1    
   237  120  121 1    
   238  120  124 1    
   239  120  241 1    
   240  121  122 am   BACKBONE|DICT|INTERRES
   241  121  123 2    
   242  122  242 1    
   243  122  243 1    
   244  124  125 1    
   245  124  244 1    
   246  124  245 1    
   247  125  126 1    
   248  126  246 1    
   249  126  247 1    
@<TRIPOS>SUBSTRUCTURE
     1 UNK         1 GROUP             0       ****    0 ROOT    
