@<TRIPOS>MOLECULE
3R540
247   249    1
SMALL
USER_CHARGES


@<TRIPOS>ATOM
      1 CA         -5.0223  -10.2081  -48.9705 C.3       0 UNK        -0.1800 
      2 C          -3.6645  -10.8729  -48.7963 C.2       0 UNK         0.5000 
      3 O          -2.6529  -10.1812  -48.6703 O.2       0 UNK        -0.5000 
      4 N          -3.6342  -12.2112  -48.7796 N.am      1 UNK        -0.5000 
      5 CA         -2.4331  -13.0412  -48.6299 C.3       1 UNK         0.1400 
      6 C6         -2.6295  -14.4542  -49.2401 C.3       23 UNK        -0.0398 
      7 S7         -2.7577  -14.4064  -51.0608 S.3       23 UNK        -0.2404 
      8 C8         -1.0119  -14.3161  -51.5854 C.3       23 UNK        -0.0205 
      9 C9         -0.2698  -15.6427  -51.4711 C.ar      23 UNK        -0.0193 
     10 C10        -0.1776  -16.5016  -52.5735 C.ar      23 UNK        -0.1150 
     11 C11         0.5685  -17.6828  -52.4939 C.ar      23 UNK        -0.0193 
     12 C12         1.2180  -18.0001  -51.3000 C.ar      23 UNK        -0.1150 
     13 C13         1.1077  -17.1719  -50.1810 C.ar      23 UNK        -0.0193 
     14 C14         0.3782  -15.9854  -50.2801 C.ar      23 UNK        -0.1150 
     15 C15         1.7954  -17.5449  -48.8746 C.3       23 UNK        -0.0205 
     16 S16         1.4342  -19.2534  -48.3566 S.3       23 UNK        -0.2404 
     17 C17        -0.3432  -19.1541  -47.9585 C.3       23 UNK        -0.0398 
     18 CA         -0.9314  -20.5278  -47.5590 C.3       11 UNK         0.1400 
     19 N          -0.1338  -21.2162  -46.5377 N.am      11 UNK        -0.5000 
     20 C          -0.1451  -22.5416  -46.3441 C.2       10 UNK         0.5000 
     21 O          -0.8298  -23.3206  -47.0061 O.2       10 UNK        -0.5000 
     22 CA          0.7208  -23.0731  -45.1857 C.3       10 UNK         0.1400 
     23 CB          2.1736  -23.2636  -45.6429 C.3       10 UNK        -0.1800 
     24 N           0.6849  -22.2060  -44.0023 N.am      10 UNK        -0.5000 
     25 C          -0.4246  -21.9610  -43.2889 C.2       9 UNK         0.5000 
     26 O          -1.5185  -22.4483  -43.5740 O.2       9 UNK        -0.5000 
     27 CA         -0.3404  -20.9656  -42.1151 C.3       9 UNK         0.1400 
     28 CB         -1.1326  -21.4420  -40.8798 C.3       9 UNK        -0.1800 
     29 N           1.0186  -20.5479  -41.7613 N.am      9 UNK        -0.5000 
     30 C           1.9752  -21.2609  -41.1513 C.2       8 UNK         0.5000 
     31 O           1.8494  -22.4398  -40.8162 O.2       8 UNK        -0.5000 
     32 CA          3.2966  -20.5088  -40.8869 C.3       8 UNK         0.1400 
     33 CB          4.4362  -21.4308  -40.4049 C.3       8 UNK        -0.1800 
     34 N           3.7319  -19.7006  -42.0311 N.am      8 UNK        -0.5000 
     35 C           4.0394  -20.1358  -43.2630 C.2       7 UNK         0.5000 
     36 O           3.9504  -21.3149  -43.6050 O.2       7 UNK        -0.5000 
     37 CA          4.5019  -19.0924  -44.3043 C.3       7 UNK         0.1400 
     38 CB          3.6100  -19.1436  -45.5537 C.3       7 UNK        -0.1800 
     39 N           4.5173  -17.7183  -43.8004 N.am      7 UNK        -0.5000 
     40 C           5.4497  -17.1894  -42.9976 C.2       6 UNK         0.5000 
     41 O           6.4531  -17.7945  -42.6200 O.2       6 UNK        -0.5000 
     42 CA          5.1852  -15.7579  -42.4943 C.3       6 UNK         0.1400 
     43 CB          5.7616  -14.7193  -43.4689 C.3       6 UNK        -0.1800 
     44 N           3.7583  -15.4938  -42.2886 N.am      6 UNK        -0.5000 
     45 C           3.0136  -16.0401  -41.3164 C.2       5 UNK         0.5000 
     46 O           3.4578  -16.8122  -40.4665 O.2       5 UNK        -0.5000 
     47 CA          1.5105  -15.7048  -41.3302 C.3       5 UNK         0.1400 
     48 CB          1.2545  -14.3146  -40.7295 C.3       5 UNK        -0.1800 
     49 N           0.9418  -15.7662  -42.6771 N.am      5 UNK        -0.5000 
     50 C           0.8118  -16.8973  -43.3867 C.2       4 UNK         0.5000 
     51 O           1.1057  -18.0111  -42.9548 O.2       4 UNK        -0.5000 
     52 CA          0.3076  -16.7698  -44.8368 C.3       4 UNK         0.1400 
     53 CB         -1.2220  -16.9026  -44.8741 C.3       4 UNK        -0.1800 
     54 N           0.7061  -15.5233  -45.4920 N.am      4 UNK        -0.5000 
     55 C           1.9726  -15.0991  -45.6343 C.2       3 UNK         0.5000 
     56 O           2.9482  -15.7807  -45.3229 O.2       3 UNK        -0.5000 
     57 CA          2.2031  -13.6669  -46.1603 C.3       3 UNK         0.1400 
     58 CB          2.7458  -13.7058  -47.5967 C.3       3 UNK        -0.1800 
     59 N           1.0153  -12.8105  -46.1237 N.am      3 UNK        -0.5000 
     60 C           0.3043  -12.4809  -45.0343 C.2       2 UNK         0.5000 
     61 O           0.6217  -12.8047  -43.8886 O.2       2 UNK        -0.5000 
     62 CA         -1.0194  -11.7260  -45.2773 C.3       2 UNK         0.1400 
     63 CB         -0.8364  -10.2226  -45.0235 C.3       2 UNK        -0.1800 
     64 N          -1.5739  -11.9187  -46.6236 N.am      2 UNK        -0.5000 
     65 C          -1.9545  -13.0867  -47.1609 C.2       1 UNK         0.5000 
     66 O          -1.9032  -14.1563  -46.5519 O.2       1 UNK        -0.5000 
     67 C          -2.4051  -20.3962  -47.1209 C.2       11 UNK         0.5000 
     68 O          -3.2926  -20.4092  -47.9729 O.2       11 UNK        -0.5000 
     69 N          -2.6506  -20.3219  -45.8026 N.am      12 UNK        -0.5000 
     70 CA         -3.9909  -20.3522  -45.2121 C.3       12 UNK         0.1400 
     71 CB         -3.9366  -19.9562  -43.7290 C.3       12 UNK        -0.1800 
     72 C          -4.6566  -21.7255  -45.4035 C.2       12 UNK         0.5000 
     73 O          -5.8165  -21.7824  -45.8127 O.2       12 UNK        -0.5000 
     74 N          -3.8815  -22.7982  -45.1816 N.am      13 UNK        -0.5000 
     75 CA         -4.2606  -24.1907  -45.4341 C.3       13 UNK         0.1400 
     76 CB         -3.1672  -25.1224  -44.8909 C.3       13 UNK        -0.1800 
     77 C          -4.5493  -24.4911  -46.9191 C.2       13 UNK         0.5000 
     78 O          -5.3686  -25.3626  -47.2085 O.2       13 UNK        -0.5000 
     79 N          -3.9418  -23.7197  -47.8324 N.am      14 UNK        -0.5000 
     80 CA         -4.2321  -23.6967  -49.2699 C.3       14 UNK         0.1400 
     81 CB         -2.9783  -23.2234  -50.0311 C.3       14 UNK        -0.1800 
     82 C          -5.4803  -22.8458  -49.6085 C.2       14 UNK         0.5000 
     83 O          -5.5230  -22.2133  -50.6652 O.2       14 UNK        -0.5000 
     84 N          -6.4714  -22.8346  -48.7045 N.am      15 UNK        -0.5000 
     85 CA         -7.7511  -22.1243  -48.7753 C.3       15 UNK         0.1400 
     86 CB         -8.6468  -22.7538  -49.8630 C.3       15 UNK        -0.1800 
     87 C          -7.5779  -20.6004  -48.9365 C.2       15 UNK         0.5000 
     88 O          -8.2437  -19.9911  -49.7724 O.2       15 UNK        -0.5000 
     89 N          -6.6495  -20.0218  -48.1592 N.am      16 UNK        -0.5000 
     90 CA         -6.1931  -18.6256  -48.2395 C.3       16 UNK         0.1400 
     91 CB         -7.2969  -17.6565  -47.7686 C.3       16 UNK        -0.1800 
     92 C          -5.6275  -18.2816  -49.6347 C.2       16 UNK         0.5000 
     93 O          -5.9711  -17.2518  -50.2170 O.2       16 UNK        -0.5000 
     94 N          -4.7881  -19.1949  -50.1404 N.am      17 UNK        -0.5000 
     95 CA         -4.1361  -19.2089  -51.4510 C.3       17 UNK         0.1400 
     96 CB         -3.1517  -18.0327  -51.5751 C.3       17 UNK        -0.1800 
     97 C          -5.1025  -19.3045  -52.6529 C.2       17 UNK         0.5000 
     98 O          -4.7081  -18.9764  -53.7734 O.2       17 UNK        -0.5000 
     99 N          -6.3412  -19.7652  -52.4246 N.am      18 UNK        -0.5000 
    100 CA        -7.3103  -20.0460  -53.4852 C.3       18 UNK         0.1400 
    101 CB        -8.7367  -20.0101  -52.9195 C.3       18 UNK        -0.1800 
    102 C         -7.0357  -21.3930  -54.1779 C.2       18 UNK         0.5000 
    103 O         -7.3695  -21.5399  -55.3550 O.2       18 UNK        -0.5000 
    104 N         -6.4319  -22.3472  -53.4547 N.am      19 UNK        -0.5000 
    105 CA        -5.9585  -23.6129  -54.0099 C.3       19 UNK         0.1400 
    106 CB        -5.8223  -24.6474  -52.8820 C.3       19 UNK        -0.1800 
    107 C         -4.6130  -23.4149  -54.7302 C.2       19 UNK         0.5000 
    108 O         -3.8377  -22.5266  -54.3656 O.2       19 UNK        -0.5000 
    109 N         -4.3556  -24.2630  -55.7321 N.am      20 UNK        -0.5000 
    110 CA        -3.1122  -24.2851  -56.5016 C.3       20 UNK         0.1400 
    111 CB        -3.2965  -25.2162  -57.7105 C.3       20 UNK        -0.1800 
    112 C         -1.9051  -24.7339  -55.6553 C.2       20 UNK         0.5000 
    113 O         -2.0714  -25.4957  -54.6991 O.2       20 UNK        -0.5000 
    114 N         -0.7122  -24.2764  -56.0602 N.am      21 UNK        -0.5000 
    115 CA         0.5940  -24.5672  -55.4572 C.3       21 UNK         0.1400 
    116 CB         0.9560  -26.0598  -55.6173 C.3       21 UNK        -0.1800 
    117 C          0.7240  -24.0595  -54.0045 C.2       21 UNK         0.5000 
    118 O          1.2900  -24.7499  -53.1540 O.2       21 UNK        -0.5000 
    119 N          0.2067  -22.8497  -53.7520 N.am      22 UNK        -0.5000 
    120 CA         0.4016  -22.0961  -52.5040 C.3       22 UNK         0.1400 
    121 C          1.8899  -21.7298  -52.2296 C.2       22 UNK         0.5000 
    122 N          2.2755  -21.5816  -50.9695 N.am      22 UNK        -0.7600 
    123 O          2.6940  -21.5567  -53.1432 O.2       22 UNK        -0.5000 
    124 C124       -0.5322  -20.8559  -52.4141 C.3       23 UNK        -0.0398 
    125 S125       -0.6203  -19.8015  -53.9110 S.3       23 UNK        -0.2404 
    126 C126        0.7313  -18.5922  -53.7051 C.3       23 UNK        -0.0205 
    127 H127       -5.0212   -9.5821  -49.8628 H         1 UNK         0.0600 
    128 H128       -5.8230  -10.9413  -49.0703 H         1 UNK         0.0600 
    129 H129       -5.2439   -9.5769  -48.1099 H         1 UNK         0.0600 
    130 H130       -4.5011  -12.7204  -48.8757 H         1 UNK         0.3000 
    131 H131       -1.6227  -12.5613  -49.1819 H         1 UNK         0.0600 
    132 H132       -3.5371  -14.9136  -48.8452 H         1 UNK         0.0800 
    133 H133       -1.8244  -15.1316  -48.9631 H         1 UNK         0.0800 
    134 H134       -0.4911  -13.5471  -51.0140 H         1 UNK         0.0800 
    135 H135       -0.9868  -13.9775  -52.6222 H         1 UNK         0.0800 
    136 H136       -0.6697  -16.2417  -53.5002 H         1 UNK         0.1150 
    137 H137        1.8113  -18.9000  -51.2374 H         1 UNK         0.1150 
    138 H138        0.3274  -15.3209  -49.4310 H         1 UNK         0.1150 
    139 H139        2.8731  -17.4357  -49.0014 H         1 UNK         0.0800 
    140 H140        1.5072  -16.8655  -48.0720 H         1 UNK         0.0800 
    141 H141       -0.4752  -18.4259  -47.1623 H         1 UNK         0.0800 
    142 H142       -0.8737  -18.7588  -48.8268 H         1 UNK         0.0800 
    143 H143       -0.9252  -21.1477  -48.4583 H         1 UNK         0.0600 
    144 H144        0.4863  -20.6486  -45.9804 H         1 UNK         0.3000 
    145 H145        0.3240  -24.0487  -44.8970 H         1 UNK         0.0600 
    146 H146        2.7836  -23.6948  -44.8489 H         1 UNK         0.0600 
    147 H147        2.2288  -23.9378  -46.4985 H         1 UNK         0.0600 
    148 H148        2.6303  -22.3191  -45.9396 H         1 UNK         0.0600 
    149 H149        1.5603  -21.7955  -43.7055 H         1 UNK         0.3000 
    150 H150       -0.8298  -20.0591  -42.4737 H         1 UNK         0.0600 
    151 H151       -2.1882  -21.5761  -41.1181 H         1 UNK         0.0600 
    152 H152       -1.0756  -20.7148  -40.0698 H         1 UNK         0.0600 
    153 H153       -0.7653  -22.3965  -40.5028 H         1 UNK         0.0600 
    154 H154        1.2445  -19.5967  -42.0494 H         1 UNK         0.3000 
    155 H155        3.0853  -19.8031  -40.0822 H         1 UNK         0.0600 
    156 H156        4.1634  -21.9372  -39.4784 H         1 UNK         0.0600 
    157 H157        5.3451  -20.8624  -40.2074 H         1 UNK         0.0600 
    158 H158        4.6748  -22.2005  -41.1395 H         1 UNK         0.0600 
    159 H159        3.7968  -18.7065  -41.8571 H         1 UNK         0.3000 
    160 H160        5.5175  -19.3603  -44.6019 H         1 UNK         0.0600 
    161 H161        2.5615  -18.9944  -45.3008 H         1 UNK         0.0600 
    162 H162        3.6914  -20.1082  -46.0552 H         1 UNK         0.0600 
    163 H163        3.8930  -18.3799  -46.2786 H         1 UNK         0.0600 
    164 H164        3.7674  -17.1135  -44.1211 H         1 UNK         0.3000 
    165 H165        5.6943  -15.6432  -41.5349 H         1 UNK         0.0600 
    166 H166        6.8332  -14.8686  -43.6066 H         1 UNK         0.0600 
    167 H167        5.2944  -14.7817  -44.4521 H         1 UNK         0.0600 
    168 H168        5.6209  -13.7055  -43.0939 H         1 UNK         0.0600 
    169 H169        3.3030  -14.9128  -42.9768 H         1 UNK         0.3000 
    170 H170        0.9976  -16.4431  -40.7101 H         1 UNK         0.0600 
    171 H171        1.6521  -14.2476  -39.7161 H         1 UNK         0.0600 
    172 H172        1.7232  -13.5263  -41.3201 H         1 UNK         0.0600 
    173 H173        0.1871  -14.1002  -40.6750 H         1 UNK         0.0600 
    174 H174        0.6943  -14.8835  -43.1088 H         1 UNK         0.3000 
    175 H175        0.7432  -17.5901  -45.4066 H         1 UNK         0.0600 
    176 H176       -1.7062  -16.1128  -44.2981 H         1 UNK         0.0600 
    177 H177       -1.6072  -16.8477  -45.8919 H         1 UNK         0.0600 
    178 H178       -1.5393  -17.8574  -44.4552 H         1 UNK         0.0600 
    179 H179       -0.0488  -14.9126  -45.7827 H         1 UNK         0.3000 
    180 H180        2.9596  -13.2101  -45.5193 H         1 UNK         0.0600 
    181 H181        2.0157  -14.1183  -48.2926 H         1 UNK         0.0600 
    182 H182        3.0146  -12.7081  -47.9441 H         1 UNK         0.0600 
    183 H183        3.6437  -14.3222  -47.6605 H         1 UNK         0.0600 
    184 H184        0.6738  -12.4850  -47.0154 H         1 UNK         0.3000 
    185 H185       -1.7479  -12.1105  -44.5608 H         1 UNK         0.0600 
    186 H186       -1.7838   -9.6900  -45.1096 H         1 UNK         0.0600 
    187 H187       -0.4513  -10.0390  -44.0195 H         1 UNK         0.0600 
    188 H188       -0.1358   -9.7780  -45.7314 H         1 UNK         0.0600 
    189 H189       -1.6916  -11.0863  -47.1941 H         1 UNK         0.3000 
    190 H190       -1.8727  -20.3773  -45.1646 H         1 UNK         0.3000 
    191 H191       -4.6038  -19.6101  -45.7232 H         1 UNK         0.0600 
    192 H192       -4.9400  -19.9245  -43.3027 H         1 UNK         0.0600 
    193 H193       -3.5008  -18.9663  -43.5975 H         1 UNK         0.0600 
    194 H194       -3.3578  -20.6616  -43.1356 H         1 UNK         0.0600 
    195 H195       -2.9558  -22.6537  -44.7862 H         1 UNK         0.3000 
    196 H196       -5.1798  -24.3859  -44.8781 H         1 UNK         0.0600 
    197 H197       -3.4422  -26.1691  -45.0267 H         1 UNK         0.0600 
    198 H198       -3.0080  -24.9634  -43.8242 H         1 UNK         0.0600 
    199 H199       -2.2150  -24.9648  -45.3973 H         1 UNK         0.0600 
    200 H200       -3.2751  -23.0362  -47.5021 H         1 UNK         0.3000 
    201 H201       -4.4486  -24.7156  -49.5966 H         1 UNK         0.0600 
    202 H202       -2.7509  -22.1783  -49.8265 H         1 UNK         0.0600 
    203 H203       -3.1115  -23.3188  -51.1095 H         1 UNK         0.0600 
    204 H204       -2.1039  -23.8157  -49.7607 H         1 UNK         0.0600 
    205 H205       -6.3270  -23.3739  -47.8616 H         1 UNK         0.3000 
    206 H206       -8.2427  -22.2731  -47.8129 H         1 UNK         0.0600 
    207 H207       -8.8037  -23.8158  -49.6746 H         1 UNK         0.0600 
    208 H208       -9.6294  -22.2813  -49.8871 H         1 UNK         0.0600 
    209 H209       -8.2093  -22.6550  -50.8565 H         1 UNK         0.0600 
    210 H210       -6.1643  -20.6158  -47.4955 H         1 UNK         0.3000 
    211 H211       -5.3566  -18.5242  -47.5494 H         1 UNK         0.0600 
    212 H212       -8.1547  -17.6581  -48.4417 H         1 UNK         0.0600 
    213 H213       -6.9221  -16.6335  -47.7208 H         1 UNK         0.0600 
    214 H214       -7.6518  -17.9190  -46.7720 H         1 UNK         0.0600 
    215 H215       -4.5532  -19.9793  -49.5415 H         1 UNK         0.3000 
    216 H216       -3.5521  -20.1291  -51.4746 H         1 UNK         0.0600 
    217 H217       -3.6778  -17.0804  -51.6123 H         1 UNK         0.0600 
    218 H218       -2.5631  -18.1084  -52.4880 H         1 UNK         0.0600 
    219 H219       -2.4522  -18.0030  -50.7398 H         1 UNK         0.0600 
    220 H220       -6.6036  -20.0174  -51.4801 H         1 UNK         0.3000 
    221 H221       -7.2375  -19.2619  -54.2419 H         1 UNK         0.0600 
    222 H222       -8.9119  -20.8208  -52.2132 H         1 UNK         0.0600 
    223 H223       -8.9367  -19.0682  -52.4082 H         1 UNK         0.0600 
    224 H224       -9.4730  -20.1107  -53.7177 H         1 UNK         0.0600 
    225 H225       -6.1366  -22.1375  -52.5051 H         1 UNK         0.3000 
    226 H226       -6.6963  -23.9821  -54.7255 H         1 UNK         0.0600 
    227 H227       -6.7393  -24.7235  -52.2973 H         1 UNK         0.0600 
    228 H228       -5.6090  -25.6371  -53.2873 H         1 UNK         0.0600 
    229 H229       -5.0084  -24.3957  -52.2032 H         1 UNK         0.0600 
    230 H230       -5.0243  -24.9887  -55.9440 H         1 UNK         0.3000 
    231 H231       -2.9241  -23.2729  -56.8664 H         1 UNK         0.0600 
    232 H232       -3.5020  -26.2416  -57.4003 H         1 UNK         0.0600 
    233 H233       -4.1201  -24.8846  -58.3432 H         1 UNK         0.0600 
    234 H234       -2.4000  -25.2358  -58.3316 H         1 UNK         0.0600 
    235 H235       -0.6866  -23.6599  -56.8608 H         1 UNK         0.3000 
    236 H236        1.3243  -23.9973  -56.0336 H         1 UNK         0.0600 
    237 H237        0.8736  -26.3763  -56.6571 H         1 UNK         0.0600 
    238 H238        1.9833  -26.2479  -55.3031 H         1 UNK         0.0600 
    239 H239        0.3100  -26.7023  -55.0186 H         1 UNK         0.0600 
    240 H240       -0.2411  -22.3431  -54.5016 H         1 UNK         0.3000 
    241 H241        0.1046  -22.7709  -51.6983 H         1 UNK         0.0600 
    242 H242        3.2361  -21.3410  -50.7833 H         1 UNK         0.3800 
    243 H243        1.6438  -21.7092  -50.1956 H         1 UNK         0.3800 
    244 H244       -0.3096  -20.2501  -51.5358 H         1 UNK         0.0800 
    245 H245       -1.5473  -21.2179  -52.2480 H         1 UNK         0.0800 
    246 H246        1.6854  -19.1171  -53.6576 H         1 UNK         0.0800 
    247 H247        0.7802  -17.9793  -54.6061 H         1 UNK         0.0800 
@<TRIPOS>BOND
     1    1    2 1    
     2    1  127 1    
     3    1  128 1    
     4    1  129 1    
     5    2    3 2    
     6    2    4 am   BACKBONE|DICT|INTERRES
     7    4    5 1    
     8    4  130 1    
     9    5    6 1    
    10    5   65 1    
    11    5  131 1    
    12    6    7 1    
    13    6  132 1    
    14    6  133 1    
    15    7    8 1    
    16    8    9 1    
    17    8  134 1    
    18    8  135 1    
    19    9   10 ar   
    20    9   14 ar   
    21   10   11 ar   
    22   10  136 1    
    23   11   12 ar   
    24   11  126 1    
    25   12   13 ar   
    26   12  137 1    
    27   13   14 ar   
    28   13   15 1    
    29   14  138 1    
    30   15   16 1    
    31   15  139 1    
    32   15  140 1    
    33   16   17 1    
    34   17   18 1    
    35   17  141 1    
    36   17  142 1    
    37   18   19 1    
    38   18   67 1    
    39   18  143 1    
    40   19   20 am   BACKBONE|DICT|INTERRES
    41   19  144 1    
    42   20   21 2    
    43   20   22 1    
    44   22   23 1    
    45   22   24 1    
    46   22  145 1    
    47   23  146 1    
    48   23  147 1    
    49   23  148 1    
    50   24   25 am   BACKBONE|DICT|INTERRES
    51   24  149 1    
    52   25   26 2    
    53   25   27 1    
    54   27   28 1    
    55   27   29 1    
    56   27  150 1    
    57   28  151 1    
    58   28  152 1    
    59   28  153 1    
    60   29   30 am   BACKBONE|DICT|INTERRES
    61   29  154 1    
    62   30   31 2    
    63   30   32 1    
    64   32   33 1    
    65   32   34 1    
    66   32  155 1    
    67   33  156 1    
    68   33  157 1    
    69   33  158 1    
    70   34   35 am   BACKBONE|DICT|INTERRES
    71   34  159 1    
    72   35   36 2    
    73   35   37 1    
    74   37   38 1    
    75   37   39 1    
    76   37  160 1    
    77   38  161 1    
    78   38  162 1    
    79   38  163 1    
    80   39   40 am   BACKBONE|DICT|INTERRES
    81   39  164 1    
    82   40   41 2    
    83   40   42 1    
    84   42   43 1    
    85   42   44 1    
    86   42  165 1    
    87   43  166 1    
    88   43  167 1    
    89   43  168 1    
    90   44   45 am   BACKBONE|DICT|INTERRES
    91   44  169 1    
    92   45   46 2    
    93   45   47 1    
    94   47   48 1    
    95   47   49 1    
    96   47  170 1    
    97   48  171 1    
    98   48  172 1    
    99   48  173 1    
   100   49   50 am   BACKBONE|DICT|INTERRES
   101   49  174 1    
   102   50   51 2    
   103   50   52 1    
   104   52   53 1    
   105   52   54 1    
   106   52  175 1    
   107   53  176 1    
   108   53  177 1    
   109   53  178 1    
   110   54   55 am   BACKBONE|DICT|INTERRES
   111   54  179 1    
   112   55   56 2    
   113   55   57 1    
   114   57   58 1    
   115   57   59 1    
   116   57  180 1    
   117   58  181 1    
   118   58  182 1    
   119   58  183 1    
   120   59   60 am   BACKBONE|DICT|INTERRES
   121   59  184 1    
   122   60   61 2    
   123   60   62 1    
   124   62   63 1    
   125   62   64 1    
   126   62  185 1    
   127   63  186 1    
   128   63  187 1    
   129   63  188 1    
   130   64   65 am   BACKBONE|DICT|INTERRES
   131   64  189 1    
   132   65   66 2    
   133   67   68 2    
   134   67   69 am   BACKBONE|DICT|INTERRES
   135   69   70 1    
   136   69  190 1    
   137   70   71 1    
   138   70   72 1    
   139   70  191 1    
   140   71  192 1    
   141   71  193 1    
   142   71  194 1    
   143   72   73 2    
   144   72   74 am   BACKBONE|DICT|INTERRES
   145   74   75 1    
   146   74  195 1    
   147   75   76 1    
   148   75   77 1    
   149   75  196 1    
   150   76  197 1    
   151   76  198 1    
   152   76  199 1    
   153   77   78 2    
   154   77   79 am   BACKBONE|DICT|INTERRES
   155   79   80 1    
   156   79  200 1    
   157   80   81 1    
   158   80   82 1    
   159   80  201 1    
   160   81  202 1    
   161   81  203 1    
   162   81  204 1    
   163   82   83 2    
   164   82   84 am   BACKBONE|DICT|INTERRES
   165   84   85 1    
   166   84  205 1    
   167   85   86 1    
   168   85   87 1    
   169   85  206 1    
   170   86  207 1    
   171   86  208 1    
   172   86  209 1    
   173   87   88 2    
   174   87   89 am   BACKBONE|DICT|INTERRES
   175   89   90 1    
   176   89  210 1    
   177   90   91 1    
   178   90   92 1    
   179   90  211 1    
   180   91  212 1    
   181   91  213 1    
   182   91  214 1    
   183   92   93 2    
   184   92   94 am   BACKBONE|DICT|INTERRES
   185   94   95 1    
   186   94  215 1    
   187   95   96 1    
   188   95   97 1    
   189   95  216 1    
   190   96  217 1    
   191   96  218 1    
   192   96  219 1    
   193   97   98 2    
   194   97   99 am   BACKBONE|DICT|INTERRES
   195   99  100 1    
   196   99  220 1    
   197  100  101 1    
   198  100  102 1    
   199  100  221 1    
   200  101  222 1    
   201  101  223 1    
   202  101  224 1    
   203  102  103 2    
   204  102  104 am   BACKBONE|DICT|INTERRES
   205  104  105 1    
   206  104  225 1    
   207  105  106 1    
   208  105  107 1    
   209  105  226 1    
   210  106  227 1    
   211  106  228 1    
   212  106  229 1    
   213  107  108 2    
   214  107  109 am   BACKBONE|DICT|INTERRES
   215  109  110 1    
   216  109  230 1    
   217  110  111 1    
   218  110  112 1    
   219  110  231 1    
   220  111  232 1    
   221  111  233 1    
   222  111  234 1    
   223  112  113 2    
   224  112  114 am   BACKBONE|DICT|INTERRES
   225  114  115 1    
   226  114  235 1    
   227  115  116 1    
   228  115  117 1    
   229  115  236 1    
   230  116  237 1    
   231  116  238 1    
   232  116  239 1    
   233  117  118 2    
   234  117  119 am   BACKBONE|DICT|INTERRES
   235  119  120 1    
   236  119  240 1    
   237  120  121 1    
   238  120  124 1    
   239  120  241 1    
   240  121  122 am   BACKBONE|DICT|INTERRES
   241  121  123 2    
   242  122  242 1    
   243  122  243 1    
   244  124  125 1    
   245  124  244 1    
   246  124  245 1    
   247  125  126 1    
   248  126  246 1    
   249  126  247 1    
@<TRIPOS>SUBSTRUCTURE
     1 UNK         1 GROUP             0       ****    0 ROOT    
