@<TRIPOS>MOLECULE
3R540
247   249    1
SMALL
USER_CHARGES


@<TRIPOS>ATOM
      1 CA          3.4721  -13.1582  -47.1981 C.3       0 UNK        -0.1800 
      2 C           2.7664  -14.5103  -47.2577 C.2       0 UNK         0.5000 
      3 O           1.5654  -14.5743  -47.0132 O.2       0 UNK        -0.5000 
      4 N           3.4511  -15.6132  -47.5882 N.am      1 UNK        -0.5000 
      5 CA          4.8726  -15.6925  -47.9599 C.3       1 UNK         0.1400 
      6 C6          5.1469  -16.8754  -48.9216 C.3       23 UNK        -0.0398 
      7 S7          4.2000  -16.7224  -50.4748 S.3       23 UNK        -0.2404 
      8 C8          2.8242  -17.8752  -50.1761 C.3       23 UNK        -0.0205 
      9 C9          1.5501  -17.3844  -50.8416 C.ar      23 UNK        -0.0193 
     10 C10         1.2385  -17.7735  -52.1472 C.ar      23 UNK        -0.1150 
     11 C11         0.0498  -17.3493  -52.7483 C.ar      23 UNK        -0.0193 
     12 C12        -0.8295  -16.5319  -52.0332 C.ar      23 UNK        -0.1150 
     13 C13        -0.5261  -16.1329  -50.7285 C.ar      23 UNK        -0.0193 
     14 C14         0.6720  -16.5507  -50.1433 C.ar      23 UNK        -0.1150 
     15 C15        -1.4987  -15.2578  -49.9537 C.3       23 UNK        -0.0205 
     16 S16        -2.8089  -16.2488  -49.1660 S.3       23 UNK        -0.2404 
     17 C17        -1.9485  -16.9209  -47.7023 C.3       23 UNK        -0.0398 
     18 CA         -1.3644  -18.3401  -47.9043 C.3       11 UNK         0.1400 
     19 N          -0.4367  -18.6875  -46.8285 N.am      11 UNK        -0.5000 
     20 C           0.3788  -19.7497  -46.8248 C.2       10 UNK         0.5000 
     21 O           0.4787  -20.5422  -47.7604 O.2       10 UNK        -0.5000 
     22 CA          1.1780  -19.9946  -45.5322 C.3       10 UNK         0.1400 
     23 CB          2.3952  -19.0590  -45.4514 C.3       10 UNK        -0.1800 
     24 N           0.3536  -19.8394  -44.3320 N.am      10 UNK        -0.5000 
     25 C          -0.7184  -20.5902  -44.0399 C.2       9 UNK         0.5000 
     26 O          -1.1022  -21.5330  -44.7300 O.2       9 UNK        -0.5000 
     27 CA         -1.5289  -20.1924  -42.7955 C.3       9 UNK         0.1400 
     28 CB         -0.8958  -20.7612  -41.5165 C.3       9 UNK        -0.1800 
     29 N          -1.6732  -18.7422  -42.6769 N.am      9 UNK        -0.5000 
     30 C          -2.4277  -17.9886  -43.4888 C.2       8 UNK         0.5000 
     31 O          -3.1010  -18.4406  -44.4150 O.2       8 UNK        -0.5000 
     32 CA         -2.3842  -16.4673  -43.2529 C.3       8 UNK         0.1400 
     33 CB         -3.3074  -16.0690  -42.0919 C.3       8 UNK        -0.1800 
     34 N          -1.0317  -15.9718  -42.9912 N.am      8 UNK        -0.5000 
     35 C          -0.0230  -16.0388  -43.8708 C.2       7 UNK         0.5000 
     36 O          -0.1323  -16.5219  -44.9962 O.2       7 UNK        -0.5000 
     37 CA          1.3501  -15.5393  -43.3895 C.3       7 UNK         0.1400 
     38 CB          1.4324  -14.0086  -43.4863 C.3       7 UNK        -0.1800 
     39 N           1.6953  -15.9502  -42.0261 N.am      7 UNK        -0.5000 
     40 C           1.6880  -17.1993  -41.5395 C.2       6 UNK         0.5000 
     41 O           1.3158  -18.1759  -42.1885 O.2       6 UNK        -0.5000 
     42 CA          2.1818  -17.4092  -40.0965 C.3       6 UNK         0.1400 
     43 CB          3.5470  -18.1142  -40.1022 C.3       6 UNK        -0.1800 
     44 N           2.3159  -16.1524  -39.3565 N.am      6 UNK        -0.5000 
     45 C           1.5909  -15.7953  -38.2887 C.2       5 UNK         0.5000 
     46 O           0.6841  -16.4831  -37.8181 O.2       5 UNK        -0.5000 
     47 CA          1.9402  -14.4513  -37.6132 C.3       5 UNK         0.1400 
     48 CB          2.8655  -14.6859  -36.4092 C.3       5 UNK        -0.1800 
     49 N           2.5736  -13.4820  -38.5104 N.am      5 UNK        -0.5000 
     50 C           1.9421  -12.8337  -39.4976 C.2       4 UNK         0.5000 
     51 O           0.7395  -12.9563  -39.7315 O.2       4 UNK        -0.5000 
     52 CA          2.7943  -11.9116  -40.3966 C.3       4 UNK         0.1400 
     53 CB          2.7657  -10.4737  -39.8564 C.3       4 UNK        -0.1800 
     54 N           4.1943  -12.3085  -40.6165 N.am      4 UNK        -0.5000 
     55 C           4.6284  -13.5190  -40.9921 C.2       3 UNK         0.5000 
     56 O           3.9209  -14.5265  -40.9963 O.2       3 UNK        -0.5000 
     57 CA          6.1046  -13.6360  -41.4196 C.3       3 UNK         0.1400 
     58 CB          6.9994  -13.8470  -40.1891 C.3       3 UNK        -0.1800 
     59 N           6.3074  -14.7527  -42.3490 N.am      3 UNK        -0.5000 
     60 C           5.7409  -14.8493  -43.5600 C.2       2 UNK         0.5000 
     61 O           5.1129  -13.9294  -44.0911 O.2       2 UNK        -0.5000 
     62 CA          5.8799  -16.2106  -44.2724 C.3       2 UNK         0.1400 
     63 CB          5.2477  -17.3419  -43.4427 C.3       2 UNK        -0.1800 
     64 N           5.2241  -16.1880  -45.5785 N.am      2 UNK        -0.5000 
     65 C           5.7900  -15.7808  -46.7211 C.2       1 UNK         0.5000 
     66 O           6.9776  -15.4712  -46.8235 O.2       1 UNK        -0.5000 
     67 C          -2.4504  -19.4177  -48.0941 C.2       11 UNK         0.5000 
     68 O          -2.6748  -19.8507  -49.2241 O.2       11 UNK        -0.5000 
     69 N          -3.0614  -19.8798  -46.9923 N.am      12 UNK        -0.5000 
     70 CA         -4.0517  -20.9592  -46.9975 C.3       12 UNK         0.1400 
     71 CB         -4.6490  -21.1300  -45.5937 C.3       12 UNK        -0.1800 
     72 C          -3.4880  -22.2948  -47.5158 C.2       12 UNK         0.5000 
     73 O          -4.1749  -22.9827  -48.2712 O.2       12 UNK        -0.5000 
     74 N          -2.2458  -22.6204  -47.1328 N.am      13 UNK        -0.5000 
     75 CA         -1.5101  -23.7920  -47.6046 C.3       13 UNK         0.1400 
     76 CB         -0.2439  -23.9887  -46.7575 C.3       13 UNK        -0.1800 
     77 C          -1.1634  -23.7069  -49.1011 C.2       13 UNK         0.5000 
     78 O          -1.3843  -24.6791  -49.8229 O.2       13 UNK        -0.5000 
     79 N          -0.6650  -22.5449  -49.5490 N.am      14 UNK        -0.5000 
     80 CA         -0.3297  -22.2662  -50.9490 C.3       14 UNK         0.1400 
     81 CB          0.3954  -20.9169  -51.0459 C.3       14 UNK        -0.1800 
     82 C          -1.5588  -22.2892  -51.8760 C.2       14 UNK         0.5000 
     83 O          -1.4848  -22.8311  -52.9796 O.2       14 UNK        -0.5000 
     84 N          -2.6792  -21.7399  -51.3902 N.am      15 UNK        -0.5000 
     85 CA         -3.9746  -21.7593  -52.0645 C.3       15 UNK         0.1400 
     86 CB         -4.8667  -20.6705  -51.4505 C.3       15 UNK        -0.1800 
     87 C          -4.6804  -23.1278  -51.9979 C.2       15 UNK         0.5000 
     88 O          -5.6648  -23.3222  -52.7143 O.2       15 UNK        -0.5000 
     89 N          -4.2018  -24.0275  -51.1266 N.am      16 UNK        -0.5000 
     90 CA         -4.7591  -25.3412  -50.7911 C.3       16 UNK         0.1400 
     91 CB         -4.6093  -26.3149  -51.9769 C.3       16 UNK        -0.1800 
     92 C          -6.2099  -25.2285  -50.2837 C.2       16 UNK         0.5000 
     93 O          -7.1037  -25.8953  -50.8038 O.2       16 UNK        -0.5000 
     94 N          -6.4275  -24.3145  -49.3264 N.am      17 UNK        -0.5000 
     95 CA         -7.7300  -23.9067  -48.7807 C.3       17 UNK         0.1400 
     96 CB         -8.3582  -25.0484  -47.9551 C.3       17 UNK        -0.1800 
     97 C          -8.6826  -23.3475  -49.8638 C.2       17 UNK         0.5000 
     98 O          -9.8945  -23.5573  -49.7979 O.2       17 UNK        -0.5000 
     99 N          -8.0894  -22.6617  -50.8522 N.am      18 UNK        -0.5000 
    100 CA        -8.6927  -22.0845  -52.0578 C.3       18 UNK         0.1400 
    101 CB        -9.7970  -21.0649  -51.7096 C.3       18 UNK        -0.1800 
    102 C         -9.1458  -23.1214  -53.1080 C.2       18 UNK         0.5000 
    103 O         -9.8165  -22.7387  -54.0680 O.2       18 UNK        -0.5000 
    104 N         -8.7572  -24.3971  -52.9534 N.am      19 UNK        -0.5000 
    105 CA        -9.0250  -25.4480  -53.9385 C.3       19 UNK         0.1400 
    106 CB        -8.8999  -26.8301  -53.2807 C.3       19 UNK        -0.1800 
    107 C         -8.0953  -25.3496  -55.1617 C.2       19 UNK         0.5000 
    108 O         -8.5323  -25.6474  -56.2742 O.2       19 UNK        -0.5000 
    109 N         -6.8418  -24.9305  -54.9387 N.am      20 UNK        -0.5000 
    110 CA        -5.8484  -24.7041  -55.9895 C.3       20 UNK         0.1400 
    111 CB        -4.4744  -25.2045  -55.5158 C.3       20 UNK        -0.1800 
    112 C         -5.7690  -23.2172  -56.3656 C.2       20 UNK         0.5000 
    113 O         -5.5381  -22.9001  -57.5331 O.2       20 UNK        -0.5000 
    114 N         -5.9337  -22.3357  -55.3656 N.am      21 UNK        -0.5000 
    115 CA        -5.9090  -20.8694  -55.4546 C.3       21 UNK         0.1400 
    116 CB        -7.1734  -20.3621  -56.1766 C.3       21 UNK        -0.1800 
    117 C         -4.6019  -20.3071  -56.0608 C.2       21 UNK         0.5000 
    118 O         -4.6256  -19.2665  -56.7196 O.2       21 UNK        -0.5000 
    119 N         -3.4932  -21.0287  -55.8406 N.am      22 UNK        -0.5000 
    120 CA        -2.1579  -20.7948  -56.4181 C.3       22 UNK         0.1400 
    121 C         -2.0647  -21.0632  -57.9539 C.2       22 UNK         0.5000 
    122 N         -3.0398  -21.7077  -58.5858 N.am      22 UNK        -0.7600 
    123 O         -1.0725  -20.7122  -58.5871 O.2       22 UNK        -0.5000 
    124 C124       -1.5339  -19.4278  -56.0159 C.3       23 UNK        -0.0398 
    125 S125       -1.3849  -19.2079  -54.2110 S.3       23 UNK        -0.2404 
    126 C126       -0.2813  -17.7636  -54.1723 C.3       23 UNK        -0.0205 
    127 H127        4.4002  -13.2141  -46.6310 H         1 UNK         0.0600 
    128 H128        2.8354  -12.4193  -46.7112 H         1 UNK         0.0600 
    129 H129        3.6948  -12.8011  -48.2034 H         1 UNK         0.0600 
    130 H130        2.9460  -16.4838  -47.6362 H         1 UNK         0.3000 
    131 H131        5.1488  -14.7790  -48.4899 H         1 UNK         0.0600 
    132 H132        6.2044  -16.9061  -49.1909 H         1 UNK         0.0800 
    133 H133        4.9310  -17.8326  -48.4435 H         1 UNK         0.0800 
    134 H134        2.6462  -17.9979  -49.1072 H         1 UNK         0.0800 
    135 H135        3.0940  -18.8630  -50.5530 H         1 UNK         0.0800 
    136 H136        1.9186  -18.4128  -52.6924 H         1 UNK         0.1150 
    137 H137       -1.7556  -16.2125  -52.4904 H         1 UNK         0.1150 
    138 H138        0.9081  -16.2455  -49.1338 H         1 UNK         0.1150 
    139 H139       -0.9730  -14.6629  -49.2048 H         1 UNK         0.0800 
    140 H140       -1.9629  -14.5428  -50.6345 H         1 UNK         0.0800 
    141 H141       -2.6390  -16.9088  -46.8573 H         1 UNK         0.0800 
    142 H142       -1.1487  -16.2291  -47.4345 H         1 UNK         0.0800 
    143 H143       -0.7785  -18.3379  -48.8231 H         1 UNK         0.0600 
    144 H144       -0.4163  -18.0545  -46.0320 H         1 UNK         0.3000 
    145 H145        1.5402  -21.0244  -45.5544 H         1 UNK         0.0600 
    146 H146        2.9821  -19.2567  -44.5544 H         1 UNK         0.0600 
    147 H147        3.0532  -19.1995  -46.3099 H         1 UNK         0.0600 
    148 H148        2.0995  -18.0106  -45.4319 H         1 UNK         0.0600 
    149 H149        0.6241  -19.1101  -43.6768 H         1 UNK         0.3000 
    150 H150       -2.5267  -20.6245  -42.8956 H         1 UNK         0.0600 
    151 H151       -0.8244  -21.8483  -41.5704 H         1 UNK         0.0600 
    152 H152       -1.4947  -20.5185  -40.6387 H         1 UNK         0.0600 
    153 H153        0.1109  -20.3766  -41.3527 H         1 UNK         0.0600 
    154 H154       -1.0850  -18.2835  -41.9964 H         1 UNK         0.3000 
    155 H155       -2.7487  -15.9817  -44.1606 H         1 UNK         0.0600 
    156 H156       -2.9742  -16.4965  -41.1453 H         1 UNK         0.0600 
    157 H157       -4.3268  -16.4151  -42.2681 H         1 UNK         0.0600 
    158 H158       -3.3488  -14.9859  -41.9750 H         1 UNK         0.0600 
    159 H159       -0.8522  -15.5754  -42.0802 H         1 UNK         0.3000 
    160 H160        2.1031  -15.9602  -44.0577 H         1 UNK         0.0600 
    161 H161        0.7727  -13.5237  -42.7658 H         1 UNK         0.0600 
    162 H162        1.1466  -13.6602  -44.4792 H         1 UNK         0.0600 
    163 H163        2.4476  -13.6576  -43.3028 H         1 UNK         0.0600 
    164 H164        2.1199  -15.2351  -41.4484 H         1 UNK         0.3000 
    165 H165        1.4605  -18.0688  -39.6102 H         1 UNK         0.0600 
    166 H166        3.8575  -18.3736  -39.0901 H         1 UNK         0.0600 
    167 H167        3.5139  -19.0393  -40.6794 H         1 UNK         0.0600 
    168 H168        4.3212  -17.4804  -40.5354 H         1 UNK         0.0600 
    169 H169        3.0176  -15.5071  -39.7110 H         1 UNK         0.3000 
    170 H170        1.0077  -14.0178  -37.2454 H         1 UNK         0.0600 
    171 H171        2.4154  -15.3814  -35.6995 H         1 UNK         0.0600 
    172 H172        3.8251  -15.1045  -36.7153 H         1 UNK         0.0600 
    173 H173        3.0591  -13.7568  -35.8728 H         1 UNK         0.0600 
    174 H174        3.5656  -13.3337  -38.3971 H         1 UNK         0.3000 
    175 H175        2.3167  -11.9071  -41.3780 H         1 UNK         0.0600 
    176 H176        3.2829  -10.3950  -38.8993 H         1 UNK         0.0600 
    177 H177        3.2375   -9.7797  -40.5522 H         1 UNK         0.0600 
    178 H178        1.7411  -10.1308  -39.7051 H         1 UNK         0.0600 
    179 H179        4.8624  -11.5514  -40.6060 H         1 UNK         0.3000 
    180 H180        6.3986  -12.7129  -41.9231 H         1 UNK         0.0600 
    181 H181        6.7406  -14.7630  -39.6560 H         1 UNK         0.0600 
    182 H182        6.9017  -13.0193  -39.4854 H         1 UNK         0.0600 
    183 H183        8.0506  -13.9081  -40.4713 H         1 UNK         0.0600 
    184 H184        6.7883  -15.5566  -41.9742 H         1 UNK         0.3000 
    185 H185        6.9436  -16.4225  -44.3985 H         1 UNK         0.0600 
    186 H186        5.7648  -17.4746  -42.4925 H         1 UNK         0.0600 
    187 H187        4.1990  -17.1423  -43.2232 H         1 UNK         0.0600 
    188 H188        5.3033  -18.2946  -43.9695 H         1 UNK         0.0600 
    189 H189        4.2293  -16.3518  -45.5809 H         1 UNK         0.3000 
    190 H190       -2.8516  -19.4608  -46.0912 H         1 UNK         0.3000 
    191 H191       -4.8571  -20.6614  -47.6720 H         1 UNK         0.0600 
    192 H192       -3.8868  -21.3974  -44.8618 H         1 UNK         0.0600 
    193 H193       -5.4050  -21.9162  -45.5836 H         1 UNK         0.0600 
    194 H194       -5.1304  -20.2121  -45.2559 H         1 UNK         0.0600 
    195 H195       -1.7730  -22.0316  -46.4523 H         1 UNK         0.3000 
    196 H196       -2.1488  -24.6662  -47.4615 H         1 UNK         0.0600 
    197 H197        0.3160  -24.8643  -47.0882 H         1 UNK         0.0600 
    198 H198       -0.4936  -24.1399  -45.7072 H         1 UNK         0.0600 
    199 H199        0.4228  -23.1284  -46.8206 H         1 UNK         0.0600 
    200 H200       -0.4767  -21.8002  -48.8829 H         1 UNK         0.3000 
    201 H201        0.3559  -23.0451  -51.2886 H         1 UNK         0.0600 
    202 H202        1.3107  -20.9149  -50.4542 H         1 UNK         0.0600 
    203 H203       -0.2316  -20.0962  -50.6947 H         1 UNK         0.0600 
    204 H204        0.6730  -20.6984  -52.0777 H         1 UNK         0.0600 
    205 H205       -2.6379  -21.2450  -50.5016 H         1 UNK         0.3000 
    206 H206       -3.8178  -21.5183  -53.1158 H         1 UNK         0.0600 
    207 H207       -4.3923  -19.6911  -51.5197 H         1 UNK         0.0600 
    208 H208       -5.8230  -20.6000  -51.9669 H         1 UNK         0.0600 
    209 H209       -5.0725  -20.8668  -50.3973 H         1 UNK         0.0600 
    210 H210       -3.3969  -23.7556  -50.5774 H         1 UNK         0.3000 
    211 H211       -4.1650  -25.7282  -49.9620 H         1 UNK         0.0600 
    212 H212       -5.2462  -26.0345  -52.8145 H         1 UNK         0.0600 
    213 H213       -4.8870  -27.3279  -51.6844 H         1 UNK         0.0600 
    214 H214       -3.5796  -26.3484  -52.3330 H         1 UNK         0.0600 
    215 H215       -5.6183  -23.8099  -48.9640 H         1 UNK         0.3000 
    216 H216       -7.5281  -23.0796  -48.0986 H         1 UNK         0.0600 
    217 H217       -9.2541  -24.7077  -47.4349 H         1 UNK         0.0600 
    218 H218       -7.6645  -25.4145  -47.1983 H         1 UNK         0.0600 
    219 H219       -8.6463  -25.8922  -48.5828 H         1 UNK         0.0600 
    220 H220       -7.0818  -22.6100  -50.8213 H         1 UNK         0.3000 
    221 H221       -7.8926  -21.5272  -52.5447 H         1 UNK         0.0600 
    222 H222      -10.6879  -21.5495  -51.3102 H         1 UNK         0.0600 
    223 H223       -9.4480  -20.3405  -50.9737 H         1 UNK         0.0600 
    224 H224      -10.1034  -20.5041  -52.5933 H         1 UNK         0.0600 
    225 H225       -8.2072  -24.6605  -52.1436 H         1 UNK         0.3000 
    226 H226      -10.0541  -25.3398  -54.2879 H         1 UNK         0.0600 
    227 H227       -9.5093  -26.8984  -52.3794 H         1 UNK         0.0600 
    228 H228       -9.2343  -27.6137  -53.9616 H         1 UNK         0.0600 
    229 H229       -7.8686  -27.0571  -53.0089 H         1 UNK         0.0600 
    230 H230       -6.5763  -24.6658  -53.9969 H         1 UNK         0.3000 
    231 H231       -6.1143  -25.2626  -56.8894 H         1 UNK         0.0600 
    232 H232       -4.5054  -26.2669  -55.2739 H         1 UNK         0.0600 
    233 H233       -4.1258  -24.6696  -54.6320 H         1 UNK         0.0600 
    234 H234       -3.7224  -25.0717  -56.2947 H         1 UNK         0.0600 
    235 H235       -6.0527  -22.7125  -54.4296 H         1 UNK         0.3000 
    236 H236       -5.9473  -20.4991  -54.4300 H         1 UNK         0.0600 
    237 H237       -7.1802  -20.6513  -57.2280 H         1 UNK         0.0600 
    238 H238       -8.0766  -20.7605  -55.7137 H         1 UNK         0.0600 
    239 H239       -7.2414  -19.2745  -56.1344 H         1 UNK         0.0600 
    240 H240       -3.5819  -21.8785  -55.3052 H         1 UNK         0.3000 
    241 H241       -1.5263  -21.5674  -55.9779 H         1 UNK         0.0600 
    242 H242       -2.9514  -21.8794  -59.5747 H         1 UNK         0.3800 
    243 H243       -3.8755  -22.0203  -58.1017 H         1 UNK         0.3800 
    244 H244       -2.1103  -18.5987  -56.4273 H         1 UNK         0.0800 
    245 H245       -0.5320  -19.3370  -56.4386 H         1 UNK         0.0800 
    246 H246       -0.7546  -16.9323  -54.6972 H         1 UNK         0.0800 
    247 H247        0.6357  -17.9914  -54.7180 H         1 UNK         0.0800 
@<TRIPOS>BOND
     1    1    2 1    
     2    1  127 1    
     3    1  128 1    
     4    1  129 1    
     5    2    3 2    
     6    2    4 am   BACKBONE|DICT|INTERRES
     7    4    5 1    
     8    4  130 1    
     9    5    6 1    
    10    5   65 1    
    11    5  131 1    
    12    6    7 1    
    13    6  132 1    
    14    6  133 1    
    15    7    8 1    
    16    8    9 1    
    17    8  134 1    
    18    8  135 1    
    19    9   10 ar   
    20    9   14 ar   
    21   10   11 ar   
    22   10  136 1    
    23   11   12 ar   
    24   11  126 1    
    25   12   13 ar   
    26   12  137 1    
    27   13   14 ar   
    28   13   15 1    
    29   14  138 1    
    30   15   16 1    
    31   15  139 1    
    32   15  140 1    
    33   16   17 1    
    34   17   18 1    
    35   17  141 1    
    36   17  142 1    
    37   18   19 1    
    38   18   67 1    
    39   18  143 1    
    40   19   20 am   BACKBONE|DICT|INTERRES
    41   19  144 1    
    42   20   21 2    
    43   20   22 1    
    44   22   23 1    
    45   22   24 1    
    46   22  145 1    
    47   23  146 1    
    48   23  147 1    
    49   23  148 1    
    50   24   25 am   BACKBONE|DICT|INTERRES
    51   24  149 1    
    52   25   26 2    
    53   25   27 1    
    54   27   28 1    
    55   27   29 1    
    56   27  150 1    
    57   28  151 1    
    58   28  152 1    
    59   28  153 1    
    60   29   30 am   BACKBONE|DICT|INTERRES
    61   29  154 1    
    62   30   31 2    
    63   30   32 1    
    64   32   33 1    
    65   32   34 1    
    66   32  155 1    
    67   33  156 1    
    68   33  157 1    
    69   33  158 1    
    70   34   35 am   BACKBONE|DICT|INTERRES
    71   34  159 1    
    72   35   36 2    
    73   35   37 1    
    74   37   38 1    
    75   37   39 1    
    76   37  160 1    
    77   38  161 1    
    78   38  162 1    
    79   38  163 1    
    80   39   40 am   BACKBONE|DICT|INTERRES
    81   39  164 1    
    82   40   41 2    
    83   40   42 1    
    84   42   43 1    
    85   42   44 1    
    86   42  165 1    
    87   43  166 1    
    88   43  167 1    
    89   43  168 1    
    90   44   45 am   BACKBONE|DICT|INTERRES
    91   44  169 1    
    92   45   46 2    
    93   45   47 1    
    94   47   48 1    
    95   47   49 1    
    96   47  170 1    
    97   48  171 1    
    98   48  172 1    
    99   48  173 1    
   100   49   50 am   BACKBONE|DICT|INTERRES
   101   49  174 1    
   102   50   51 2    
   103   50   52 1    
   104   52   53 1    
   105   52   54 1    
   106   52  175 1    
   107   53  176 1    
   108   53  177 1    
   109   53  178 1    
   110   54   55 am   BACKBONE|DICT|INTERRES
   111   54  179 1    
   112   55   56 2    
   113   55   57 1    
   114   57   58 1    
   115   57   59 1    
   116   57  180 1    
   117   58  181 1    
   118   58  182 1    
   119   58  183 1    
   120   59   60 am   BACKBONE|DICT|INTERRES
   121   59  184 1    
   122   60   61 2    
   123   60   62 1    
   124   62   63 1    
   125   62   64 1    
   126   62  185 1    
   127   63  186 1    
   128   63  187 1    
   129   63  188 1    
   130   64   65 am   BACKBONE|DICT|INTERRES
   131   64  189 1    
   132   65   66 2    
   133   67   68 2    
   134   67   69 am   BACKBONE|DICT|INTERRES
   135   69   70 1    
   136   69  190 1    
   137   70   71 1    
   138   70   72 1    
   139   70  191 1    
   140   71  192 1    
   141   71  193 1    
   142   71  194 1    
   143   72   73 2    
   144   72   74 am   BACKBONE|DICT|INTERRES
   145   74   75 1    
   146   74  195 1    
   147   75   76 1    
   148   75   77 1    
   149   75  196 1    
   150   76  197 1    
   151   76  198 1    
   152   76  199 1    
   153   77   78 2    
   154   77   79 am   BACKBONE|DICT|INTERRES
   155   79   80 1    
   156   79  200 1    
   157   80   81 1    
   158   80   82 1    
   159   80  201 1    
   160   81  202 1    
   161   81  203 1    
   162   81  204 1    
   163   82   83 2    
   164   82   84 am   BACKBONE|DICT|INTERRES
   165   84   85 1    
   166   84  205 1    
   167   85   86 1    
   168   85   87 1    
   169   85  206 1    
   170   86  207 1    
   171   86  208 1    
   172   86  209 1    
   173   87   88 2    
   174   87   89 am   BACKBONE|DICT|INTERRES
   175   89   90 1    
   176   89  210 1    
   177   90   91 1    
   178   90   92 1    
   179   90  211 1    
   180   91  212 1    
   181   91  213 1    
   182   91  214 1    
   183   92   93 2    
   184   92   94 am   BACKBONE|DICT|INTERRES
   185   94   95 1    
   186   94  215 1    
   187   95   96 1    
   188   95   97 1    
   189   95  216 1    
   190   96  217 1    
   191   96  218 1    
   192   96  219 1    
   193   97   98 2    
   194   97   99 am   BACKBONE|DICT|INTERRES
   195   99  100 1    
   196   99  220 1    
   197  100  101 1    
   198  100  102 1    
   199  100  221 1    
   200  101  222 1    
   201  101  223 1    
   202  101  224 1    
   203  102  103 2    
   204  102  104 am   BACKBONE|DICT|INTERRES
   205  104  105 1    
   206  104  225 1    
   207  105  106 1    
   208  105  107 1    
   209  105  226 1    
   210  106  227 1    
   211  106  228 1    
   212  106  229 1    
   213  107  108 2    
   214  107  109 am   BACKBONE|DICT|INTERRES
   215  109  110 1    
   216  109  230 1    
   217  110  111 1    
   218  110  112 1    
   219  110  231 1    
   220  111  232 1    
   221  111  233 1    
   222  111  234 1    
   223  112  113 2    
   224  112  114 am   BACKBONE|DICT|INTERRES
   225  114  115 1    
   226  114  235 1    
   227  115  116 1    
   228  115  117 1    
   229  115  236 1    
   230  116  237 1    
   231  116  238 1    
   232  116  239 1    
   233  117  118 2    
   234  117  119 am   BACKBONE|DICT|INTERRES
   235  119  120 1    
   236  119  240 1    
   237  120  121 1    
   238  120  124 1    
   239  120  241 1    
   240  121  122 am   BACKBONE|DICT|INTERRES
   241  121  123 2    
   242  122  242 1    
   243  122  243 1    
   244  124  125 1    
   245  124  244 1    
   246  124  245 1    
   247  125  126 1    
   248  126  246 1    
   249  126  247 1    
@<TRIPOS>SUBSTRUCTURE
     1 UNK         1 GROUP             0       ****    0 ROOT    
