@<TRIPOS>MOLECULE
3R540
247   249    1
SMALL
USER_CHARGES


@<TRIPOS>ATOM
      1 CA         -4.5713  -16.6971  -43.9203 C.3       0 UNK        -0.1800 
      2 C          -4.2482  -15.5556  -44.8748 C.2       0 UNK         0.5000 
      3 O          -5.1547  -14.8406  -45.3027 O.2       0 UNK        -0.5000 
      4 N          -2.9617  -15.3865  -45.2086 N.am      1 UNK        -0.5000 
      5 CA         -2.4526  -14.2813  -46.0275 C.3       1 UNK         0.1400 
      6 C6         -1.0374  -14.5982  -46.5865 C.3       23 UNK        -0.0398 
      7 S7         -0.7113  -13.7144  -48.1530 S.3       23 UNK        -0.2404 
      8 C8          0.3147  -14.9010  -49.0922 C.3       23 UNK        -0.0205 
      9 C9         -0.3388  -16.2385  -49.4472 C.ar      23 UNK        -0.0193 
     10 C10         0.4921  -17.3036  -49.8167 C.ar      23 UNK        -0.1150 
     11 C11        -0.0464  -18.5483  -50.1542 C.ar      23 UNK        -0.0193 
     12 C12        -1.4280  -18.7227  -50.1254 C.ar      23 UNK        -0.1150 
     13 C13        -2.2733  -17.6851  -49.7296 C.ar      23 UNK        -0.0193 
     14 C14        -1.7273  -16.4373  -49.4191 C.ar      23 UNK        -0.1150 
     15 C15        -3.7715  -17.9328  -49.6205 C.3       23 UNK        -0.0205 
     16 S16        -4.4162  -17.9021  -47.9083 S.3       23 UNK        -0.2404 
     17 C17        -3.0843  -18.5946  -46.8630 C.3       23 UNK        -0.0398 
     18 CA         -2.6455  -20.0383  -47.2028 C.3       11 UNK         0.1400 
     19 N          -1.2665  -20.2795  -46.7691 N.am      11 UNK        -0.5000 
     20 C          -0.5244  -21.3384  -47.1152 C.2       10 UNK         0.5000 
     21 O          -0.9019  -22.1878  -47.9190 O.2       10 UNK        -0.5000 
     22 CA          0.8384  -21.5158  -46.4172 C.3       10 UNK         0.1400 
     23 CB          1.9836  -21.2046  -47.3896 C.3       10 UNK        -0.1800 
     24 N           1.0095  -20.7324  -45.1859 N.am      10 UNK        -0.5000 
     25 C           0.2648  -20.8704  -44.0758 C.2       9 UNK         0.5000 
     26 O          -0.7119  -21.6200  -44.0196 O.2       9 UNK        -0.5000 
     27 CA          0.6264  -20.0029  -42.8480 C.3       9 UNK         0.1400 
     28 CB          0.3024  -20.7064  -41.5144 C.3       9 UNK        -0.1800 
     29 N           2.0012  -19.4929  -42.8461 N.am      9 UNK        -0.5000 
     30 C           3.1421  -20.1992  -42.8325 C.2       8 UNK         0.5000 
     31 O           3.1886  -21.4294  -42.7799 O.2       8 UNK        -0.5000 
     32 CA          4.4455  -19.3744  -42.9194 C.3       8 UNK         0.1400 
     33 CB          5.6607  -20.2145  -43.3631 C.3       8 UNK        -0.1800 
     34 N           4.3142  -18.1798  -43.7623 N.am      8 UNK        -0.5000 
     35 C           3.9648  -18.1255  -45.0575 C.2       7 UNK         0.5000 
     36 O           3.6983  -19.1199  -45.7299 O.2       7 UNK        -0.5000 
     37 CA          3.8424  -16.7323  -45.7104 C.3       7 UNK         0.1400 
     38 CB          2.3772  -16.4457  -46.0780 C.3       7 UNK        -0.1800 
     39 N           4.3314  -15.6454  -44.8613 N.am      7 UNK        -0.5000 
     40 C           5.6190  -15.3814  -44.6010 C.2       6 UNK         0.5000 
     41 O           6.5619  -15.9830  -45.1153 O.2       6 UNK        -0.5000 
     42 CA          5.8889  -14.2926  -43.5474 C.3       6 UNK         0.1400 
     43 CB          5.9419  -12.9035  -44.2011 C.3       6 UNK        -0.1800 
     44 N           4.8767  -14.2993  -42.4874 N.am      6 UNK        -0.5000 
     45 C           4.7956  -15.2275  -41.5227 C.2       5 UNK         0.5000 
     46 O           5.5911  -16.1591  -41.4034 O.2       5 UNK        -0.5000 
     47 CA          3.6035  -15.1216  -40.5534 C.3       5 UNK         0.1400 
     48 CB          3.9037  -14.1155  -39.4322 C.3       5 UNK        -0.1800 
     49 N           2.3606  -14.7415  -41.2260 N.am      5 UNK        -0.5000 
     50 C           1.6944  -15.5222  -42.0876 C.2       4 UNK         0.5000 
     51 O           2.0341  -16.6684  -42.3805 O.2       4 UNK        -0.5000 
     52 CA          0.4542  -14.9114  -42.7662 C.3       4 UNK         0.1400 
     53 CB         -0.7992  -15.1985  -41.9260 C.3       4 UNK        -0.1800 
     54 N           0.5483  -13.4712  -43.0404 N.am      4 UNK        -0.5000 
     55 C           1.5217  -12.8719  -43.7431 C.2       3 UNK         0.5000 
     56 O           2.4836  -13.4762  -44.2185 O.2       3 UNK        -0.5000 
     57 CA          1.3561  -11.3628  -43.9842 C.3       3 UNK         0.1400 
     58 CB          2.5567  -10.7311  -44.7114 C.3       3 UNK        -0.1800 
     59 N           0.1531  -11.1711  -44.7841 N.am      3 UNK        -0.5000 
     60 C          -0.8651  -10.3536  -44.4907 C.2       2 UNK         0.5000 
     61 O          -0.8563   -9.5499  -43.5578 O.2       2 UNK        -0.5000 
     62 CA         -2.1263  -10.4881  -45.3716 C.3       2 UNK         0.1400 
     63 CB         -2.1021   -9.4546  -46.5079 C.3       2 UNK        -0.1800 
     64 N          -2.2923  -11.8286  -45.9473 N.am      2 UNK        -0.5000 
     65 C          -2.4641  -12.9513  -45.2355 C.2       1 UNK         0.5000 
     66 O          -2.5674  -12.9581  -44.0061 O.2       1 UNK        -0.5000 
     67 C          -3.6352  -21.1074  -46.6869 C.2       11 UNK         0.5000 
     68 O          -4.6314  -21.3771  -47.3599 O.2       11 UNK        -0.5000 
     69 N          -3.3224  -21.7449  -45.5469 N.am      12 UNK        -0.5000 
     70 CA         -4.0635  -22.8970  -45.0325 C.3       12 UNK         0.1400 
     71 CB         -3.7060  -23.1285  -43.5568 C.3       12 UNK        -0.1800 
     72 C          -3.7975  -24.1641  -45.8664 C.2       12 UNK         0.5000 
     73 O          -4.7372  -24.9013  -46.1625 O.2       12 UNK        -0.5000 
     74 N          -2.5344  -24.3709  -46.2691 N.am      13 UNK        -0.5000 
     75 CA         -2.1042  -25.4743  -47.1347 C.3       13 UNK         0.1400 
     76 CB         -0.5714  -25.5804  -47.1122 C.3       13 UNK        -0.1800 
     77 C          -2.6257  -25.3250  -48.5766 C.2       13 UNK         0.5000 
     78 O          -3.0196  -26.3160  -49.1912 O.2       13 UNK        -0.5000 
     79 N          -2.6677  -24.0781  -49.0647 N.am      14 UNK        -0.5000 
     80 CA         -3.2670  -23.6786  -50.3392 C.3       14 UNK         0.1400 
     81 CB         -2.7829  -22.2634  -50.6833 C.3       14 UNK        -0.1800 
     82 C          -4.8098  -23.7089  -50.3293 C.2       14 UNK         0.5000 
     83 O          -5.4156  -23.5168  -51.3847 O.2       14 UNK        -0.5000 
     84 N          -5.4136  -23.9018  -49.1463 N.am      15 UNK        -0.5000 
     85 CA         -6.8497  -23.9532  -48.8653 C.3       15 UNK         0.1400 
     86 CB         -7.4631  -25.2419  -49.4484 C.3       15 UNK        -0.1800 
     87 C          -7.5765  -22.6680  -49.3062 C.2       15 UNK         0.5000 
     88 O          -8.5367  -22.7286  -50.0748 O.2       15 UNK        -0.5000 
     89 N          -7.0610  -21.5219  -48.8364 N.am      16 UNK        -0.5000 
     90 CA         -7.5046  -20.1590  -49.1540 C.3       16 UNK         0.1400 
     91 CB         -8.9354  -19.9021  -48.6363 C.3       16 UNK        -0.1800 
     92 C          -7.3216  -19.8112  -50.6469 C.2       16 UNK         0.5000 
     93 O          -8.1621  -19.1305  -51.2367 O.2       16 UNK        -0.5000 
     94 N          -6.2127  -20.3019  -51.2198 N.am      17 UNK        -0.5000 
     95 CA         -5.8001  -20.1770  -52.6208 C.3       17 UNK         0.1400 
     96 CB         -5.5356  -18.7077  -53.0122 C.3       17 UNK        -0.1800 
     97 C          -6.7312  -20.9114  -53.6069 C.2       17 UNK         0.5000 
     98 O          -6.8739  -20.4835  -54.7529 O.2       17 UNK        -0.5000 
     99 N          -7.3054  -22.0410  -53.1699 N.am      18 UNK        -0.5000 
    100 CA        -7.9207  -23.0304  -54.0575 C.3       18 UNK         0.1400 
    101 CB        -8.7881  -23.9960  -53.2390 C.3       18 UNK        -0.1800 
    102 C         -6.8370  -23.7928  -54.8443 C.2       18 UNK         0.5000 
    103 O         -6.9999  -24.0333  -56.0406 O.2       18 UNK        -0.5000 
    104 N         -5.7219  -24.0902  -54.1648 N.am      19 UNK        -0.5000 
    105 CA        -4.4645  -24.5489  -54.7405 C.3       19 UNK         0.1400 
    106 CB        -3.9624  -25.7677  -53.9472 C.3       19 UNK        -0.1800 
    107 C         -3.4864  -23.3628  -54.7018 C.2       19 UNK         0.5000 
    108 O         -2.5415  -23.3524  -53.9109 O.2       19 UNK        -0.5000 
    109 N         -3.7626  -22.3567  -55.5445 N.am      20 UNK        -0.5000 
    110 CA        -3.0778  -21.0580  -55.6204 C.3       20 UNK         0.1400 
    111 CB        -3.7911  -20.1885  -56.6679 C.3       20 UNK        -0.1800 
    112 C         -1.5639  -21.1121  -55.9176 C.2       20 UNK         0.5000 
    113 O         -0.8775  -20.1072  -55.7320 O.2       20 UNK        -0.5000 
    114 N         -1.0661  -22.2748  -56.3582 N.am      21 UNK        -0.5000 
    115 CA         0.3555  -22.5765  -56.5240 C.3       21 UNK         0.1400 
    116 CB         0.4881  -23.8780  -57.3306 C.3       21 UNK        -0.1800 
    117 C          1.1265  -22.6872  -55.1897 C.2       21 UNK         0.5000 
    118 O          2.3571  -22.6434  -55.2148 O.2       21 UNK        -0.5000 
    119 N          0.4080  -22.8383  -54.0649 N.am      22 UNK        -0.5000 
    120 CA         0.9428  -22.9552  -52.6943 C.3       22 UNK         0.1400 
    121 C          1.6762  -24.3017  -52.4029 C.2       22 UNK         0.5000 
    122 N          1.5070  -25.3372  -53.2165 N.am      22 UNK        -0.7600 
    123 O          2.3862  -24.4273  -51.4089 O.2       22 UNK        -0.5000 
    124 C124        1.7684  -21.7127  -52.2418 C.3       23 UNK        -0.0398 
    125 S125        0.8016  -20.1609  -52.2575 S.3       23 UNK        -0.2404 
    126 C126        0.8489  -19.7303  -50.4910 C.3       23 UNK        -0.0205 
    127 H127       -5.0725  -16.3115  -43.0324 H         1 UNK         0.0600 
    128 H128       -5.2359  -17.4133  -44.4037 H         1 UNK         0.0600 
    129 H129       -3.6737  -17.2258  -43.5988 H         1 UNK         0.0600 
    130 H130       -2.2648  -15.9795  -44.7862 H         1 UNK         0.3000 
    131 H131       -3.1404  -14.1702  -46.8692 H         1 UNK         0.0600 
    132 H132       -0.2509  -14.3616  -45.8687 H         1 UNK         0.0800 
    133 H133       -0.9449  -15.6675  -46.7774 H         1 UNK         0.0800 
    134 H134        1.2312  -15.0796  -48.5302 H         1 UNK         0.0800 
    135 H135        0.6189  -14.4191  -50.0220 H         1 UNK         0.0800 
    136 H136        1.5642  -17.1654  -49.8333 H         1 UNK         0.1150 
    137 H137       -1.8379  -19.6851  -50.3881 H         1 UNK         0.1150 
    138 H138       -2.3939  -15.6371  -49.1334 H         1 UNK         0.1150 
    139 H139       -4.0272  -18.8957  -50.0629 H         1 UNK         0.0800 
    140 H140       -4.3020  -17.1801  -50.2047 H         1 UNK         0.0800 
    141 H141       -2.2360  -17.9150  -46.9513 H         1 UNK         0.0800 
    142 H142       -3.3943  -18.5301  -45.8199 H         1 UNK         0.0800 
    143 H143       -2.6467  -20.1506  -48.2826 H         1 UNK         0.0600 
    144 H144       -0.8762  -19.6311  -46.1029 H         1 UNK         0.3000 
    145 H145        0.9125  -22.5696  -46.1415 H         1 UNK         0.0600 
    146 H146        2.9509  -21.4360  -46.9435 H         1 UNK         0.0600 
    147 H147        1.9016  -21.8012  -48.2991 H         1 UNK         0.0600 
    148 H148        1.9893  -20.1531  -47.6788 H         1 UNK         0.0600 
    149 H149        1.8103  -20.1116  -45.1621 H         1 UNK         0.3000 
    150 H150       -0.0128  -19.1214  -42.9128 H         1 UNK         0.0600 
    151 H151       -0.7588  -20.9482  -41.4448 H         1 UNK         0.0600 
    152 H152        0.5437  -20.0687  -40.6640 H         1 UNK         0.0600 
    153 H153        0.8566  -21.6388  -41.4034 H         1 UNK         0.0600 
    154 H154        2.0845  -18.4778  -42.8425 H         1 UNK         0.3000 
    155 H155        4.6432  -19.0131  -41.9093 H         1 UNK         0.0600 
    156 H156        5.8500  -21.0300  -42.6642 H         1 UNK         0.0600 
    157 H157        6.5648  -19.6069  -43.4034 H         1 UNK         0.0600 
    158 H158        5.5090  -20.6561  -44.3485 H         1 UNK         0.0600 
    159 H159        4.4662  -17.3004  -43.2883 H         1 UNK         0.3000 
    160 H160        4.4327  -16.7430  -46.6288 H         1 UNK         0.0600 
    161 H161        1.7199  -16.5586  -45.2169 H         1 UNK         0.0600 
    162 H162        2.2571  -15.4318  -46.4588 H         1 UNK         0.0600 
    163 H163        2.0250  -17.1318  -46.8496 H         1 UNK         0.0600 
    164 H164        3.6279  -15.0406  -44.4474 H         1 UNK         0.3000 
    165 H165        6.8631  -14.4934  -43.0964 H         1 UNK         0.0600 
    166 H166        6.1295  -12.1243  -43.4623 H         1 UNK         0.0600 
    167 H167        6.7439  -12.8530  -44.9384 H         1 UNK         0.0600 
    168 H168        5.0117  -12.6633  -44.7163 H         1 UNK         0.0600 
    169 H169        4.1424  -13.6098  -42.5628 H         1 UNK         0.3000 
    170 H170        3.4566  -16.1038  -40.0988 H         1 UNK         0.0600 
    171 H171        4.8175  -14.3850  -38.9008 H         1 UNK         0.0600 
    172 H172        4.0355  -13.1047  -39.8202 H         1 UNK         0.0600 
    173 H173        3.0979  -14.0913  -38.6984 H         1 UNK         0.0600 
    174 H174        2.0035  -13.8158  -41.0410 H         1 UNK         0.3000 
    175 H175        0.3335  -15.4148  -43.7257 H         1 UNK         0.0600 
    176 H176       -0.7738  -14.6686  -40.9731 H         1 UNK         0.0600 
    177 H177       -1.7075  -14.9021  -42.4488 H         1 UNK         0.0600 
    178 H178       -0.8896  -16.2634  -41.7069 H         1 UNK         0.0600 
    179 H179       -0.2302  -12.9087  -42.7246 H         1 UNK         0.3000 
    180 H180        1.2540  -10.8877  -43.0064 H         1 UNK         0.0600 
    181 H181        3.4686  -10.8390  -44.1235 H         1 UNK         0.0600 
    182 H182        2.7313  -11.1939  -45.6837 H         1 UNK         0.0600 
    183 H183        2.4001   -9.6645  -44.8729 H         1 UNK         0.0600 
    184 H184        0.0459  -11.7962  -45.5699 H         1 UNK         0.3000 
    185 H185       -2.9928  -10.2847  -44.7390 H         1 UNK         0.0600 
    186 H186       -2.0031   -8.4424  -46.1133 H         1 UNK         0.0600 
    187 H187       -1.2673   -9.6247  -47.1890 H         1 UNK         0.0600 
    188 H188       -3.0233   -9.4861  -47.0901 H         1 UNK         0.0600 
    189 H189       -2.1967  -11.9005  -46.9512 H         1 UNK         0.3000 
    190 H190       -2.4672  -21.5048  -45.0559 H         1 UNK         0.3000 
    191 H191       -5.1314  -22.6744  -45.0891 H         1 UNK         0.0600 
    192 H192       -4.2979  -23.9427  -43.1370 H         1 UNK         0.0600 
    193 H193       -3.9046  -22.2393  -42.9583 H         1 UNK         0.0600 
    194 H194       -2.6550  -23.3897  -43.4296 H         1 UNK         0.0600 
    195 H195       -1.8285  -23.6996  -46.0059 H         1 UNK         0.3000 
    196 H196       -2.5132  -26.4016  -46.7278 H         1 UNK         0.0600 
    197 H197       -0.2333  -26.4310  -47.7054 H         1 UNK         0.0600 
    198 H198       -0.2002  -25.7245  -46.0975 H         1 UNK         0.0600 
    199 H199       -0.0945  -24.6896  -47.5211 H         1 UNK         0.0600 
    200 H200       -2.2230  -23.3392  -48.5252 H         1 UNK         0.3000 
    201 H201       -2.9159  -24.3622  -51.1134 H         1 UNK         0.0600 
    202 H202       -1.6972  -22.1866  -50.6288 H         1 UNK         0.0600 
    203 H203       -3.2097  -21.5282  -50.0032 H         1 UNK         0.0600 
    204 H204       -3.0759  -21.9820  -51.6942 H         1 UNK         0.0600 
    205 H205       -4.8185  -24.0218  -48.3382 H         1 UNK         0.3000 
    206 H206       -6.9529  -24.0032  -47.7804 H         1 UNK         0.0600 
    207 H207       -6.9891  -26.1256  -49.0211 H         1 UNK         0.0600 
    208 H208       -8.5290  -25.3066  -49.2271 H         1 UNK         0.0600 
    209 H209       -7.3460  -25.2951  -50.5296 H         1 UNK         0.0600 
    210 H210       -6.2355  -21.5761  -48.2405 H         1 UNK         0.3000 
    211 H211       -6.8390  -19.4923  -48.6059 H         1 UNK         0.0600 
    212 H212       -9.6779  -20.4823  -49.1846 H         1 UNK         0.0600 
    213 H213       -9.2034  -18.8500  -48.7397 H         1 UNK         0.0600 
    214 H214       -9.0233  -20.1557  -47.5799 H         1 UNK         0.0600 
    215 H215       -5.6281  -20.8914  -50.6458 H         1 UNK         0.3000 
    216 H216       -4.8458  -20.6991  -52.6921 H         1 UNK         0.0600 
    217 H217       -4.8227  -18.2389  -52.3365 H         1 UNK         0.0600 
    218 H218       -5.1121  -18.6403  -54.0151 H         1 UNK         0.0600 
    219 H219       -6.4490  -18.1130  -53.0057 H         1 UNK         0.0600 
    220 H220       -7.1319  -22.3362  -52.2169 H         1 UNK         0.3000 
    221 H221       -8.5652  -22.5138  -54.7719 H         1 UNK         0.0600 
    222 H222       -8.1930  -24.5572  -52.5199 H         1 UNK         0.0600 
    223 H223       -9.5616  -23.4608  -52.6879 H         1 UNK         0.0600 
    224 H224       -9.2872  -24.7171  -53.8873 H         1 UNK         0.0600 
    225 H225       -5.6783  -23.8379  -53.1790 H         1 UNK         0.3000 
    226 H226       -4.5927  -24.8490  -55.7825 H         1 UNK         0.0600 
    227 H227       -4.6536  -26.6052  -54.0413 H         1 UNK         0.0600 
    228 H228       -2.9920  -26.1025  -54.3154 H         1 UNK         0.0600 
    229 H229       -3.8554  -25.5465  -52.8859 H         1 UNK         0.0600 
    230 H230       -4.5652  -22.4602  -56.1497 H         1 UNK         0.3000 
    231 H231       -3.1878  -20.5779  -54.6462 H         1 UNK         0.0600 
    232 H232       -3.7324  -20.6315  -57.6628 H         1 UNK         0.0600 
    233 H233       -4.8439  -20.0526  -56.4233 H         1 UNK         0.0600 
    234 H234       -3.3450  -19.1947  -56.7241 H         1 UNK         0.0600 
    235 H235       -1.7083  -23.0418  -56.4880 H         1 UNK         0.3000 
    236 H236        0.8119  -21.7679  -57.0987 H         1 UNK         0.0600 
    237 H237        0.0335  -24.7220  -56.8105 H         1 UNK         0.0600 
    238 H238        0.0111  -23.7877  -58.3068 H         1 UNK         0.0600 
    239 H239        1.5360  -24.1257  -57.5053 H         1 UNK         0.0600 
    240 H240       -0.6030  -22.8976  -54.1374 H         1 UNK         0.3000 
    241 H241        0.0616  -22.9975  -52.0542 H         1 UNK         0.0600 
    242 H242        1.9760  -26.2068  -53.0170 H         1 UNK         0.3800 
    243 H243        0.9165  -25.2588  -54.0283 H         1 UNK         0.3800 
    244 H244        2.6477  -21.5786  -52.8719 H         1 UNK         0.0800 
    245 H245        2.1580  -21.8644  -51.2341 H         1 UNK         0.0800 
    246 H246        0.5187  -20.5929  -49.9115 H         1 UNK         0.0800 
    247 H247        1.8797  -19.5288  -50.1957 H         1 UNK         0.0800 
@<TRIPOS>BOND
     1    1    2 1    
     2    1  127 1    
     3    1  128 1    
     4    1  129 1    
     5    2    3 2    
     6    2    4 am   BACKBONE|DICT|INTERRES
     7    4    5 1    
     8    4  130 1    
     9    5    6 1    
    10    5   65 1    
    11    5  131 1    
    12    6    7 1    
    13    6  132 1    
    14    6  133 1    
    15    7    8 1    
    16    8    9 1    
    17    8  134 1    
    18    8  135 1    
    19    9   10 ar   
    20    9   14 ar   
    21   10   11 ar   
    22   10  136 1    
    23   11   12 ar   
    24   11  126 1    
    25   12   13 ar   
    26   12  137 1    
    27   13   14 ar   
    28   13   15 1    
    29   14  138 1    
    30   15   16 1    
    31   15  139 1    
    32   15  140 1    
    33   16   17 1    
    34   17   18 1    
    35   17  141 1    
    36   17  142 1    
    37   18   19 1    
    38   18   67 1    
    39   18  143 1    
    40   19   20 am   BACKBONE|DICT|INTERRES
    41   19  144 1    
    42   20   21 2    
    43   20   22 1    
    44   22   23 1    
    45   22   24 1    
    46   22  145 1    
    47   23  146 1    
    48   23  147 1    
    49   23  148 1    
    50   24   25 am   BACKBONE|DICT|INTERRES
    51   24  149 1    
    52   25   26 2    
    53   25   27 1    
    54   27   28 1    
    55   27   29 1    
    56   27  150 1    
    57   28  151 1    
    58   28  152 1    
    59   28  153 1    
    60   29   30 am   BACKBONE|DICT|INTERRES
    61   29  154 1    
    62   30   31 2    
    63   30   32 1    
    64   32   33 1    
    65   32   34 1    
    66   32  155 1    
    67   33  156 1    
    68   33  157 1    
    69   33  158 1    
    70   34   35 am   BACKBONE|DICT|INTERRES
    71   34  159 1    
    72   35   36 2    
    73   35   37 1    
    74   37   38 1    
    75   37   39 1    
    76   37  160 1    
    77   38  161 1    
    78   38  162 1    
    79   38  163 1    
    80   39   40 am   BACKBONE|DICT|INTERRES
    81   39  164 1    
    82   40   41 2    
    83   40   42 1    
    84   42   43 1    
    85   42   44 1    
    86   42  165 1    
    87   43  166 1    
    88   43  167 1    
    89   43  168 1    
    90   44   45 am   BACKBONE|DICT|INTERRES
    91   44  169 1    
    92   45   46 2    
    93   45   47 1    
    94   47   48 1    
    95   47   49 1    
    96   47  170 1    
    97   48  171 1    
    98   48  172 1    
    99   48  173 1    
   100   49   50 am   BACKBONE|DICT|INTERRES
   101   49  174 1    
   102   50   51 2    
   103   50   52 1    
   104   52   53 1    
   105   52   54 1    
   106   52  175 1    
   107   53  176 1    
   108   53  177 1    
   109   53  178 1    
   110   54   55 am   BACKBONE|DICT|INTERRES
   111   54  179 1    
   112   55   56 2    
   113   55   57 1    
   114   57   58 1    
   115   57   59 1    
   116   57  180 1    
   117   58  181 1    
   118   58  182 1    
   119   58  183 1    
   120   59   60 am   BACKBONE|DICT|INTERRES
   121   59  184 1    
   122   60   61 2    
   123   60   62 1    
   124   62   63 1    
   125   62   64 1    
   126   62  185 1    
   127   63  186 1    
   128   63  187 1    
   129   63  188 1    
   130   64   65 am   BACKBONE|DICT|INTERRES
   131   64  189 1    
   132   65   66 2    
   133   67   68 2    
   134   67   69 am   BACKBONE|DICT|INTERRES
   135   69   70 1    
   136   69  190 1    
   137   70   71 1    
   138   70   72 1    
   139   70  191 1    
   140   71  192 1    
   141   71  193 1    
   142   71  194 1    
   143   72   73 2    
   144   72   74 am   BACKBONE|DICT|INTERRES
   145   74   75 1    
   146   74  195 1    
   147   75   76 1    
   148   75   77 1    
   149   75  196 1    
   150   76  197 1    
   151   76  198 1    
   152   76  199 1    
   153   77   78 2    
   154   77   79 am   BACKBONE|DICT|INTERRES
   155   79   80 1    
   156   79  200 1    
   157   80   81 1    
   158   80   82 1    
   159   80  201 1    
   160   81  202 1    
   161   81  203 1    
   162   81  204 1    
   163   82   83 2    
   164   82   84 am   BACKBONE|DICT|INTERRES
   165   84   85 1    
   166   84  205 1    
   167   85   86 1    
   168   85   87 1    
   169   85  206 1    
   170   86  207 1    
   171   86  208 1    
   172   86  209 1    
   173   87   88 2    
   174   87   89 am   BACKBONE|DICT|INTERRES
   175   89   90 1    
   176   89  210 1    
   177   90   91 1    
   178   90   92 1    
   179   90  211 1    
   180   91  212 1    
   181   91  213 1    
   182   91  214 1    
   183   92   93 2    
   184   92   94 am   BACKBONE|DICT|INTERRES
   185   94   95 1    
   186   94  215 1    
   187   95   96 1    
   188   95   97 1    
   189   95  216 1    
   190   96  217 1    
   191   96  218 1    
   192   96  219 1    
   193   97   98 2    
   194   97   99 am   BACKBONE|DICT|INTERRES
   195   99  100 1    
   196   99  220 1    
   197  100  101 1    
   198  100  102 1    
   199  100  221 1    
   200  101  222 1    
   201  101  223 1    
   202  101  224 1    
   203  102  103 2    
   204  102  104 am   BACKBONE|DICT|INTERRES
   205  104  105 1    
   206  104  225 1    
   207  105  106 1    
   208  105  107 1    
   209  105  226 1    
   210  106  227 1    
   211  106  228 1    
   212  106  229 1    
   213  107  108 2    
   214  107  109 am   BACKBONE|DICT|INTERRES
   215  109  110 1    
   216  109  230 1    
   217  110  111 1    
   218  110  112 1    
   219  110  231 1    
   220  111  232 1    
   221  111  233 1    
   222  111  234 1    
   223  112  113 2    
   224  112  114 am   BACKBONE|DICT|INTERRES
   225  114  115 1    
   226  114  235 1    
   227  115  116 1    
   228  115  117 1    
   229  115  236 1    
   230  116  237 1    
   231  116  238 1    
   232  116  239 1    
   233  117  118 2    
   234  117  119 am   BACKBONE|DICT|INTERRES
   235  119  120 1    
   236  119  240 1    
   237  120  121 1    
   238  120  124 1    
   239  120  241 1    
   240  121  122 am   BACKBONE|DICT|INTERRES
   241  121  123 2    
   242  122  242 1    
   243  122  243 1    
   244  124  125 1    
   245  124  244 1    
   246  124  245 1    
   247  125  126 1    
   248  126  246 1    
   249  126  247 1    
@<TRIPOS>SUBSTRUCTURE
     1 UNK         1 GROUP             0       ****    0 ROOT    
