@<TRIPOS>MOLECULE
3R540
247   249    1
SMALL
USER_CHARGES


@<TRIPOS>ATOM
      1 CA         -5.4645  -12.4048  -49.3150 C.3       0 UNK        -0.1800 
      2 C          -4.3777  -13.3396  -48.8063 C.2       0 UNK         0.5000 
      3 O          -3.6602  -13.9372  -49.6076 O.2       0 UNK        -0.5000 
      4 N          -4.2596  -13.4826  -47.4802 N.am      1 UNK        -0.5000 
      5 CA         -3.2218  -14.2740  -46.8023 C.3       1 UNK         0.1400 
      6 C6         -3.5609  -14.4301  -45.2976 C.3       23 UNK        -0.0398 
      7 S7         -2.5817  -15.7012  -44.4233 S.3       23 UNK        -0.2404 
      8 C8         -3.8731  -16.6117  -43.4997 C.3       23 UNK        -0.0205 
      9 C9         -4.5223  -17.7882  -44.2331 C.ar      23 UNK        -0.0193 
     10 C10        -4.4959  -17.9227  -45.6271 C.ar      23 UNK        -0.1150 
     11 C11        -5.0904  -19.0213  -46.2529 C.ar      23 UNK        -0.0193 
     12 C12        -5.7385  -19.9855  -45.4775 C.ar      23 UNK        -0.1150 
     13 C13        -5.7896  -19.8630  -44.0864 C.ar      23 UNK        -0.0193 
     14 C14        -5.1758  -18.7659  -43.4742 C.ar      23 UNK        -0.1150 
     15 C15        -6.5505  -20.8844  -43.2492 C.3       23 UNK        -0.0205 
     16 S16        -5.9696  -22.5949  -43.4932 S.3       23 UNK        -0.2404 
     17 C17        -4.3300  -22.5681  -42.6911 C.3       23 UNK        -0.0398 
     18 CA         -3.1516  -22.6446  -43.6975 C.3       11 UNK         0.1400 
     19 N          -1.8746  -22.2319  -43.1014 N.am      11 UNK        -0.5000 
     20 C          -1.2244  -22.7641  -42.0541 C.2       10 UNK         0.5000 
     21 O          -1.6258  -23.7482  -41.4320 O.2       10 UNK        -0.5000 
     22 CA          0.1023  -22.1039  -41.6292 C.3       10 UNK         0.1400 
     23 CB          1.2973  -22.9352  -42.1175 C.3       10 UNK        -0.1800 
     24 N           0.2356  -20.7352  -42.1276 N.am      10 UNK        -0.5000 
     25 C          -0.3785  -19.6752  -41.5827 C.2       9 UNK         0.5000 
     26 O          -1.0348  -19.7307  -40.5420 O.2       9 UNK        -0.5000 
     27 CA         -0.2657  -18.3309  -42.3291 C.3       9 UNK         0.1400 
     28 CB          0.7810  -17.4311  -41.6571 C.3       9 UNK        -0.1800 
     29 N           0.0307  -18.4564  -43.7614 N.am      9 UNK        -0.5000 
     30 C          -0.7905  -19.0424  -44.6474 C.2       8 UNK         0.5000 
     31 O          -1.8435  -19.5910  -44.3322 O.2       8 UNK        -0.5000 
     32 CA         -0.3481  -19.0932  -46.1182 C.3       8 UNK         0.1400 
     33 CB         -0.7748  -17.8218  -46.8649 C.3       8 UNK        -0.1800 
     34 N           1.0860  -19.3047  -46.2977 N.am      8 UNK        -0.5000 
     35 C           1.7596  -20.3921  -45.8984 C.2       7 UNK         0.5000 
     36 O           1.2578  -21.2994  -45.2350 O.2       7 UNK        -0.5000 
     37 CA          3.2392  -20.4760  -46.3016 C.3       7 UNK         0.1400 
     38 CB          3.3744  -20.9110  -47.7695 C.3       7 UNK        -0.1800 
     39 N           3.9000  -19.1851  -46.1195 N.am      7 UNK        -0.5000 
     40 C           4.7433  -18.8951  -45.1206 C.2       6 UNK         0.5000 
     41 O           5.1291  -19.7164  -44.2876 O.2       6 UNK        -0.5000 
     42 CA          5.2387  -17.4370  -45.0198 C.3       6 UNK         0.1400 
     43 CB          6.5886  -17.2792  -45.7360 C.3       6 UNK        -0.1800 
     44 N           4.3017  -16.4419  -45.5485 N.am      6 UNK        -0.5000 
     45 C           3.0618  -16.2294  -45.0865 C.2       5 UNK         0.5000 
     46 O           2.5557  -16.8656  -44.1641 O.2       5 UNK        -0.5000 
     47 CA          2.2241  -15.1572  -45.8058 C.3       5 UNK         0.1400 
     48 CB          2.5133  -13.7739  -45.2053 C.3       5 UNK        -0.1800 
     49 N           2.3873  -15.0922  -47.2642 N.am      5 UNK        -0.5000 
     50 C           2.3493  -16.1211  -48.1242 C.2       4 UNK         0.5000 
     51 O           2.3278  -17.3051  -47.7836 O.2       4 UNK        -0.5000 
     52 CA          2.3001  -15.7530  -49.6128 C.3       4 UNK         0.1400 
     53 CB          2.0397  -16.9692  -50.5216 C.3       4 UNK        -0.1800 
     54 N           1.2787  -14.7302  -49.8323 N.am      4 UNK        -0.5000 
     55 C           1.2614  -13.8802  -50.8671 C.2       3 UNK         0.5000 
     56 O           2.1214  -13.8600  -51.7487 O.2       3 UNK        -0.5000 
     57 CA          0.0936  -12.8759  -50.9372 C.3       3 UNK         0.1400 
     58 CB         -1.0408  -13.4466  -51.8006 C.3       3 UNK        -0.1800 
     59 N          -0.4521  -12.4997  -49.6317 N.am      3 UNK        -0.5000 
     60 C           0.2176  -11.8473  -48.6700 C.2       2 UNK         0.5000 
     61 O           1.3885  -11.4837  -48.7837 O.2       2 UNK        -0.5000 
     62 CA         -0.5336  -11.5463  -47.3558 C.3       2 UNK         0.1400 
     63 CB         -0.9021  -10.0564  -47.2817 C.3       2 UNK        -0.1800 
     64 N          -1.7480  -12.3370  -47.1410 N.am      2 UNK        -0.5000 
     65 C          -1.8132  -13.6717  -47.0208 C.2       1 UNK         0.5000 
     66 O          -0.8354  -14.4102  -47.1316 O.2       1 UNK        -0.5000 
     67 C          -3.0733  -24.0101  -44.4201 C.2       11 UNK         0.5000 
     68 O          -3.4261  -24.1039  -45.5954 O.2       11 UNK        -0.5000 
     69 N          -2.5974  -25.0405  -43.7132 N.am      12 UNK        -0.5000 
     70 CA         -2.5304  -26.4330  -44.1558 C.3       12 UNK         0.1400 
     71 CB         -2.5609  -27.3308  -42.9075 C.3       12 UNK        -0.1800 
     72 C          -1.3060  -26.7599  -45.0356 C.2       12 UNK         0.5000 
     73 O          -1.1628  -27.9133  -45.4440 O.2       12 UNK        -0.5000 
     74 N          -0.4361  -25.7715  -45.2965 N.am      13 UNK        -0.5000 
     75 CA          0.8014  -25.9155  -46.0712 C.3       13 UNK         0.1400 
     76 CB          1.5665  -24.5829  -46.0683 C.3       13 UNK        -0.1800 
     77 C           0.5783  -26.4023  -47.5156 C.2       13 UNK         0.5000 
     78 O           1.3106  -27.2767  -47.9804 O.2       13 UNK        -0.5000 
     79 N          -0.4399  -25.8444  -48.1792 N.am      14 UNK        -0.5000 
     80 CA         -0.8868  -26.1825  -49.5261 C.3       14 UNK         0.1400 
     81 CB          0.1830  -25.8173  -50.5738 C.3       14 UNK        -0.1800 
     82 C          -2.1856  -25.4187  -49.8098 C.2       14 UNK         0.5000 
     83 O          -2.4307  -24.3786  -49.1904 O.2       14 UNK        -0.5000 
     84 N          -2.9754  -25.9235  -50.7666 N.am      15 UNK        -0.5000 
     85 CA         -4.1896  -25.2820  -51.2740 C.3       15 UNK         0.1400 
     86 CB         -4.8670  -26.2088  -52.2950 C.3       15 UNK        -0.1800 
     87 C          -3.8618  -23.9157  -51.9016 C.2       15 UNK         0.5000 
     88 O          -3.0401  -23.8523  -52.8199 O.2       15 UNK        -0.5000 
     89 N          -4.4502  -22.8484  -51.3417 N.am      16 UNK        -0.5000 
     90 CA         -4.1965  -21.4374  -51.6676 C.3       16 UNK         0.1400 
     91 CB         -4.7532  -21.1092  -53.0672 C.3       16 UNK        -0.1800 
     92 C          -2.7093  -21.0413  -51.5131 C.2       16 UNK         0.5000 
     93 O          -2.2045  -20.2124  -52.2754 O.2       16 UNK        -0.5000 
     94 N          -2.0121  -21.7041  -50.5742 N.am      17 UNK        -0.5000 
     95 CA         -0.5715  -21.6217  -50.2992 C.3       17 UNK         0.1400 
     96 CB         -0.2172  -20.2199  -49.7671 C.3       17 UNK        -0.1800 
     97 C           0.3256  -22.0254  -51.4928 C.2       17 UNK         0.5000 
     98 O           1.5182  -21.7209  -51.4770 O.2       17 UNK        -0.5000 
     99 N          -0.2640  -22.6713  -52.5149 N.am      18 UNK        -0.5000 
    100 CA         0.2997  -22.9513  -53.8413 C.3       18 UNK         0.1400 
    101 CB         1.4453  -23.9812  -53.7498 C.3       18 UNK        -0.1800 
    102 C          0.7075  -21.6749  -54.6161 C.2       18 UNK         0.5000 
    103 O          1.5648  -21.7454  -55.4987 O.2       18 UNK        -0.5000 
    104 N          0.1010  -20.5307  -54.2686 N.am      19 UNK        -0.5000 
    105 CA         0.4997  -19.2002  -54.7323 C.3       19 UNK         0.1400 
    106 CB         1.4188  -18.5765  -53.6685 C.3       19 UNK        -0.1800 
    107 C         -0.7045  -18.2904  -55.0357 C.2       19 UNK         0.5000 
    108 O         -0.5111  -17.0933  -55.2515 O.2       19 UNK        -0.5000 
    109 N         -1.9190  -18.8608  -55.0389 N.am      20 UNK        -0.5000 
    110 CA        -3.2109  -18.1824  -55.1991 C.3       20 UNK         0.1400 
    111 CB        -3.3408  -17.5489  -56.6009 C.3       20 UNK        -0.1800 
    112 C         -3.5211  -17.1929  -54.0522 C.2       20 UNK         0.5000 
    113 O         -4.1731  -16.1712  -54.2774 O.2       20 UNK        -0.5000 
    114 N         -3.0589  -17.5194  -52.8372 N.am      21 UNK        -0.5000 
    115 CA        -3.3704  -16.7929  -51.6080 C.3       21 UNK         0.1400 
    116 CB        -2.3410  -17.1635  -50.5276 C.3       21 UNK        -0.1800 
    117 C         -4.7985  -17.1080  -51.1294 C.2       21 UNK         0.5000 
    118 O         -5.3459  -18.1551  -51.4781 O.2       21 UNK        -0.5000 
    119 N         -5.3605  -16.1855  -50.3425 N.am      22 UNK        -0.5000 
    120 CA        -6.6889  -16.1773  -49.6912 C.3       22 UNK         0.1400 
    121 C         -7.9593  -16.4083  -50.5690 C.2       22 UNK         0.5000 
    122 N         -7.8560  -16.9047  -51.7922 N.am      22 UNK        -0.7600 
    123 O         -9.0637  -16.0863  -50.1388 O.2       22 UNK        -0.5000 
    124 C124       -6.7265  -16.9776  -48.3602 C.3       23 UNK        -0.0398 
    125 S125       -6.6436  -18.7962  -48.5330 S.3       23 UNK        -0.2404 
    126 C126       -5.0367  -19.1707  -47.7662 C.3       23 UNK        -0.0205 
    127 H127       -5.0146  -11.5022  -49.7282 H         1 UNK         0.0600 
    128 H128       -6.0414  -12.8875  -50.1035 H         1 UNK         0.0600 
    129 H129       -6.1518  -12.1130  -48.5207 H         1 UNK         0.0600 
    130 H130       -4.8933  -12.9781  -46.8760 H         1 UNK         0.3000 
    131 H131       -3.2199  -15.2644  -47.2616 H         1 UNK         0.0600 
    132 H132       -3.4421  -13.4810  -44.7721 H         1 UNK         0.0800 
    133 H133       -4.6153  -14.6920  -45.1989 H         1 UNK         0.0800 
    134 H134       -4.6508  -15.9202  -43.1736 H         1 UNK         0.0800 
    135 H135       -3.4094  -16.9887  -42.5877 H         1 UNK         0.0800 
    136 H136       -4.0096  -17.1787  -46.2356 H         1 UNK         0.1150 
    137 H137       -6.2138  -20.8283  -45.9597 H         1 UNK         0.1150 
    138 H138       -5.2137  -18.6657  -42.3985 H         1 UNK         0.1150 
    139 H139       -6.5015  -20.6378  -42.1874 H         1 UNK         0.0800 
    140 H140       -7.6051  -20.8350  -43.5232 H         1 UNK         0.0800 
    141 H141       -4.2843  -23.3876  -41.9723 H         1 UNK         0.0800 
    142 H142       -4.2466  -21.6540  -42.1015 H         1 UNK         0.0800 
    143 H143       -3.3428  -21.8998  -44.4723 H         1 UNK         0.0600 
    144 H144       -1.4862  -21.3930  -43.5195 H         1 UNK         0.3000 
    145 H145        0.1272  -22.0874  -40.5376 H         1 UNK         0.0600 
    146 H146        2.2416  -22.5037  -41.7852 H         1 UNK         0.0600 
    147 H147        1.2506  -23.9540  -41.7306 H         1 UNK         0.0600 
    148 H148        1.3219  -22.9987  -43.2043 H         1 UNK         0.0600 
    149 H149        0.7346  -20.6148  -42.9997 H         1 UNK         0.3000 
    150 H150       -1.2343  -17.8371  -42.2405 H         1 UNK         0.0600 
    151 H151        0.5627  -17.2994  -40.5966 H         1 UNK         0.0600 
    152 H152        0.7951  -16.4391  -42.1088 H         1 UNK         0.0600 
    153 H153        1.7831  -17.8541  -41.7362 H         1 UNK         0.0600 
    154 H154        0.8992  -18.0395  -44.0814 H         1 UNK         0.3000 
    155 H155       -0.8579  -19.9415  -46.5790 H         1 UNK         0.0600 
    156 H156       -0.3555  -16.9310  -46.4004 H         1 UNK         0.0600 
    157 H157       -1.8579  -17.7130  -46.8623 H         1 UNK         0.0600 
    158 H158       -0.4542  -17.8347  -47.9061 H         1 UNK         0.0600 
    159 H159        1.5738  -18.5946  -46.8402 H         1 UNK         0.3000 
    160 H160        3.7063  -21.2432  -45.6806 H         1 UNK         0.0600 
    161 H161        4.4178  -21.0912  -48.0282 H         1 UNK         0.0600 
    162 H162        2.9907  -20.1528  -48.4531 H         1 UNK         0.0600 
    163 H163        2.8275  -21.8358  -47.9591 H         1 UNK         0.0600 
    164 H164        3.5999  -18.4348  -46.7331 H         1 UNK         0.3000 
    165 H165        5.3861  -17.2178  -43.9603 H         1 UNK         0.0600 
    166 H166        6.9978  -16.2790  -45.5927 H         1 UNK         0.0600 
    167 H167        7.3223  -17.9873  -45.3483 H         1 UNK         0.0600 
    168 H168        6.4970  -17.4557  -46.8085 H         1 UNK         0.0600 
    169 H169        4.6215  -15.8863  -46.3279 H         1 UNK         0.3000 
    170 H170        1.1766  -15.3902  -45.6114 H         1 UNK         0.0600 
    171 H171        2.3722  -13.7791  -44.1235 H         1 UNK         0.0600 
    172 H172        3.5375  -13.4555  -45.4028 H         1 UNK         0.0600 
    173 H173        1.8435  -13.0191  -45.6132 H         1 UNK         0.0600 
    174 H174        2.4155  -14.1623  -47.6567 H         1 UNK         0.3000 
    175 H175        3.2800  -15.3401  -49.8607 H         1 UNK         0.0600 
    176 H176        1.0642  -17.4126  -50.3227 H         1 UNK         0.0600 
    177 H177        2.0745  -16.6854  -51.5725 H         1 UNK         0.0600 
    178 H178        2.7919  -17.7450  -50.3730 H         1 UNK         0.0600 
    179 H179        0.5495  -14.6697  -49.1309 H         1 UNK         0.3000 
    180 H180        0.4672  -11.9685  -51.4160 H         1 UNK         0.0600 
    181 H181       -1.4554  -14.3510  -51.3565 H         1 UNK         0.0600 
    182 H182       -0.6850  -13.7046  -52.7990 H         1 UNK         0.0600 
    183 H183       -1.8523  -12.7282  -51.9182 H         1 UNK         0.0600 
    184 H184       -1.4061  -12.7782  -49.4475 H         1 UNK         0.3000 
    185 H185        0.1498  -11.7665  -46.5352 H         1 UNK         0.0600 
    186 H186       -0.0187   -9.4271  -47.3993 H         1 UNK         0.0600 
    187 H187       -1.6094   -9.7784  -48.0641 H         1 UNK         0.0600 
    188 H188       -1.3489   -9.8067  -46.3192 H         1 UNK         0.0600 
    189 H189       -2.6090  -11.8151  -47.0704 H         1 UNK         0.3000 
    190 H190       -2.2808  -24.8460  -42.7658 H         1 UNK         0.3000 
    191 H191       -3.4188  -26.6520  -44.7517 H         1 UNK         0.0600 
    192 H192       -1.6908  -27.1621  -42.2716 H         1 UNK         0.0600 
    193 H193       -2.5706  -28.3871  -43.1791 H         1 UNK         0.0600 
    194 H194       -3.4536  -27.1446  -42.3100 H         1 UNK         0.0600 
    195 H195       -0.6360  -24.8566  -44.9216 H         1 UNK         0.3000 
    196 H196        1.4188  -26.6616  -45.5667 H         1 UNK         0.0600 
    197 H197        2.4799  -24.6528  -46.6606 H         1 UNK         0.0600 
    198 H198        1.8611  -24.2996  -45.0590 H         1 UNK         0.0600 
    199 H199        0.9674  -23.7724  -46.4851 H         1 UNK         0.0600 
    200 H200       -1.0114  -25.1435  -47.7224 H         1 UNK         0.3000 
    201 H201       -1.0957  -27.2532  -49.5679 H         1 UNK         0.0600 
    202 H202        1.0649  -26.4513  -50.4883 H         1 UNK         0.0600 
    203 H203        0.5072  -24.7824  -50.4708 H         1 UNK         0.0600 
    204 H204       -0.2013  -25.9450  -51.5862 H         1 UNK         0.0600 
    205 H205       -2.6841  -26.7621  -51.2474 H         1 UNK         0.3000 
    206 H206       -4.8725  -25.1391  -50.4340 H         1 UNK         0.0600 
    207 H207       -5.1396  -27.1626  -51.8428 H         1 UNK         0.0600 
    208 H208       -5.7825  -25.7592  -52.6816 H         1 UNK         0.0600 
    209 H209       -4.2174  -26.4142  -53.1470 H         1 UNK         0.0600 
    210 H210       -5.0861  -23.0048  -50.5718 H         1 UNK         0.3000 
    211 H211       -4.7497  -20.8430  -50.9390 H         1 UNK         0.0600 
    212 H212       -4.1735  -21.5837  -53.8595 H         1 UNK         0.0600 
    213 H213       -4.7385  -20.0355  -53.2444 H         1 UNK         0.0600 
    214 H214       -5.7888  -21.4339  -53.1663 H         1 UNK         0.0600 
    215 H215       -2.4986  -22.4164  -50.0401 H         1 UNK         0.3000 
    216 H216       -0.3711  -22.3427  -49.5054 H         1 UNK         0.0600 
    217 H217       -0.2577  -19.4684  -50.5555 H         1 UNK         0.0600 
    218 H218        0.7881  -20.1978  -49.3479 H         1 UNK         0.0600 
    219 H219       -0.9062  -19.9177  -48.9807 H         1 UNK         0.0600 
    220 H220       -1.2492  -22.8981  -52.4252 H         1 UNK         0.3000 
    221 H221       -0.5062  -23.4066  -54.4185 H         1 UNK         0.0600 
    222 H222        2.3118  -23.5801  -53.2237 H         1 UNK         0.0600 
    223 H223        1.1259  -24.8837  -53.2317 H         1 UNK         0.0600 
    224 H224        1.7793  -24.2857  -54.7422 H         1 UNK         0.0600 
    225 H225       -0.5892  -20.5526  -53.5246 H         1 UNK         0.3000 
    226 H226        1.0568  -19.2788  -55.6677 H         1 UNK         0.0600 
    227 H227        2.2978  -19.1965  -53.4913 H         1 UNK         0.0600 
    228 H228        1.7732  -17.5910  -53.9729 H         1 UNK         0.0600 
    229 H229        0.8937  -18.4646  -52.7197 H         1 UNK         0.0600 
    230 H230       -1.9688  -19.8492  -54.8386 H         1 UNK         0.3000 
    231 H231       -3.9689  -18.9627  -55.1359 H         1 UNK         0.0600 
    232 H232       -3.1107  -18.2717  -57.3836 H         1 UNK         0.0600 
    233 H233       -2.6757  -16.6943  -56.7261 H         1 UNK         0.0600 
    234 H234       -4.3578  -17.1963  -56.7760 H         1 UNK         0.0600 
    235 H235       -2.6007  -18.4188  -52.7205 H         1 UNK         0.3000 
    236 H236       -3.2997  -15.7226  -51.8100 H         1 UNK         0.0600 
    237 H237       -2.4856  -16.5663  -49.6264 H         1 UNK         0.0600 
    238 H238       -2.4204  -18.2121  -50.2408 H         1 UNK         0.0600 
    239 H239       -1.3232  -16.9844  -50.8740 H         1 UNK         0.0600 
    240 H240       -4.7944  -15.3646  -50.1468 H         1 UNK         0.3000 
    241 H241       -6.7976  -15.1345  -49.3940 H         1 UNK         0.0600 
    242 H242       -6.9648  -17.2971  -52.0761 H         1 UNK         0.3800 
    243 H243       -8.6793  -17.0392  -52.3569 H         1 UNK         0.3800 
    244 H244       -5.9166  -16.6332  -47.7181 H         1 UNK         0.0800 
    245 H245       -7.6400  -16.7430  -47.8115 H         1 UNK         0.0800 
    246 H246       -4.7568  -20.1951  -48.0156 H         1 UNK         0.0800 
    247 H247       -4.2660  -18.5306  -48.1986 H         1 UNK         0.0800 
@<TRIPOS>BOND
     1    1    2 1    
     2    1  127 1    
     3    1  128 1    
     4    1  129 1    
     5    2    3 2    
     6    2    4 am   BACKBONE|DICT|INTERRES
     7    4    5 1    
     8    4  130 1    
     9    5    6 1    
    10    5   65 1    
    11    5  131 1    
    12    6    7 1    
    13    6  132 1    
    14    6  133 1    
    15    7    8 1    
    16    8    9 1    
    17    8  134 1    
    18    8  135 1    
    19    9   10 ar   
    20    9   14 ar   
    21   10   11 ar   
    22   10  136 1    
    23   11   12 ar   
    24   11  126 1    
    25   12   13 ar   
    26   12  137 1    
    27   13   14 ar   
    28   13   15 1    
    29   14  138 1    
    30   15   16 1    
    31   15  139 1    
    32   15  140 1    
    33   16   17 1    
    34   17   18 1    
    35   17  141 1    
    36   17  142 1    
    37   18   19 1    
    38   18   67 1    
    39   18  143 1    
    40   19   20 am   BACKBONE|DICT|INTERRES
    41   19  144 1    
    42   20   21 2    
    43   20   22 1    
    44   22   23 1    
    45   22   24 1    
    46   22  145 1    
    47   23  146 1    
    48   23  147 1    
    49   23  148 1    
    50   24   25 am   BACKBONE|DICT|INTERRES
    51   24  149 1    
    52   25   26 2    
    53   25   27 1    
    54   27   28 1    
    55   27   29 1    
    56   27  150 1    
    57   28  151 1    
    58   28  152 1    
    59   28  153 1    
    60   29   30 am   BACKBONE|DICT|INTERRES
    61   29  154 1    
    62   30   31 2    
    63   30   32 1    
    64   32   33 1    
    65   32   34 1    
    66   32  155 1    
    67   33  156 1    
    68   33  157 1    
    69   33  158 1    
    70   34   35 am   BACKBONE|DICT|INTERRES
    71   34  159 1    
    72   35   36 2    
    73   35   37 1    
    74   37   38 1    
    75   37   39 1    
    76   37  160 1    
    77   38  161 1    
    78   38  162 1    
    79   38  163 1    
    80   39   40 am   BACKBONE|DICT|INTERRES
    81   39  164 1    
    82   40   41 2    
    83   40   42 1    
    84   42   43 1    
    85   42   44 1    
    86   42  165 1    
    87   43  166 1    
    88   43  167 1    
    89   43  168 1    
    90   44   45 am   BACKBONE|DICT|INTERRES
    91   44  169 1    
    92   45   46 2    
    93   45   47 1    
    94   47   48 1    
    95   47   49 1    
    96   47  170 1    
    97   48  171 1    
    98   48  172 1    
    99   48  173 1    
   100   49   50 am   BACKBONE|DICT|INTERRES
   101   49  174 1    
   102   50   51 2    
   103   50   52 1    
   104   52   53 1    
   105   52   54 1    
   106   52  175 1    
   107   53  176 1    
   108   53  177 1    
   109   53  178 1    
   110   54   55 am   BACKBONE|DICT|INTERRES
   111   54  179 1    
   112   55   56 2    
   113   55   57 1    
   114   57   58 1    
   115   57   59 1    
   116   57  180 1    
   117   58  181 1    
   118   58  182 1    
   119   58  183 1    
   120   59   60 am   BACKBONE|DICT|INTERRES
   121   59  184 1    
   122   60   61 2    
   123   60   62 1    
   124   62   63 1    
   125   62   64 1    
   126   62  185 1    
   127   63  186 1    
   128   63  187 1    
   129   63  188 1    
   130   64   65 am   BACKBONE|DICT|INTERRES
   131   64  189 1    
   132   65   66 2    
   133   67   68 2    
   134   67   69 am   BACKBONE|DICT|INTERRES
   135   69   70 1    
   136   69  190 1    
   137   70   71 1    
   138   70   72 1    
   139   70  191 1    
   140   71  192 1    
   141   71  193 1    
   142   71  194 1    
   143   72   73 2    
   144   72   74 am   BACKBONE|DICT|INTERRES
   145   74   75 1    
   146   74  195 1    
   147   75   76 1    
   148   75   77 1    
   149   75  196 1    
   150   76  197 1    
   151   76  198 1    
   152   76  199 1    
   153   77   78 2    
   154   77   79 am   BACKBONE|DICT|INTERRES
   155   79   80 1    
   156   79  200 1    
   157   80   81 1    
   158   80   82 1    
   159   80  201 1    
   160   81  202 1    
   161   81  203 1    
   162   81  204 1    
   163   82   83 2    
   164   82   84 am   BACKBONE|DICT|INTERRES
   165   84   85 1    
   166   84  205 1    
   167   85   86 1    
   168   85   87 1    
   169   85  206 1    
   170   86  207 1    
   171   86  208 1    
   172   86  209 1    
   173   87   88 2    
   174   87   89 am   BACKBONE|DICT|INTERRES
   175   89   90 1    
   176   89  210 1    
   177   90   91 1    
   178   90   92 1    
   179   90  211 1    
   180   91  212 1    
   181   91  213 1    
   182   91  214 1    
   183   92   93 2    
   184   92   94 am   BACKBONE|DICT|INTERRES
   185   94   95 1    
   186   94  215 1    
   187   95   96 1    
   188   95   97 1    
   189   95  216 1    
   190   96  217 1    
   191   96  218 1    
   192   96  219 1    
   193   97   98 2    
   194   97   99 am   BACKBONE|DICT|INTERRES
   195   99  100 1    
   196   99  220 1    
   197  100  101 1    
   198  100  102 1    
   199  100  221 1    
   200  101  222 1    
   201  101  223 1    
   202  101  224 1    
   203  102  103 2    
   204  102  104 am   BACKBONE|DICT|INTERRES
   205  104  105 1    
   206  104  225 1    
   207  105  106 1    
   208  105  107 1    
   209  105  226 1    
   210  106  227 1    
   211  106  228 1    
   212  106  229 1    
   213  107  108 2    
   214  107  109 am   BACKBONE|DICT|INTERRES
   215  109  110 1    
   216  109  230 1    
   217  110  111 1    
   218  110  112 1    
   219  110  231 1    
   220  111  232 1    
   221  111  233 1    
   222  111  234 1    
   223  112  113 2    
   224  112  114 am   BACKBONE|DICT|INTERRES
   225  114  115 1    
   226  114  235 1    
   227  115  116 1    
   228  115  117 1    
   229  115  236 1    
   230  116  237 1    
   231  116  238 1    
   232  116  239 1    
   233  117  118 2    
   234  117  119 am   BACKBONE|DICT|INTERRES
   235  119  120 1    
   236  119  240 1    
   237  120  121 1    
   238  120  124 1    
   239  120  241 1    
   240  121  122 am   BACKBONE|DICT|INTERRES
   241  121  123 2    
   242  122  242 1    
   243  122  243 1    
   244  124  125 1    
   245  124  244 1    
   246  124  245 1    
   247  125  126 1    
   248  126  246 1    
   249  126  247 1    
@<TRIPOS>SUBSTRUCTURE
     1 UNK         1 GROUP             0       ****    0 ROOT    
