@<TRIPOS>MOLECULE
3R540
247   249    1
SMALL
USER_CHARGES


@<TRIPOS>ATOM
      1 CA          2.8749  -15.8793  -47.0208 C.3       0 UNK        -0.1800 
      2 C           2.0118  -14.7879  -47.6350 C.2       0 UNK         0.5000 
      3 O           2.4180  -14.1667  -48.6169 O.2       0 UNK        -0.5000 
      4 N           0.8263  -14.5512  -47.0574 N.am      1 UNK        -0.5000 
      5 CA         -0.2299  -13.6268  -47.5031 C.3       1 UNK         0.1400 
      6 C6         -0.7429  -13.8562  -48.9532 C.3       23 UNK        -0.0398 
      7 S7         -1.1325  -15.6047  -49.3098 S.3       23 UNK        -0.2404 
      8 C8         -0.0418  -15.9255  -50.7281 C.3       23 UNK        -0.0205 
      9 C9          0.2326  -17.4104  -50.8854 C.ar      23 UNK        -0.0193 
     10 C10        -0.5551  -18.1979  -51.7304 C.ar      23 UNK        -0.1150 
     11 C11        -0.2863  -19.5625  -51.8778 C.ar      23 UNK        -0.0193 
     12 C12         0.7932  -20.1259  -51.1916 C.ar      23 UNK        -0.1150 
     13 C13         1.5892  -19.3499  -50.3431 C.ar      23 UNK        -0.0193 
     14 C14         1.2963  -17.9929  -50.1912 C.ar      23 UNK        -0.1150 
     15 C15         2.7998  -19.9476  -49.6332 C.3       23 UNK        -0.0205 
     16 S16         2.4782  -21.5690  -48.8670 S.3       23 UNK        -0.2404 
     17 C17         1.4372  -21.0999  -47.4466 C.3       23 UNK        -0.0398 
     18 CA          1.1133  -22.3218  -46.5524 C.3       11 UNK         0.1400 
     19 N           0.8205  -21.9400  -45.1683 N.am      11 UNK        -0.5000 
     20 C           0.7580  -22.7996  -44.1407 C.2       10 UNK         0.5000 
     21 O           0.9762  -24.0062  -44.2476 O.2       10 UNK        -0.5000 
     22 CA          0.3553  -22.2258  -42.7693 C.3       10 UNK         0.1400 
     23 CB          1.5590  -21.5737  -42.0729 C.3       10 UNK        -0.1800 
     24 N          -0.7403  -21.2623  -42.8669 N.am      10 UNK        -0.5000 
     25 C          -1.9884  -21.5725  -43.2457 C.2       9 UNK         0.5000 
     26 O          -2.3705  -22.7222  -43.4659 O.2       9 UNK        -0.5000 
     27 CA         -2.9626  -20.3975  -43.4572 C.3       9 UNK         0.1400 
     28 CB         -3.6159  -19.9841  -42.1302 C.3       9 UNK        -0.1800 
     29 N          -2.3358  -19.2284  -44.0790 N.am      9 UNK        -0.5000 
     30 C          -1.7505  -19.2262  -45.2852 C.2       8 UNK         0.5000 
     31 O          -1.6711  -20.2168  -46.0070 O.2       8 UNK        -0.5000 
     32 CA         -1.0845  -17.9150  -45.7331 C.3       8 UNK         0.1400 
     33 CB         -2.1463  -16.8842  -46.1423 C.3       8 UNK        -0.1800 
     34 N          -0.2122  -17.3693  -44.6902 N.am      8 UNK        -0.5000 
     35 C           0.8818  -17.9951  -44.2264 C.2       7 UNK         0.5000 
     36 O           1.3206  -19.0423  -44.6999 O.2       7 UNK        -0.5000 
     37 CA          1.5688  -17.3819  -42.9939 C.3       7 UNK         0.1400 
     38 CB          2.5853  -16.3032  -43.3987 C.3       7 UNK        -0.1800 
     39 N           0.5974  -16.8252  -42.0530 N.am      7 UNK        -0.5000 
     40 C          -0.2379  -17.5658  -41.3090 C.2       6 UNK         0.5000 
     41 O          -0.2379  -18.7962  -41.3034 O.2       6 UNK        -0.5000 
     42 CA         -1.2796  -16.8010  -40.4710 C.3       6 UNK         0.1400 
     43 CB         -0.6822  -16.3788  -39.1208 C.3       6 UNK        -0.1800 
     44 N          -1.7917  -15.6184  -41.1655 N.am      6 UNK        -0.5000 
     45 C          -2.5185  -15.6532  -42.2923 C.2       5 UNK         0.5000 
     46 O          -2.9072  -16.6965  -42.8143 O.2       5 UNK        -0.5000 
     47 CA         -2.8035  -14.3030  -42.9802 C.3       5 UNK         0.1400 
     48 CB         -4.1469  -13.7288  -42.5081 C.3       5 UNK        -0.1800 
     49 N          -1.7410  -13.3231  -42.7365 N.am      5 UNK        -0.5000 
     50 C          -0.5006  -13.4201  -43.2310 C.2       4 UNK         0.5000 
     51 O          -0.1484  -14.2848  -44.0408 O.2       4 UNK        -0.5000 
     52 CA          0.5342  -12.4533  -42.6407 C.3       4 UNK         0.1400 
     53 CB          1.0095  -12.9878  -41.2718 C.3       4 UNK        -0.1800 
     54 N           1.6542  -12.3323  -43.5674 N.am      4 UNK        -0.5000 
     55 C           2.7057  -11.5125  -43.4396 C.2       3 UNK         0.5000 
     56 O           2.8639  -10.7281  -42.5036 O.2       3 UNK        -0.5000 
     57 CA          3.7460  -11.5611  -44.5717 C.3       3 UNK         0.1400 
     58 CB          4.5509  -12.8700  -44.5237 C.3       3 UNK        -0.1800 
     59 N           3.1163  -11.4226  -45.8831 N.am      3 UNK        -0.5000 
     60 C           2.5758  -10.2889  -46.3543 C.2       2 UNK         0.5000 
     61 O           2.6264   -9.2067  -45.7689 O.2       2 UNK        -0.5000 
     62 CA          1.8408  -10.3881  -47.7033 C.3       2 UNK         0.1400 
     63 CB          2.7997  -10.0955  -48.8670 C.3       2 UNK        -0.1800 
     64 N           1.2382  -11.7061  -47.8989 N.am      2 UNK        -0.5000 
     65 C           0.1480  -12.1532  -47.2643 C.2       1 UNK         0.5000 
     66 O          -0.5249  -11.4670  -46.4946 O.2       1 UNK        -0.5000 
     67 C          -0.0046  -23.1942  -47.1609 C.2       11 UNK         0.5000 
     68 O           0.2944  -24.2018  -47.8023 O.2       11 UNK        -0.5000 
     69 N          -1.2707  -22.8313  -46.9063 N.am      12 UNK        -0.5000 
     70 CA         -2.4809  -23.5106  -47.3831 C.3       12 UNK         0.1400 
     71 CB         -3.7214  -22.7332  -46.9181 C.3       12 UNK        -0.1800 
     72 C          -2.6039  -24.9915  -46.9729 C.2       12 UNK         0.5000 
     73 O          -3.3411  -25.7297  -47.6240 O.2       12 UNK        -0.5000 
     74 N          -1.8627  -25.4199  -45.9420 N.am      13 UNK        -0.5000 
     75 CA         -1.7296  -26.8238  -45.5487 C.3       13 UNK         0.1400 
     76 CB         -0.9845  -26.9020  -44.2082 C.3       13 UNK        -0.1800 
     77 C          -1.0222  -27.6912  -46.6132 C.2       13 UNK         0.5000 
     78 O          -1.2734  -28.8959  -46.6655 O.2       13 UNK        -0.5000 
     79 N          -0.1690  -27.0707  -47.4406 N.am      14 UNK        -0.5000 
     80 CA          0.5419  -27.7057  -48.5503 C.3       14 UNK         0.1400 
     81 CB          2.0499  -27.4617  -48.3814 C.3       14 UNK        -0.1800 
     82 C           0.0615  -27.1625  -49.9071 C.2       14 UNK         0.5000 
     83 O          -0.1003  -27.9394  -50.8482 O.2       14 UNK        -0.5000 
     84 N          -0.1627  -25.8439  -49.9878 N.am      15 UNK        -0.5000 
     85 CA         -0.5249  -25.1190  -51.2086 C.3       15 UNK         0.1400 
     86 CB          0.0235  -23.6901  -51.1061 C.3       15 UNK        -0.1800 
     87 C          -2.0378  -25.1043  -51.5039 C.2       15 UNK         0.5000 
     88 O          -2.4512  -24.4829  -52.4830 O.2       15 UNK        -0.5000 
     89 N          -2.8344  -25.7653  -50.6536 N.am      16 UNK        -0.5000 
     90 CA         -4.2750  -26.0366  -50.7374 C.3       16 UNK         0.1400 
     91 CB         -4.6101  -26.8466  -52.0045 C.3       16 UNK        -0.1800 
     92 C          -5.2056  -24.8142  -50.6130 C.2       16 UNK         0.5000 
     93 O          -6.2456  -24.9250  -49.9620 O.2       16 UNK        -0.5000 
     94 N          -4.8539  -23.6907  -51.2460 N.am      17 UNK        -0.5000 
     95 CA         -5.7185  -22.5242  -51.3929 C.3       17 UNK         0.1400 
     96 CB         -6.6567  -22.7250  -52.5986 C.3       17 UNK        -0.1800 
     97 C          -4.8873  -21.2388  -51.4892 C.2       17 UNK         0.5000 
     98 O          -4.8477  -20.5982  -52.5401 O.2       17 UNK        -0.5000 
     99 N          -4.2448  -20.8659  -50.3783 N.am      18 UNK        -0.5000 
    100 CA        -3.7404  -19.5088  -50.1721 C.3       18 UNK         0.1400 
    101 CB        -2.5582  -19.5513  -49.1947 C.3       18 UNK        -0.1800 
    102 C         -4.8898  -18.6532  -49.5938 C.2       18 UNK         0.5000 
    103 O         -5.6379  -19.1647  -48.7600 O.2       18 UNK        -0.5000 
    104 N         -5.0707  -17.3842  -49.9824 N.am      19 UNK        -0.5000 
    105 CA        -4.3212  -16.6100  -50.9765 C.3       19 UNK         0.1400 
    106 CB        -4.4122  -15.1266  -50.5802 C.3       19 UNK        -0.1800 
    107 C         -4.8411  -16.7985  -52.4188 C.2       19 UNK         0.5000 
    108 O         -4.2957  -16.1823  -53.3345 O.2       19 UNK        -0.5000 
    109 N         -5.8933  -17.6100  -52.5975 N.am      20 UNK        -0.5000 
    110 CA        -6.6481  -17.8469  -53.8344 C.3       20 UNK         0.1400 
    111 CB        -7.9754  -18.5309  -53.4605 C.3       20 UNK        -0.1800 
    112 C         -5.8811  -18.6113  -54.9416 C.2       20 UNK         0.5000 
    113 O         -6.3671  -19.6218  -55.4553 O.2       20 UNK        -0.5000 
    114 N         -4.6981  -18.0989  -55.3022 N.am      21 UNK        -0.5000 
    115 CA        -3.8285  -18.5009  -56.4149 C.3       21 UNK         0.1400 
    116 CB        -4.5252  -18.2208  -57.7629 C.3       21 UNK        -0.1800 
    117 C         -3.2729  -19.9397  -56.3392 C.2       21 UNK         0.5000 
    118 O         -2.7307  -20.4248  -57.3339 O.2       21 UNK        -0.5000 
    119 N         -3.3930  -20.5885  -55.1735 N.am      22 UNK        -0.5000 
    120 CA        -2.9440  -21.9634  -54.8944 C.3       22 UNK         0.1400 
    121 C         -3.7867  -23.0522  -55.6296 C.2       22 UNK         0.5000 
    122 N         -5.0093  -22.7541  -56.0572 N.am      22 UNK        -0.7600 
    123 O         -3.3412  -24.1819  -55.8113 O.2       22 UNK        -0.5000 
    124 C124       -1.4084  -22.1663  -55.0669 C.3       23 UNK        -0.0398 
    125 S125       -0.3022  -20.9292  -54.2839 S.3       23 UNK        -0.2404 
    126 C126       -1.1672  -20.4357  -52.7587 C.3       23 UNK        -0.0205 
    127 H127        3.6329  -15.4438  -46.3710 H         1 UNK         0.0600 
    128 H128        3.3826  -16.4437  -47.8028 H         1 UNK         0.0600 
    129 H129        2.2765  -16.5803  -46.4404 H         1 UNK         0.0600 
    130 H130        0.5879  -15.0596  -46.2167 H         1 UNK         0.3000 
    131 H131       -1.0723  -13.8197  -46.8383 H         1 UNK         0.0600 
    132 H132       -1.6514  -13.2757  -49.1214 H         1 UNK         0.0800 
    133 H133       -0.0203  -13.4895  -49.6833 H         1 UNK         0.0800 
    134 H134       -0.4976  -15.5211  -51.6331 H         1 UNK         0.0800 
    135 H135        0.9060  -15.4008  -50.5990 H         1 UNK         0.0800 
    136 H136       -1.3772  -17.7488  -52.2691 H         1 UNK         0.1150 
    137 H137        1.0222  -21.1715  -51.3274 H         1 UNK         0.1150 
    138 H138        1.9083  -17.3791  -49.5463 H         1 UNK         0.1150 
    139 H139        3.5994  -20.0645  -50.3654 H         1 UNK         0.0800 
    140 H140        3.1792  -19.2661  -48.8700 H         1 UNK         0.0800 
    141 H141        0.5319  -20.5972  -47.7934 H         1 UNK         0.0800 
    142 H142        1.9966  -20.3582  -46.8759 H         1 UNK         0.0800 
    143 H143        2.0091  -22.9453  -46.5043 H         1 UNK         0.0600 
    144 H144        0.6615  -20.9531  -44.9940 H         1 UNK         0.3000 
    145 H145        0.0159  -23.0572  -42.1479 H         1 UNK         0.0600 
    146 H146        1.2942  -21.2220  -41.0756 H         1 UNK         0.0600 
    147 H147        2.3773  -22.2859  -41.9605 H         1 UNK         0.0600 
    148 H148        1.9401  -20.7225  -42.6370 H         1 UNK         0.0600 
    149 H149       -0.5261  -20.2989  -42.6315 H         1 UNK         0.3000 
    150 H150       -3.7502  -20.7411  -44.1307 H         1 UNK         0.0600 
    151 H151       -4.1272  -20.8288  -41.6670 H         1 UNK         0.0600 
    152 H152       -4.3563  -19.1986  -42.2830 H         1 UNK         0.0600 
    153 H153       -2.8791  -19.6147  -41.4170 H         1 UNK         0.0600 
    154 H154       -2.3921  -18.3543  -43.5626 H         1 UNK         0.3000 
    155 H155       -0.4653  -18.1277  -46.6078 H         1 UNK         0.0600 
    156 H156       -2.6806  -17.2149  -47.0336 H         1 UNK         0.0600 
    157 H157       -1.6945  -15.9237  -46.3719 H         1 UNK         0.0600 
    158 H158       -2.8914  -16.7210  -45.3657 H         1 UNK         0.0600 
    159 H159       -0.5021  -16.5070  -44.2482 H         1 UNK         0.3000 
    160 H160        2.1136  -18.1802  -42.4852 H         1 UNK         0.0600 
    161 H161        2.1219  -15.4901  -43.9552 H         1 UNK         0.0600 
    162 H162        3.3663  -16.7272  -44.0308 H         1 UNK         0.0600 
    163 H163        3.0756  -15.8737  -42.5250 H         1 UNK         0.0600 
    164 H164        0.5102  -15.8214  -42.0302 H         1 UNK         0.3000 
    165 H165       -2.1176  -17.4748  -40.2810 H         1 UNK         0.0600 
    166 H166       -1.4309  -15.8966  -38.4920 H         1 UNK         0.0600 
    167 H167       -0.3082  -17.2446  -38.5726 H         1 UNK         0.0600 
    168 H168        0.1499  -15.6846  -39.2454 H         1 UNK         0.0600 
    169 H169       -1.5361  -14.7204  -40.7846 H         1 UNK         0.3000 
    170 H170       -2.8656  -14.4832  -44.0556 H         1 UNK         0.0600 
    171 H171       -4.9593  -14.4314  -42.6991 H         1 UNK         0.0600 
    172 H172       -4.1420  -13.5151  -41.4386 H         1 UNK         0.0600 
    173 H173       -4.3872  -12.8051  -43.0348 H         1 UNK         0.0600 
    174 H174       -1.9548  -12.5813  -42.0851 H         1 UNK         0.3000 
    175 H175        0.0710  -11.4722  -42.5197 H         1 UNK         0.0600 
    176 H176        1.5511  -13.9287  -41.3738 H         1 UNK         0.0600 
    177 H177        1.6683  -12.2811  -40.7684 H         1 UNK         0.0600 
    178 H178        0.1702  -13.1611  -40.5976 H         1 UNK         0.0600 
    179 H179        1.5786  -12.9318  -44.3777 H         1 UNK         0.3000 
    180 H180        4.4405  -10.7299  -44.4318 H         1 UNK         0.0600 
    181 H181        3.9155  -13.7443  -44.6639 H         1 UNK         0.0600 
    182 H182        5.0523  -12.9824  -43.5616 H         1 UNK         0.0600 
    183 H183        5.3212  -12.8880  -45.2949 H         1 UNK         0.0600 
    184 H184        3.0388  -12.2556  -46.4461 H         1 UNK         0.3000 
    185 H185        1.0489   -9.6361  -47.7117 H         1 UNK         0.0600 
    186 H186        3.2561   -9.1107  -48.7588 H         1 UNK         0.0600 
    187 H187        3.6061  -10.8283  -48.9188 H         1 UNK         0.0600 
    188 H188        2.2745  -10.1069  -49.8221 H         1 UNK         0.0600 
    189 H189        1.7573  -12.3749  -48.4620 H         1 UNK         0.3000 
    190 H190       -1.4209  -21.9591  -46.4008 H         1 UNK         0.3000 
    191 H191       -2.4534  -23.4836  -48.4742 H         1 UNK         0.0600 
    192 H192       -3.7979  -22.7184  -45.8308 H         1 UNK         0.0600 
    193 H193       -4.6356  -23.1857  -47.3053 H         1 UNK         0.0600 
    194 H194       -3.7018  -21.7016  -47.2633 H         1 UNK         0.0600 
    195 H195       -1.2875  -24.7501  -45.4494 H         1 UNK         0.3000 
    196 H196       -2.7336  -27.2285  -45.4056 H         1 UNK         0.0600 
    197 H197       -0.9410  -27.9299  -43.8461 H         1 UNK         0.0600 
    198 H198       -1.4825  -26.3072  -43.4421 H         1 UNK         0.0600 
    199 H199        0.0414  -26.5435  -44.2982 H         1 UNK         0.0600 
    200 H200       -0.0321  -26.0704  -47.3355 H         1 UNK         0.3000 
    201 H201        0.3729  -28.7844  -48.5503 H         1 UNK         0.0600 
    202 H202        2.4157  -27.8977  -47.4517 H         1 UNK         0.0600 
    203 H203        2.2881  -26.3971  -48.3673 H         1 UNK         0.0600 
    204 H204        2.6138  -27.9152  -49.1976 H         1 UNK         0.0600 
    205 H205        0.0189  -25.2634  -49.1704 H         1 UNK         0.3000 
    206 H206       -0.0383  -25.6011  -52.0590 H         1 UNK         0.0600 
    207 H207        1.0816  -23.6895  -50.8433 H         1 UNK         0.0600 
    208 H208       -0.0681  -23.1782  -52.0634 H         1 UNK         0.0600 
    209 H209       -0.5085  -23.1015  -50.3574 H         1 UNK         0.0600 
    210 H210       -2.3864  -26.1737  -49.8451 H         1 UNK         0.3000 
    211 H211       -4.4964  -26.6770  -49.8823 H         1 UNK         0.0600 
    212 H212       -4.4296  -26.2735  -52.9146 H         1 UNK         0.0600 
    213 H213       -5.6600  -27.1424  -52.0107 H         1 UNK         0.0600 
    214 H214       -4.0154  -27.7585  -52.0583 H         1 UNK         0.0600 
    215 H215       -3.9820  -23.6953  -51.7708 H         1 UNK         0.3000 
    216 H216       -6.3402  -22.4149  -50.5016 H         1 UNK         0.0600 
    217 H217       -7.2920  -21.8529  -52.7543 H         1 UNK         0.0600 
    218 H218       -7.3146  -23.5813  -52.4507 H         1 UNK         0.0600 
    219 H219       -6.0952  -22.8914  -53.5169 H         1 UNK         0.0600 
    220 H220       -4.3583  -21.4258  -49.5464 H         1 UNK         0.3000 
    221 H221       -3.3896  -19.1102  -51.1229 H         1 UNK         0.0600 
    222 H222       -2.8893  -19.7909  -48.1871 H         1 UNK         0.0600 
    223 H223       -1.8152  -20.2927  -49.4887 H         1 UNK         0.0600 
    224 H224       -2.0559  -18.5851  -49.1476 H         1 UNK         0.0600 
    225 H225       -5.8358  -16.8816  -49.5568 H         1 UNK         0.3000 
    226 H226       -3.2694  -16.8943  -50.9538 H         1 UNK         0.0600 
    227 H227       -4.0811  -14.9686  -49.5536 H         1 UNK         0.0600 
    228 H228       -3.7791  -14.5102  -51.2200 H         1 UNK         0.0600 
    229 H229       -5.4317  -14.7478  -50.6626 H         1 UNK         0.0600 
    230 H230       -6.2472  -18.0882  -51.7829 H         1 UNK         0.3000 
    231 H231       -6.8947  -16.8708  -54.2568 H         1 UNK         0.0600 
    232 H232       -8.6053  -18.6786  -54.3387 H         1 UNK         0.0600 
    233 H233       -8.5464  -17.9275  -52.7545 H         1 UNK         0.0600 
    234 H234       -7.8061  -19.5079  -53.0074 H         1 UNK         0.0600 
    235 H235       -4.3798  -17.2939  -54.7657 H         1 UNK         0.3000 
    236 H236       -2.9567  -17.8481  -56.3559 H         1 UNK         0.0600 
    237 H237       -5.3773  -18.8825  -57.9218 H         1 UNK         0.0600 
    238 H238       -4.8837  -17.1928  -57.8158 H         1 UNK         0.0600 
    239 H239       -3.8400  -18.3650  -58.5989 H         1 UNK         0.0600 
    240 H240       -3.9152  -20.1498  -54.4242 H         1 UNK         0.3000 
    241 H241       -3.1624  -22.1354  -53.8421 H         1 UNK         0.0600 
    242 H242       -5.5550  -23.4547  -56.5328 H         1 UNK         0.3800 
    243 H243       -5.3910  -21.8296  -55.9099 H         1 UNK         0.3800 
    244 H244       -1.1269  -23.1410  -54.6647 H         1 UNK         0.0800 
    245 H245       -1.1538  -22.2043  -56.1268 H         1 UNK         0.0800 
    246 H246       -1.4782  -21.3185  -52.1996 H         1 UNK         0.0800 
    247 H247       -2.0781  -19.8961  -53.0130 H         1 UNK         0.0800 
@<TRIPOS>BOND
     1    1    2 1    
     2    1  127 1    
     3    1  128 1    
     4    1  129 1    
     5    2    3 2    
     6    2    4 am   BACKBONE|DICT|INTERRES
     7    4    5 1    
     8    4  130 1    
     9    5    6 1    
    10    5   65 1    
    11    5  131 1    
    12    6    7 1    
    13    6  132 1    
    14    6  133 1    
    15    7    8 1    
    16    8    9 1    
    17    8  134 1    
    18    8  135 1    
    19    9   10 ar   
    20    9   14 ar   
    21   10   11 ar   
    22   10  136 1    
    23   11   12 ar   
    24   11  126 1    
    25   12   13 ar   
    26   12  137 1    
    27   13   14 ar   
    28   13   15 1    
    29   14  138 1    
    30   15   16 1    
    31   15  139 1    
    32   15  140 1    
    33   16   17 1    
    34   17   18 1    
    35   17  141 1    
    36   17  142 1    
    37   18   19 1    
    38   18   67 1    
    39   18  143 1    
    40   19   20 am   BACKBONE|DICT|INTERRES
    41   19  144 1    
    42   20   21 2    
    43   20   22 1    
    44   22   23 1    
    45   22   24 1    
    46   22  145 1    
    47   23  146 1    
    48   23  147 1    
    49   23  148 1    
    50   24   25 am   BACKBONE|DICT|INTERRES
    51   24  149 1    
    52   25   26 2    
    53   25   27 1    
    54   27   28 1    
    55   27   29 1    
    56   27  150 1    
    57   28  151 1    
    58   28  152 1    
    59   28  153 1    
    60   29   30 am   BACKBONE|DICT|INTERRES
    61   29  154 1    
    62   30   31 2    
    63   30   32 1    
    64   32   33 1    
    65   32   34 1    
    66   32  155 1    
    67   33  156 1    
    68   33  157 1    
    69   33  158 1    
    70   34   35 am   BACKBONE|DICT|INTERRES
    71   34  159 1    
    72   35   36 2    
    73   35   37 1    
    74   37   38 1    
    75   37   39 1    
    76   37  160 1    
    77   38  161 1    
    78   38  162 1    
    79   38  163 1    
    80   39   40 am   BACKBONE|DICT|INTERRES
    81   39  164 1    
    82   40   41 2    
    83   40   42 1    
    84   42   43 1    
    85   42   44 1    
    86   42  165 1    
    87   43  166 1    
    88   43  167 1    
    89   43  168 1    
    90   44   45 am   BACKBONE|DICT|INTERRES
    91   44  169 1    
    92   45   46 2    
    93   45   47 1    
    94   47   48 1    
    95   47   49 1    
    96   47  170 1    
    97   48  171 1    
    98   48  172 1    
    99   48  173 1    
   100   49   50 am   BACKBONE|DICT|INTERRES
   101   49  174 1    
   102   50   51 2    
   103   50   52 1    
   104   52   53 1    
   105   52   54 1    
   106   52  175 1    
   107   53  176 1    
   108   53  177 1    
   109   53  178 1    
   110   54   55 am   BACKBONE|DICT|INTERRES
   111   54  179 1    
   112   55   56 2    
   113   55   57 1    
   114   57   58 1    
   115   57   59 1    
   116   57  180 1    
   117   58  181 1    
   118   58  182 1    
   119   58  183 1    
   120   59   60 am   BACKBONE|DICT|INTERRES
   121   59  184 1    
   122   60   61 2    
   123   60   62 1    
   124   62   63 1    
   125   62   64 1    
   126   62  185 1    
   127   63  186 1    
   128   63  187 1    
   129   63  188 1    
   130   64   65 am   BACKBONE|DICT|INTERRES
   131   64  189 1    
   132   65   66 2    
   133   67   68 2    
   134   67   69 am   BACKBONE|DICT|INTERRES
   135   69   70 1    
   136   69  190 1    
   137   70   71 1    
   138   70   72 1    
   139   70  191 1    
   140   71  192 1    
   141   71  193 1    
   142   71  194 1    
   143   72   73 2    
   144   72   74 am   BACKBONE|DICT|INTERRES
   145   74   75 1    
   146   74  195 1    
   147   75   76 1    
   148   75   77 1    
   149   75  196 1    
   150   76  197 1    
   151   76  198 1    
   152   76  199 1    
   153   77   78 2    
   154   77   79 am   BACKBONE|DICT|INTERRES
   155   79   80 1    
   156   79  200 1    
   157   80   81 1    
   158   80   82 1    
   159   80  201 1    
   160   81  202 1    
   161   81  203 1    
   162   81  204 1    
   163   82   83 2    
   164   82   84 am   BACKBONE|DICT|INTERRES
   165   84   85 1    
   166   84  205 1    
   167   85   86 1    
   168   85   87 1    
   169   85  206 1    
   170   86  207 1    
   171   86  208 1    
   172   86  209 1    
   173   87   88 2    
   174   87   89 am   BACKBONE|DICT|INTERRES
   175   89   90 1    
   176   89  210 1    
   177   90   91 1    
   178   90   92 1    
   179   90  211 1    
   180   91  212 1    
   181   91  213 1    
   182   91  214 1    
   183   92   93 2    
   184   92   94 am   BACKBONE|DICT|INTERRES
   185   94   95 1    
   186   94  215 1    
   187   95   96 1    
   188   95   97 1    
   189   95  216 1    
   190   96  217 1    
   191   96  218 1    
   192   96  219 1    
   193   97   98 2    
   194   97   99 am   BACKBONE|DICT|INTERRES
   195   99  100 1    
   196   99  220 1    
   197  100  101 1    
   198  100  102 1    
   199  100  221 1    
   200  101  222 1    
   201  101  223 1    
   202  101  224 1    
   203  102  103 2    
   204  102  104 am   BACKBONE|DICT|INTERRES
   205  104  105 1    
   206  104  225 1    
   207  105  106 1    
   208  105  107 1    
   209  105  226 1    
   210  106  227 1    
   211  106  228 1    
   212  106  229 1    
   213  107  108 2    
   214  107  109 am   BACKBONE|DICT|INTERRES
   215  109  110 1    
   216  109  230 1    
   217  110  111 1    
   218  110  112 1    
   219  110  231 1    
   220  111  232 1    
   221  111  233 1    
   222  111  234 1    
   223  112  113 2    
   224  112  114 am   BACKBONE|DICT|INTERRES
   225  114  115 1    
   226  114  235 1    
   227  115  116 1    
   228  115  117 1    
   229  115  236 1    
   230  116  237 1    
   231  116  238 1    
   232  116  239 1    
   233  117  118 2    
   234  117  119 am   BACKBONE|DICT|INTERRES
   235  119  120 1    
   236  119  240 1    
   237  120  121 1    
   238  120  124 1    
   239  120  241 1    
   240  121  122 am   BACKBONE|DICT|INTERRES
   241  121  123 2    
   242  122  242 1    
   243  122  243 1    
   244  124  125 1    
   245  124  244 1    
   246  124  245 1    
   247  125  126 1    
   248  126  246 1    
   249  126  247 1    
@<TRIPOS>SUBSTRUCTURE
     1 UNK         1 GROUP             0       ****    0 ROOT    
