@<TRIPOS>MOLECULE
3R540
247   249    1
SMALL
USER_CHARGES


@<TRIPOS>ATOM
      1 CA          5.9782  -11.2402  -51.1850 C.3       0 UNK        -0.1800 
      2 C           4.9874  -12.0247  -50.3371 C.2       0 UNK         0.5000 
      3 O           4.6846  -11.6199  -49.2138 O.2       0 UNK        -0.5000 
      4 N           4.4735  -13.1414  -50.8686 N.am      1 UNK        -0.5000 
      5 CA          3.4928  -14.0181  -50.2202 C.3       1 UNK         0.1400 
      6 C6          3.6133  -15.4739  -50.7371 C.3       23 UNK        -0.0398 
      7 S7          2.8822  -16.6938  -49.5905 S.3       23 UNK        -0.2404 
      8 C8          2.0749  -17.8069  -50.7800 C.3       23 UNK        -0.0205 
      9 C9          1.4224  -18.9930  -50.0884 C.ar      23 UNK        -0.0193 
     10 C10         0.0466  -18.9942  -49.8438 C.ar      23 UNK        -0.1150 
     11 C11        -0.5645  -20.0900  -49.2276 C.ar      23 UNK        -0.0193 
     12 C12         0.2109  -21.1913  -48.8670 C.ar      23 UNK        -0.1150 
     13 C13         1.5880  -21.2018  -49.0956 C.ar      23 UNK        -0.0193 
     14 C14         2.1901  -20.0992  -49.7095 C.ar      23 UNK        -0.1150 
     15 C15         2.4159  -22.4007  -48.6654 C.3       23 UNK        -0.0205 
     16 S16         2.7349  -22.3402  -46.8753 S.3       23 UNK        -0.2404 
     17 C17         2.1810  -23.9869  -46.2992 C.3       23 UNK        -0.0398 
     18 CA          0.7429  -24.0341  -45.7060 C.3       11 UNK         0.1400 
     19 N           0.4820  -22.8982  -44.8119 N.am      11 UNK        -0.5000 
     20 C          -0.3689  -22.8642  -43.7799 C.2       10 UNK         0.5000 
     21 O          -1.0964  -23.8139  -43.4858 O.2       10 UNK        -0.5000 
     22 CA         -0.4652  -21.5496  -42.9765 C.3       10 UNK         0.1400 
     23 CB         -0.7059  -21.8007  -41.4737 C.3       10 UNK        -0.1800 
     24 N           0.6564  -20.6246  -43.1728 N.am      10 UNK        -0.5000 
     25 C           1.9448  -20.8034  -42.8445 C.2       9 UNK         0.5000 
     26 O           2.4062  -21.8495  -42.3873 O.2       9 UNK        -0.5000 
     27 CA          2.8679  -19.5852  -43.0349 C.3       9 UNK         0.1400 
     28 CB          3.2871  -19.4356  -44.5053 C.3       9 UNK        -0.1800 
     29 N           2.2454  -18.3427  -42.5746 N.am      9 UNK        -0.5000 
     30 C           1.9755  -18.0548  -41.2929 C.2       8 UNK         0.5000 
     31 O           2.2927  -18.7778  -40.3474 O.2       8 UNK        -0.5000 
     32 CA          1.2103  -16.7468  -41.0175 C.3       8 UNK         0.1400 
     33 CB          2.1674  -15.5454  -40.9918 C.3       8 UNK        -0.1800 
     34 N           0.1383  -16.5090  -41.9854 N.am      8 UNK        -0.5000 
     35 C          -0.9882  -17.2340  -42.0537 C.2       7 UNK         0.5000 
     36 O          -1.2715  -18.1309  -41.2595 O.2       7 UNK        -0.5000 
     37 CA         -1.9602  -16.9216  -43.2073 C.3       7 UNK         0.1400 
     38 CB         -2.9410  -15.8123  -42.8005 C.3       7 UNK        -0.1800 
     39 N          -1.2860  -16.5480  -44.4512 N.am      7 UNK        -0.5000 
     40 C          -0.4905  -17.3656  -45.1567 C.2       6 UNK         0.5000 
     41 O          -0.2504  -18.5285  -44.8339 O.2       6 UNK        -0.5000 
     42 CA          0.2073  -16.7604  -46.3873 C.3       6 UNK         0.1400 
     43 CB         -0.7829  -16.5450  -47.5391 C.3       6 UNK        -0.1800 
     44 N           0.8513  -15.4866  -46.0822 N.am      6 UNK        -0.5000 
     45 C           1.8213  -15.2950  -45.1806 C.2       5 UNK         0.5000 
     46 O           2.3339  -16.1959  -44.5184 O.2       5 UNK        -0.5000 
     47 CA          2.2510  -13.8376  -44.9450 C.3       5 UNK         0.1400 
     48 CB          3.2441  -13.3758  -46.0227 C.3       5 UNK        -0.1800 
     49 N           1.1032  -12.9297  -44.9135 N.am      5 UNK        -0.5000 
     50 C           0.1966  -12.8867  -43.9272 C.2       4 UNK         0.5000 
     51 O           0.2470  -13.5943  -42.9216 O.2       4 UNK        -0.5000 
     52 CA         -0.9788  -11.9076  -44.1109 C.3       4 UNK         0.1400 
     53 CB         -0.5588  -10.4779  -43.7377 C.3       4 UNK        -0.1800 
     54 N          -1.5172  -11.9160  -45.4725 N.am      4 UNK        -0.5000 
     55 C          -2.1591  -12.9581  -46.0189 C.2       3 UNK         0.5000 
     56 O          -2.3851  -14.0069  -45.4178 O.2       3 UNK        -0.5000 
     57 CA         -2.5681  -12.8287  -47.5006 C.3       3 UNK         0.1400 
     58 CB         -3.9340  -12.1396  -47.6299 C.3       3 UNK        -0.1800 
     59 N          -1.5888  -12.1358  -48.3484 N.am      3 UNK        -0.5000 
     60 C          -0.2989  -12.4789  -48.4656 C.2       2 UNK         0.5000 
     61 O           0.2221  -13.3783  -47.8050 O.2       2 UNK        -0.5000 
     62 CA          0.5601  -11.6539  -49.4435 C.3       2 UNK         0.1400 
     63 CB          0.8005  -10.2402  -48.8895 C.3       2 UNK        -0.1800 
     64 N           1.8605  -12.2854  -49.6665 N.am      2 UNK        -0.5000 
     65 C           2.0693  -13.4247  -50.3379 C.2       1 UNK         0.5000 
     66 O           1.2114  -13.9727  -51.0328 O.2       1 UNK        -0.5000 
     67 C          -0.3694  -24.2389  -46.7649 C.2       11 UNK         0.5000 
     68 O          -0.0857  -24.6105  -47.9048 O.2       11 UNK        -0.5000 
     69 N          -1.6323  -24.0120  -46.3783 N.am      12 UNK        -0.5000 
     70 CA         -2.8202  -24.0714  -47.2344 C.3       12 UNK         0.1400 
     71 CB         -4.0531  -23.6857  -46.4060 C.3       12 UNK        -0.1800 
     72 C          -3.0350  -25.4394  -47.9077 C.2       12 UNK         0.5000 
     73 O          -3.5220  -25.4887  -49.0362 O.2       12 UNK        -0.5000 
     74 N          -2.6236  -26.5175  -47.2267 N.am      13 UNK        -0.5000 
     75 CA         -2.6474  -27.8884  -47.7374 C.3       13 UNK         0.1400 
     76 CB         -2.3714  -28.8585  -46.5789 C.3       13 UNK        -0.1800 
     77 C          -1.6533  -28.1298  -48.8909 C.2       13 UNK         0.5000 
     78 O          -1.9228  -28.9745  -49.7451 O.2       13 UNK        -0.5000 
     79 N          -0.5373  -27.3851  -48.9089 N.am      14 UNK        -0.5000 
     80 CA          0.4556  -27.4243  -49.9840 C.3       14 UNK         0.1400 
     81 CB          1.8144  -26.9343  -49.4597 C.3       14 UNK        -0.1800 
     82 C           0.0018  -26.5909  -51.1943 C.2       14 UNK         0.5000 
     83 O           0.2540  -26.9894  -52.3319 O.2       14 UNK        -0.5000 
     84 N          -0.6821  -25.4670  -50.9300 N.am      15 UNK        -0.5000 
     85 CA         -1.3219  -24.6328  -51.9496 C.3       15 UNK         0.1400 
     86 CB         -1.7363  -23.2900  -51.3296 C.3       15 UNK        -0.1800 
     87 C          -2.5335  -25.3246  -52.6037 C.2       15 UNK         0.5000 
     88 O          -2.7741  -25.1264  -53.7950 O.2       15 UNK        -0.5000 
     89 N          -3.2749  -26.1095  -51.8070 N.am      16 UNK        -0.5000 
     90 CA         -4.4499  -26.9340  -52.1211 C.3       16 UNK         0.1400 
     91 CB         -4.1342  -27.9826  -53.2037 C.3       16 UNK        -0.1800 
     92 C          -5.7103  -26.1202  -52.4697 C.2       16 UNK         0.5000 
     93 O          -6.7760  -26.3762  -51.9094 O.2       16 UNK        -0.5000 
     94 N          -5.5576  -25.1294  -53.3536 N.am      17 UNK        -0.5000 
     95 CA         -6.5786  -24.1540  -53.7395 C.3       17 UNK         0.1400 
     96 CB         -6.3289  -23.7514  -55.2027 C.3       17 UNK        -0.1800 
     97 C          -6.5843  -22.9121  -52.8218 C.2       17 UNK         0.5000 
     98 O          -7.3219  -21.9650  -53.0955 O.2       17 UNK        -0.5000 
     99 N          -5.7321  -22.9131  -51.7827 N.am      18 UNK        -0.5000 
    100 CA        -5.4980  -21.8466  -50.7978 C.3       18 UNK         0.1400 
    101 CB        -6.7870  -21.5193  -50.0144 C.3       18 UNK        -0.1800 
    102 C         -4.8369  -20.5788  -51.3814 C.2       18 UNK         0.5000 
    103 O         -4.7626  -19.5624  -50.6874 O.2       18 UNK        -0.5000 
    104 N         -4.3729  -20.6491  -52.6397 N.am      19 UNK        -0.5000 
    105 CA        -3.6536  -19.6235  -53.4134 C.3       19 UNK         0.1400 
    106 CB        -2.2492  -19.4088  -52.8120 C.3       19 UNK        -0.1800 
    107 C         -4.3994  -18.2788  -53.5852 C.2       19 UNK         0.5000 
    108 O         -3.7883  -17.3032  -54.0229 O.2       19 UNK        -0.5000 
    109 N         -5.6859  -18.2394  -53.2028 N.am      20 UNK        -0.5000 
    110 CA        -6.5139  -17.0477  -52.9821 C.3       20 UNK         0.1400 
    111 CB        -6.8274  -16.3403  -54.3171 C.3       20 UNK        -0.1800 
    112 C         -5.9223  -16.0938  -51.9148 C.2       20 UNK         0.5000 
    113 O         -6.1491  -14.8843  -51.9836 O.2       20 UNK        -0.5000 
    114 N         -5.1647  -16.6518  -50.9583 N.am      21 UNK        -0.5000 
    115 CA        -4.3977  -15.9087  -49.9575 C.3       21 UNK         0.1400 
    116 CB        -2.9210  -15.8746  -50.3838 C.3       21 UNK        -0.1800 
    117 C         -4.5535  -16.5039  -48.5492 C.2       21 UNK         0.5000 
    118 O         -4.6207  -15.7411  -47.5863 O.2       21 UNK        -0.5000 
    119 N         -4.6362  -17.8375  -48.4444 N.am      22 UNK        -0.5000 
    120 CA        -4.8723  -18.5555  -47.1789 C.3       22 UNK         0.1400 
    121 C         -6.3731  -18.6104  -46.7630 C.2       22 UNK         0.5000 
    122 N         -7.3165  -18.1881  -47.5968 N.am      22 UNK        -0.7600 
    123 O         -6.6883  -19.0377  -45.6561 O.2       22 UNK        -0.5000 
    124 C124       -4.2561  -19.9799  -47.1967 C.3       23 UNK        -0.0398 
    125 S125       -2.4342  -19.9849  -47.1872 S.3       23 UNK        -0.2404 
    126 C126       -2.0600  -20.1008  -48.9627 C.3       23 UNK        -0.0205 
    127 H127        5.6028  -10.2326  -51.3638 H         1 UNK         0.0600 
    128 H128        6.9345  -11.1622  -50.6679 H         1 UNK         0.0600 
    129 H129        6.1514  -11.7154  -52.1509 H         1 UNK         0.0600 
    130 H130        4.7363  -13.4015  -51.8088 H         1 UNK         0.3000 
    131 H131        3.7346  -14.0438  -49.1554 H         1 UNK         0.0600 
    132 H132        4.6656  -15.7420  -50.8411 H         1 UNK         0.0800 
    133 H133        3.1834  -15.5731  -51.7353 H         1 UNK         0.0800 
    134 H134        2.8122  -18.1659  -51.4997 H         1 UNK         0.0800 
    135 H135        1.3326  -17.2451  -51.3499 H         1 UNK         0.0800 
    136 H136       -0.5456  -18.1397  -50.1353 H         1 UNK         0.1150 
    137 H137       -0.2637  -22.0358  -48.3952 H         1 UNK         0.1150 
    138 H138        3.2559  -20.0978  -49.8893 H         1 UNK         0.1150 
    139 H139        1.8977  -23.3179  -48.9437 H         1 UNK         0.0800 
    140 H140        3.3694  -22.4190  -49.1950 H         1 UNK         0.0800 
    141 H141        2.8783  -24.2754  -45.5116 H         1 UNK         0.0800 
    142 H142        2.3298  -24.7329  -47.0809 H         1 UNK         0.0800 
    143 H143        0.7006  -24.9380  -45.0948 H         1 UNK         0.0600 
    144 H144        1.0140  -22.0630  -45.0130 H         1 UNK         0.3000 
    145 H145       -1.3415  -21.0290  -43.3654 H         1 UNK         0.0600 
    146 H146       -0.7826  -20.8622  -40.9247 H         1 UNK         0.0600 
    147 H147       -1.6357  -22.3466  -41.3102 H         1 UNK         0.0600 
    148 H148        0.0989  -22.3850  -41.0269 H         1 UNK         0.0600 
    149 H149        0.4022  -19.7449  -43.6204 H         1 UNK         0.3000 
    150 H150        3.7694  -19.7508  -42.4415 H         1 UNK         0.0600 
    151 H151        3.8065  -20.3288  -44.8533 H         1 UNK         0.0600 
    152 H152        3.9666  -18.5936  -44.6379 H         1 UNK         0.0600 
    153 H153        2.4287  -19.2764  -45.1592 H         1 UNK         0.0600 
    154 H154        2.0098  -17.6599  -43.2897 H         1 UNK         0.3000 
    155 H155        0.7569  -16.8318  -40.0277 H         1 UNK         0.0600 
    156 H156        2.6396  -15.3825  -41.9604 H         1 UNK         0.0600 
    157 H157        2.9625  -15.6959  -40.2607 H         1 UNK         0.0600 
    158 H158        1.6429  -14.6302  -40.7172 H         1 UNK         0.0600 
    159 H159        0.2739  -15.7482  -42.6404 H         1 UNK         0.3000 
    160 H160       -2.5367  -17.8278  -43.4050 H         1 UNK         0.0600 
    161 H161       -3.6973  -15.6549  -43.5699 H         1 UNK         0.0600 
    162 H162       -2.4276  -14.8640  -42.6362 H         1 UNK         0.0600 
    163 H163       -3.4638  -16.0693  -41.8785 H         1 UNK         0.0600 
    164 H164       -1.4651  -15.6094  -44.7978 H         1 UNK         0.3000 
    165 H165        0.9780  -17.4589  -46.7204 H         1 UNK         0.0600 
    166 H166       -0.2752  -16.1714  -48.4288 H         1 UNK         0.0600 
    167 H167       -1.2783  -17.4732  -47.8120 H         1 UNK         0.0600 
    168 H168       -1.5623  -15.8333  -47.2719 H         1 UNK         0.0600 
    169 H169        0.5280  -14.6814  -46.6160 H         1 UNK         0.3000 
    170 H170        2.7539  -13.7888  -43.9769 H         1 UNK         0.0600 
    171 H171        4.1145  -14.0320  -46.0584 H         1 UNK         0.0600 
    172 H172        2.7928  -13.3776  -47.0143 H         1 UNK         0.0600 
    173 H173        3.6048  -12.3670  -45.8219 H         1 UNK         0.0600 
    174 H174        0.9427  -12.3768  -45.7424 H         1 UNK         0.3000 
    175 H175       -1.7752  -12.2159  -43.4300 H         1 UNK         0.0600 
    176 H176       -1.4064   -9.7938  -43.7830 H         1 UNK         0.0600 
    177 H177       -0.1660  -10.4402  -42.7208 H         1 UNK         0.0600 
    178 H178        0.2165  -10.0970  -44.4037 H         1 UNK         0.0600 
    179 H179       -1.3624  -11.0931  -46.0357 H         1 UNK         0.3000 
    180 H180       -2.6693  -13.8409  -47.8912 H         1 UNK         0.0600 
    181 H181       -3.8962  -11.1022  -47.2956 H         1 UNK         0.0600 
    182 H182       -4.6861  -12.6531  -47.0290 H         1 UNK         0.0600 
    183 H183       -4.2852  -12.1502  -48.6618 H         1 UNK         0.0600 
    184 H184       -1.9428  -11.3727  -48.9069 H         1 UNK         0.3000 
    185 H185        0.0332  -11.5842  -50.3972 H         1 UNK         0.0600 
    186 H186        1.3097  -10.2674  -47.9250 H         1 UNK         0.0600 
    187 H187        1.4115   -9.6493  -49.5723 H         1 UNK         0.0600 
    188 H188       -0.1380   -9.7023  -48.7512 H         1 UNK         0.0600 
    189 H189        2.6494  -11.8915  -49.1660 H         1 UNK         0.3000 
    190 H190       -1.7818  -23.7738  -45.4047 H         1 UNK         0.3000 
    191 H191       -2.6894  -23.3281  -48.0229 H         1 UNK         0.0600 
    192 H192       -4.2666  -24.4263  -45.6341 H         1 UNK         0.0600 
    193 H193       -4.9382  -23.6017  -47.0380 H         1 UNK         0.0600 
    194 H194       -3.9106  -22.7262  -45.9110 H         1 UNK         0.0600 
    195 H195       -2.2357  -26.3811  -46.3049 H         1 UNK         0.3000 
    196 H196       -3.6504  -28.0892  -48.1202 H         1 UNK         0.0600 
    197 H197       -2.4080  -29.8942  -46.9196 H         1 UNK         0.0600 
    198 H198       -3.1149  -28.7516  -45.7888 H         1 UNK         0.0600 
    199 H199       -1.3869  -28.6919  -46.1399 H         1 UNK         0.0600 
    200 H200       -0.4127  -26.6635  -48.2099 H         1 UNK         0.3000 
    201 H201        0.5783  -28.4587  -50.3126 H         1 UNK         0.0600 
    202 H202        2.1252  -27.4947  -48.5779 H         1 UNK         0.0600 
    203 H203        1.7931  -25.8772  -49.1977 H         1 UNK         0.0600 
    204 H204        2.5886  -27.0632  -50.2169 H         1 UNK         0.0600 
    205 H205       -0.7976  -25.1901  -49.9635 H         1 UNK         0.3000 
    206 H206       -0.5913  -24.4322  -52.7361 H         1 UNK         0.0600 
    207 H207       -0.8664  -22.7446  -50.9658 H         1 UNK         0.0600 
    208 H208       -2.2299  -22.6563  -52.0666 H         1 UNK         0.0600 
    209 H209       -2.4249  -23.4224  -50.4957 H         1 UNK         0.0600 
    210 H210       -3.0491  -26.0872  -50.8168 H         1 UNK         0.3000 
    211 H211       -4.6738  -27.4763  -51.2008 H         1 UNK         0.0600 
    212 H212       -3.9137  -27.5244  -54.1681 H         1 UNK         0.0600 
    213 H213       -4.9798  -28.6557  -53.3497 H         1 UNK         0.0600 
    214 H214       -3.2773  -28.5933  -52.9186 H         1 UNK         0.0600 
    215 H215       -4.6288  -25.0057  -53.7512 H         1 UNK         0.3000 
    216 H216       -7.5670  -24.6133  -53.6740 H         1 UNK         0.0600 
    217 H217       -7.0938  -23.0601  -55.5589 H         1 UNK         0.0600 
    218 H218       -6.3518  -24.6217  -55.8589 H         1 UNK         0.0600 
    219 H219       -5.3607  -23.2646  -55.3268 H         1 UNK         0.0600 
    220 H220       -5.1792  -23.7484  -51.6553 H         1 UNK         0.3000 
    221 H221       -4.7783  -22.2519  -50.0852 H         1 UNK         0.0600 
    222 H222       -7.5453  -21.0596  -50.6482 H         1 UNK         0.0600 
    223 H223       -7.2182  -22.4187  -49.5750 H         1 UNK         0.0600 
    224 H224       -6.5955  -20.8237  -49.1982 H         1 UNK         0.0600 
    225 H225       -4.5276  -21.5186  -53.1282 H         1 UNK         0.3000 
    226 H226       -3.5285  -20.0307  -54.4176 H         1 UNK         0.0600 
    227 H227       -1.7168  -20.3515  -52.6898 H         1 UNK         0.0600 
    228 H228       -1.6366  -18.7760  -53.4549 H         1 UNK         0.0600 
    229 H229       -2.3020  -18.9249  -51.8378 H         1 UNK         0.0600 
    230 H230       -6.0847  -19.1078  -52.8741 H         1 UNK         0.3000 
    231 H231       -7.4583  -17.4074  -52.5714 H         1 UNK         0.0600 
    232 H232       -7.2370  -17.0390  -55.0465 H         1 UNK         0.0600 
    233 H233       -5.9389  -15.8825  -54.7527 H         1 UNK         0.0600 
    234 H234       -7.5656  -15.5500  -54.1770 H         1 UNK         0.0600 
    235 H235       -5.0433  -17.6596  -50.9687 H         1 UNK         0.3000 
    236 H236       -4.7562  -14.8787  -49.9006 H         1 UNK         0.0600 
    237 H237       -2.3187  -15.2925  -49.6875 H         1 UNK         0.0600 
    238 H238       -2.4968  -16.8768  -50.4313 H         1 UNK         0.0600 
    239 H239       -2.8061  -15.4189  -51.3675 H         1 UNK         0.0600 
    240 H240       -4.6018  -18.4172  -49.2778 H         1 UNK         0.3000 
    241 H241       -4.3738  -18.0030  -46.3795 H         1 UNK         0.0600 
    242 H242       -8.2824  -18.2241  -47.3113 H         1 UNK         0.3800 
    243 H243       -7.0734  -17.8235  -48.5028 H         1 UNK         0.3800 
    244 H244       -4.5634  -20.5317  -46.3075 H         1 UNK         0.0800 
    245 H245       -4.6189  -20.5564  -48.0462 H         1 UNK         0.0800 
    246 H246       -2.4954  -21.0118  -49.3732 H         1 UNK         0.0800 
    247 H247       -2.5276  -19.2628  -49.4754 H         1 UNK         0.0800 
@<TRIPOS>BOND
     1    1    2 1    
     2    1  127 1    
     3    1  128 1    
     4    1  129 1    
     5    2    3 2    
     6    2    4 am   BACKBONE|DICT|INTERRES
     7    4    5 1    
     8    4  130 1    
     9    5    6 1    
    10    5   65 1    
    11    5  131 1    
    12    6    7 1    
    13    6  132 1    
    14    6  133 1    
    15    7    8 1    
    16    8    9 1    
    17    8  134 1    
    18    8  135 1    
    19    9   10 ar   
    20    9   14 ar   
    21   10   11 ar   
    22   10  136 1    
    23   11   12 ar   
    24   11  126 1    
    25   12   13 ar   
    26   12  137 1    
    27   13   14 ar   
    28   13   15 1    
    29   14  138 1    
    30   15   16 1    
    31   15  139 1    
    32   15  140 1    
    33   16   17 1    
    34   17   18 1    
    35   17  141 1    
    36   17  142 1    
    37   18   19 1    
    38   18   67 1    
    39   18  143 1    
    40   19   20 am   BACKBONE|DICT|INTERRES
    41   19  144 1    
    42   20   21 2    
    43   20   22 1    
    44   22   23 1    
    45   22   24 1    
    46   22  145 1    
    47   23  146 1    
    48   23  147 1    
    49   23  148 1    
    50   24   25 am   BACKBONE|DICT|INTERRES
    51   24  149 1    
    52   25   26 2    
    53   25   27 1    
    54   27   28 1    
    55   27   29 1    
    56   27  150 1    
    57   28  151 1    
    58   28  152 1    
    59   28  153 1    
    60   29   30 am   BACKBONE|DICT|INTERRES
    61   29  154 1    
    62   30   31 2    
    63   30   32 1    
    64   32   33 1    
    65   32   34 1    
    66   32  155 1    
    67   33  156 1    
    68   33  157 1    
    69   33  158 1    
    70   34   35 am   BACKBONE|DICT|INTERRES
    71   34  159 1    
    72   35   36 2    
    73   35   37 1    
    74   37   38 1    
    75   37   39 1    
    76   37  160 1    
    77   38  161 1    
    78   38  162 1    
    79   38  163 1    
    80   39   40 am   BACKBONE|DICT|INTERRES
    81   39  164 1    
    82   40   41 2    
    83   40   42 1    
    84   42   43 1    
    85   42   44 1    
    86   42  165 1    
    87   43  166 1    
    88   43  167 1    
    89   43  168 1    
    90   44   45 am   BACKBONE|DICT|INTERRES
    91   44  169 1    
    92   45   46 2    
    93   45   47 1    
    94   47   48 1    
    95   47   49 1    
    96   47  170 1    
    97   48  171 1    
    98   48  172 1    
    99   48  173 1    
   100   49   50 am   BACKBONE|DICT|INTERRES
   101   49  174 1    
   102   50   51 2    
   103   50   52 1    
   104   52   53 1    
   105   52   54 1    
   106   52  175 1    
   107   53  176 1    
   108   53  177 1    
   109   53  178 1    
   110   54   55 am   BACKBONE|DICT|INTERRES
   111   54  179 1    
   112   55   56 2    
   113   55   57 1    
   114   57   58 1    
   115   57   59 1    
   116   57  180 1    
   117   58  181 1    
   118   58  182 1    
   119   58  183 1    
   120   59   60 am   BACKBONE|DICT|INTERRES
   121   59  184 1    
   122   60   61 2    
   123   60   62 1    
   124   62   63 1    
   125   62   64 1    
   126   62  185 1    
   127   63  186 1    
   128   63  187 1    
   129   63  188 1    
   130   64   65 am   BACKBONE|DICT|INTERRES
   131   64  189 1    
   132   65   66 2    
   133   67   68 2    
   134   67   69 am   BACKBONE|DICT|INTERRES
   135   69   70 1    
   136   69  190 1    
   137   70   71 1    
   138   70   72 1    
   139   70  191 1    
   140   71  192 1    
   141   71  193 1    
   142   71  194 1    
   143   72   73 2    
   144   72   74 am   BACKBONE|DICT|INTERRES
   145   74   75 1    
   146   74  195 1    
   147   75   76 1    
   148   75   77 1    
   149   75  196 1    
   150   76  197 1    
   151   76  198 1    
   152   76  199 1    
   153   77   78 2    
   154   77   79 am   BACKBONE|DICT|INTERRES
   155   79   80 1    
   156   79  200 1    
   157   80   81 1    
   158   80   82 1    
   159   80  201 1    
   160   81  202 1    
   161   81  203 1    
   162   81  204 1    
   163   82   83 2    
   164   82   84 am   BACKBONE|DICT|INTERRES
   165   84   85 1    
   166   84  205 1    
   167   85   86 1    
   168   85   87 1    
   169   85  206 1    
   170   86  207 1    
   171   86  208 1    
   172   86  209 1    
   173   87   88 2    
   174   87   89 am   BACKBONE|DICT|INTERRES
   175   89   90 1    
   176   89  210 1    
   177   90   91 1    
   178   90   92 1    
   179   90  211 1    
   180   91  212 1    
   181   91  213 1    
   182   91  214 1    
   183   92   93 2    
   184   92   94 am   BACKBONE|DICT|INTERRES
   185   94   95 1    
   186   94  215 1    
   187   95   96 1    
   188   95   97 1    
   189   95  216 1    
   190   96  217 1    
   191   96  218 1    
   192   96  219 1    
   193   97   98 2    
   194   97   99 am   BACKBONE|DICT|INTERRES
   195   99  100 1    
   196   99  220 1    
   197  100  101 1    
   198  100  102 1    
   199  100  221 1    
   200  101  222 1    
   201  101  223 1    
   202  101  224 1    
   203  102  103 2    
   204  102  104 am   BACKBONE|DICT|INTERRES
   205  104  105 1    
   206  104  225 1    
   207  105  106 1    
   208  105  107 1    
   209  105  226 1    
   210  106  227 1    
   211  106  228 1    
   212  106  229 1    
   213  107  108 2    
   214  107  109 am   BACKBONE|DICT|INTERRES
   215  109  110 1    
   216  109  230 1    
   217  110  111 1    
   218  110  112 1    
   219  110  231 1    
   220  111  232 1    
   221  111  233 1    
   222  111  234 1    
   223  112  113 2    
   224  112  114 am   BACKBONE|DICT|INTERRES
   225  114  115 1    
   226  114  235 1    
   227  115  116 1    
   228  115  117 1    
   229  115  236 1    
   230  116  237 1    
   231  116  238 1    
   232  116  239 1    
   233  117  118 2    
   234  117  119 am   BACKBONE|DICT|INTERRES
   235  119  120 1    
   236  119  240 1    
   237  120  121 1    
   238  120  124 1    
   239  120  241 1    
   240  121  122 am   BACKBONE|DICT|INTERRES
   241  121  123 2    
   242  122  242 1    
   243  122  243 1    
   244  124  125 1    
   245  124  244 1    
   246  124  245 1    
   247  125  126 1    
   248  126  246 1    
   249  126  247 1    
@<TRIPOS>SUBSTRUCTURE
     1 UNK         1 GROUP             0       ****    0 ROOT    
