@<TRIPOS>MOLECULE
3R540
247   249    1
SMALL
USER_CHARGES


@<TRIPOS>ATOM
      1 CA          4.0766  -20.7379  -48.6625 C.3       0 UNK        -0.1800 
      2 C           3.6630  -20.1018  -47.3432 C.2       0 UNK         0.5000 
      3 O           3.6081  -20.7909  -46.3250 O.2       0 UNK        -0.5000 
      4 N           3.3800  -18.7931  -47.3527 N.am      1 UNK        -0.5000 
      5 CA          3.1167  -17.9987  -46.1501 C.3       1 UNK         0.1400 
      6 C6          2.4055  -16.6616  -46.4785 C.3       23 UNK        -0.0398 
      7 S7          3.3668  -15.4964  -47.5077 S.3       23 UNK        -0.2404 
      8 C8          2.0483  -14.4219  -48.1747 C.3       23 UNK        -0.0205 
      9 C9          1.0868  -15.1239  -49.1328 C.ar      23 UNK        -0.0193 
     10 C10        -0.2734  -14.7921  -49.1141 C.ar      23 UNK        -0.1150 
     11 C11        -1.1757  -15.4255  -49.9759 C.ar      23 UNK        -0.0193 
     12 C12        -0.7044  -16.3862  -50.8714 C.ar      23 UNK        -0.1150 
     13 C13         0.6416  -16.7530  -50.8784 C.ar      23 UNK        -0.0193 
     14 C14         1.5381  -16.0974  -50.0326 C.ar      23 UNK        -0.1150 
     15 C15         1.1054  -17.9097  -51.7492 C.3       23 UNK        -0.0205 
     16 S16         1.4371  -19.4322  -50.7892 S.3       23 UNK        -0.2404 
     17 C17         0.2625  -19.3532  -49.3884 C.3       23 UNK        -0.0398 
     18 CA          0.0808  -20.7194  -48.6802 C.3       11 UNK         0.1400 
     19 N          -0.1292  -20.5718  -47.2366 N.am      11 UNK        -0.5000 
     20 C          -0.0491  -21.5826  -46.3557 C.2       10 UNK         0.5000 
     21 O           0.2629  -22.7306  -46.6681 O.2       10 UNK        -0.5000 
     22 CA         -0.4484  -21.2931  -44.8946 C.3       10 UNK         0.1400 
     23 CB          0.7820  -20.9852  -44.0314 C.3       10 UNK        -0.1800 
     24 N          -1.4269  -20.2121  -44.7755 N.am      10 UNK        -0.5000 
     25 C          -2.6817  -20.2926  -45.2442 C.2       9 UNK         0.5000 
     26 O          -3.1443  -21.3121  -45.7559 O.2       9 UNK        -0.5000 
     27 CA         -3.5585  -19.0268  -45.1850 C.3       9 UNK         0.1400 
     28 CB         -4.5439  -19.1136  -44.0105 C.3       9 UNK        -0.1800 
     29 N          -2.8162  -17.7683  -45.0894 N.am      9 UNK        -0.5000 
     30 C          -1.9123  -17.3191  -45.9716 C.2       8 UNK         0.5000 
     31 O          -1.5344  -17.9539  -46.9573 O.2       8 UNK        -0.5000 
     32 CA         -1.2770  -15.9565  -45.6422 C.3       8 UNK         0.1400 
     33 CB         -2.2199  -14.8153  -46.0452 C.3       8 UNK        -0.1800 
     34 N          -0.9104  -15.8000  -44.2304 N.am      8 UNK        -0.5000 
     35 C          -0.1309  -16.6330  -43.5219 C.2       7 UNK         0.5000 
     36 O           0.3600  -17.6613  -43.9897 O.2       7 UNK        -0.5000 
     37 CA          0.1585  -16.2688  -42.0531 C.3       7 UNK         0.1400 
     38 CB          1.6477  -16.4528  -41.7217 C.3       7 UNK        -0.1800 
     39 N          -0.2156  -14.8894  -41.7481 N.am      7 UNK        -0.5000 
     40 C          -1.2722  -14.5091  -41.0167 C.2       6 UNK         0.5000 
     41 O          -2.0647  -15.2970  -40.5006 O.2       6 UNK        -0.5000 
     42 CA         -1.4906  -12.9916  -40.8341 C.3       6 UNK         0.1400 
     43 CB         -0.9969  -12.5438  -39.4502 C.3       6 UNK        -0.1800 
     44 N          -0.8223  -12.1825  -41.8552 N.am      6 UNK        -0.5000 
     45 C          -1.1551  -12.1574  -43.1530 C.2       5 UNK         0.5000 
     46 O          -2.1309  -12.7483  -43.6111 O.2       5 UNK        -0.5000 
     47 CA         -0.2068  -11.3979  -44.1022 C.3       5 UNK         0.1400 
     48 CB         -0.7400   -9.9853  -44.3794 C.3       5 UNK        -0.1800 
     49 N           1.1663  -11.3059  -43.5935 N.am      5 UNK        -0.5000 
     50 C           1.9864  -12.3508  -43.4190 C.2       4 UNK         0.5000 
     51 O           1.6802  -13.5142  -43.6895 O.2       4 UNK        -0.5000 
     52 CA          3.3290  -12.0504  -42.7334 C.3       4 UNK         0.1400 
     53 CB          3.1994  -12.2659  -41.2179 C.3       4 UNK        -0.1800 
     54 N           4.4063  -12.8978  -43.2323 N.am      4 UNK        -0.5000 
     55 C           4.9683  -12.8138  -44.4415 C.2       3 UNK         0.5000 
     56 O           4.6386  -11.9816  -45.2872 O.2       3 UNK        -0.5000 
     57 CA          6.1049  -13.8054  -44.7622 C.3       3 UNK         0.1400 
     58 CB          7.4474  -13.3043  -44.1997 C.3       3 UNK        -0.1800 
     59 N           5.8542  -15.1990  -44.3697 N.am      3 UNK        -0.5000 
     60 C           5.6941  -15.7433  -43.1551 C.2       2 UNK         0.5000 
     61 O           5.7331  -15.0995  -42.1058 O.2       2 UNK        -0.5000 
     62 CA          5.4003  -17.2604  -43.1259 C.3       2 UNK         0.1400 
     63 CB          5.1006  -17.7865  -41.7104 C.3       2 UNK        -0.1800 
     64 N           4.2901  -17.6081  -44.0212 N.am      2 UNK        -0.5000 
     65 C           4.4141  -17.7797  -45.3433 C.2       1 UNK         0.5000 
     66 O           5.4986  -17.7076  -45.9288 O.2       1 UNK        -0.5000 
     67 C          -1.0528  -21.5454  -49.3193 C.2       11 UNK         0.5000 
     68 O          -0.7813  -22.4583  -50.0982 O.2       11 UNK        -0.5000 
     69 N          -2.3013  -21.2460  -48.9288 N.am      12 UNK        -0.5000 
     70 CA         -3.4956  -21.9824  -49.3433 C.3       12 UNK         0.1400 
     71 CB         -4.7537  -21.2045  -48.9307 C.3       12 UNK        -0.1800 
     72 C          -3.5172  -23.4193  -48.8000 C.2       12 UNK         0.5000 
     73 O          -3.8890  -24.3307  -49.5377 O.2       12 UNK        -0.5000 
     74 N          -3.0777  -23.6047  -47.5473 N.am      13 UNK        -0.5000 
     75 CA         -2.9160  -24.9137  -46.9143 C.3       13 UNK         0.1400 
     76 CB         -2.5830  -24.7380  -45.4258 C.3       13 UNK        -0.1800 
     77 C          -1.8542  -25.7786  -47.6180 C.2       13 UNK         0.5000 
     78 O          -2.1258  -26.9430  -47.9115 O.2       13 UNK        -0.5000 
     79 N          -0.6887  -25.1867  -47.9218 N.am      14 UNK        -0.5000 
     80 CA          0.4051  -25.8256  -48.6603 C.3       14 UNK         0.1400 
     81 CB          1.6352  -24.9046  -48.6606 C.3       14 UNK        -0.1800 
     82 C           0.0161  -26.2094  -50.1002 C.2       14 UNK         0.5000 
     83 O           0.4071  -27.2767  -50.5736 O.2       14 UNK        -0.5000 
     84 N          -0.7760  -25.3503  -50.7540 N.am      15 UNK        -0.5000 
     85 CA         -1.3409  -25.5766  -52.0841 C.3       15 UNK         0.1400 
     86 CB         -1.7391  -24.2200  -52.6838 C.3       15 UNK        -0.1800 
     87 C          -2.5520  -26.5318  -52.0937 C.2       15 UNK         0.5000 
     88 O          -3.0380  -26.8580  -53.1762 O.2       15 UNK        -0.5000 
     89 N          -3.0565  -26.9227  -50.9127 N.am      16 UNK        -0.5000 
     90 CA         -4.2654  -27.7265  -50.6864 C.3       16 UNK         0.1400 
     91 CB         -4.0348  -29.1843  -51.1339 C.3       16 UNK        -0.1800 
     92 C          -5.5302  -27.0954  -51.3134 C.2       16 UNK         0.5000 
     93 O          -6.3919  -27.8083  -51.8303 O.2       16 UNK        -0.5000 
     94 N          -5.5855  -25.7556  -51.2838 N.am      17 UNK        -0.5000 
     95 CA         -6.5917  -24.8669  -51.8736 C.3       17 UNK         0.1400 
     96 CB         -7.9652  -25.0739  -51.2037 C.3       17 UNK        -0.1800 
     97 C          -6.6793  -24.9083  -53.4172 C.2       17 UNK         0.5000 
     98 O          -7.6017  -24.3144  -53.9777 O.2       17 UNK        -0.5000 
     99 N          -5.7223  -25.5642  -54.0931 N.am      18 UNK        -0.5000 
    100 CA        -5.6331  -25.6131  -55.5576 C.3       18 UNK         0.1400 
    101 CB        -4.8251  -26.8511  -55.9755 C.3       18 UNK        -0.1800 
    102 C         -5.0137  -24.3346  -56.1581 C.2       18 UNK         0.5000 
    103 O         -5.1351  -24.1056  -57.3621 O.2       18 UNK        -0.5000 
    104 N         -4.3708  -23.5268  -55.3108 N.am      19 UNK        -0.5000 
    105 CA        -3.8008  -22.2203  -55.6047 C.3       19 UNK         0.1400 
    106 CB        -2.3641  -22.3801  -56.1369 C.3       19 UNK        -0.1800 
    107 C         -3.8559  -21.3817  -54.3172 C.2       19 UNK         0.5000 
    108 O         -4.2743  -21.8907  -53.2709 O.2       19 UNK        -0.5000 
    109 N         -3.4363  -20.1133  -54.4235 N.am      20 UNK        -0.5000 
    110 CA        -3.4757  -19.0707  -53.3933 C.3       20 UNK         0.1400 
    111 CB        -2.6220  -19.4389  -52.1609 C.3       20 UNK        -0.1800 
    112 C         -4.9233  -18.6799  -53.0432 C.2       20 UNK         0.5000 
    113 O         -5.4294  -17.7119  -53.6135 O.2       20 UNK        -0.5000 
    114 N         -5.5584  -19.4513  -52.1457 N.am      21 UNK        -0.5000 
    115 CA        -6.9466  -19.3198  -51.6801 C.3       21 UNK         0.1400 
    116 CB        -7.9179  -19.7911  -52.7817 C.3       21 UNK        -0.1800 
    117 C         -7.2675  -17.9044  -51.1489 C.2       21 UNK         0.5000 
    118 O         -8.2430  -17.2820  -51.5740 O.2       21 UNK        -0.5000 
    119 N         -6.3847  -17.4162  -50.2687 N.am      22 UNK        -0.5000 
    120 CA        -6.3361  -16.0490  -49.7271 C.3       22 UNK         0.1400 
    121 C         -7.6597  -15.5777  -49.0613 C.2       22 UNK         0.5000 
    122 N         -8.0684  -14.3366  -49.2860 N.am      22 UNK        -0.7600 
    123 O         -8.2901  -16.3116  -48.3031 O.2       22 UNK        -0.5000 
    124 C124       -5.1590  -15.8760  -48.7308 C.3       23 UNK        -0.0398 
    125 S125       -3.5805  -16.5810  -49.3177 S.3       23 UNK        -0.2404 
    126 C126       -2.6662  -15.1218  -49.9148 C.3       23 UNK        -0.0205 
    127 H127        3.3729  -21.5207  -48.9436 H         1 UNK         0.0600 
    128 H128        5.0645  -21.1881  -48.5660 H         1 UNK         0.0600 
    129 H129        4.1175  -20.0065  -49.4694 H         1 UNK         0.0600 
    130 H130        3.4834  -18.2648  -48.2068 H         1 UNK         0.3000 
    131 H131        2.4359  -18.5737  -45.5237 H         1 UNK         0.0600 
    132 H132        2.1231  -16.1448  -45.5598 H         1 UNK         0.0800 
    133 H133        1.4732  -16.8917  -46.9931 H         1 UNK         0.0800 
    134 H134        1.5033  -13.9870  -47.3350 H         1 UNK         0.0800 
    135 H135        2.5139  -13.5904  -48.7046 H         1 UNK         0.0800 
    136 H136       -0.6323  -14.0468  -48.4190 H         1 UNK         0.1150 
    137 H137       -1.4013  -16.8854  -51.5271 H         1 UNK         0.1150 
    138 H138        2.5812  -16.3784  -50.0526 H         1 UNK         0.1150 
    139 H139        0.3641  -18.1296  -52.5178 H         1 UNK         0.0800 
    140 H140        2.0131  -17.6227  -52.2816 H         1 UNK         0.0800 
    141 H141       -0.6940  -18.9425  -49.7162 H         1 UNK         0.0800 
    142 H142        0.6673  -18.6232  -48.6864 H         1 UNK         0.0800 
    143 H143        1.0011  -21.2942  -48.7981 H         1 UNK         0.0600 
    144 H144       -0.4561  -19.6644  -46.9201 H         1 UNK         0.3000 
    145 H145       -0.9089  -22.1977  -44.4949 H         1 UNK         0.0600 
    146 H146        0.5065  -20.8323  -42.9879 H         1 UNK         0.0600 
    147 H147        1.4963  -21.8088  -44.0647 H         1 UNK         0.0600 
    148 H148        1.3010  -20.0937  -44.3745 H         1 UNK         0.0600 
    149 H149       -1.0896  -19.3307  -44.4083 H         1 UNK         0.3000 
    150 H150       -4.1336  -18.9941  -46.1129 H         1 UNK         0.0600 
    151 H151       -5.1362  -20.0283  -44.0631 H         1 UNK         0.0600 
    152 H152       -5.2423  -18.2766  -44.0175 H         1 UNK         0.0600 
    153 H153       -4.0257  -19.1124  -43.0506 H         1 UNK         0.0600 
    154 H154       -3.0281  -17.1839  -44.2941 H         1 UNK         0.3000 
    155 H155       -0.3697  -15.8622  -46.2366 H         1 UNK         0.0600 
    156 H156       -2.5980  -14.9558  -47.0550 H         1 UNK         0.0600 
    157 H157       -1.7052  -13.8552  -46.0261 H         1 UNK         0.0600 
    158 H158       -3.0839  -14.7501  -45.3831 H         1 UNK         0.0600 
    159 H159       -1.2657  -14.9738  -43.7684 H         1 UNK         0.3000 
    160 H160       -0.4119  -16.9653  -41.4355 H         1 UNK         0.0600 
    161 H161        2.2835  -15.8443  -42.3657 H         1 UNK         0.0600 
    162 H162        1.9457  -17.4946  -41.8434 H         1 UNK         0.0600 
    163 H163        1.8587  -16.1772  -40.6888 H         1 UNK         0.0600 
    164 H164        0.3647  -14.1812  -42.1826 H         1 UNK         0.3000 
    165 H165       -2.5641  -12.8024  -40.8958 H         1 UNK         0.0600 
    166 H166       -1.2029  -11.4870  -39.2799 H         1 UNK         0.0600 
    167 H167       -1.4964  -13.1022  -38.6578 H         1 UNK         0.0600 
    168 H168        0.0763  -12.7006  -39.3358 H         1 UNK         0.0600 
    169 H169       -0.0140  -11.6569  -41.5590 H         1 UNK         0.3000 
    170 H170       -0.1797  -11.9463  -45.0459 H         1 UNK         0.0600 
    171 H171       -1.7514  -10.0225  -44.7859 H         1 UNK         0.0600 
    172 H172       -0.7735   -9.3816  -43.4720 H         1 UNK         0.0600 
    173 H173       -0.1180   -9.4650  -45.1075 H         1 UNK         0.0600 
    174 H174        1.4866  -10.3832  -43.3365 H         1 UNK         0.3000 
    175 H175        3.6000  -11.0095  -42.9191 H         1 UNK         0.0600 
    176 H176        2.9361  -13.2973  -40.9799 H         1 UNK         0.0600 
    177 H177        4.1335  -12.0338  -40.7065 H         1 UNK         0.0600 
    178 H178        2.4287  -11.6232  -40.7918 H         1 UNK         0.0600 
    179 H179        4.7453  -13.6295  -42.6135 H         1 UNK         0.3000 
    180 H180        6.1955  -13.8256  -45.8488 H         1 UNK         0.0600 
    181 H181        7.4396  -13.2520  -43.1113 H         1 UNK         0.0600 
    182 H182        7.6756  -12.3044  -44.5713 H         1 UNK         0.0600 
    183 H183        8.2672  -13.9568  -44.4979 H         1 UNK         0.0600 
    184 H184        5.7802  -15.8449  -45.1488 H         1 UNK         0.3000 
    185 H185        6.3055  -17.7660  -43.4692 H         1 UNK         0.0600 
    186 H186        5.9654  -17.6547  -41.0585 H         1 UNK         0.0600 
    187 H187        4.2664  -17.2618  -41.2473 H         1 UNK         0.0600 
    188 H188        4.8657  -18.8511  -41.7235 H         1 UNK         0.0600 
    189 H189        3.3721  -17.6513  -43.6030 H         1 UNK         0.3000 
    190 H190       -2.4334  -20.5076  -48.2530 H         1 UNK         0.3000 
    191 H191       -3.4895  -22.0620  -50.4308 H         1 UNK         0.0600 
    192 H192       -4.8413  -21.1206  -47.8473 H         1 UNK         0.0600 
    193 H193       -5.6537  -21.7021  -49.2939 H         1 UNK         0.0600 
    194 H194       -4.7469  -20.1959  -49.3434 H         1 UNK         0.0600 
    195 H195       -2.8632  -22.7896  -46.9806 H         1 UNK         0.3000 
    196 H196       -3.8732  -25.4344  -46.9864 H         1 UNK         0.0600 
    197 H197       -2.5614  -25.7026  -44.9173 H         1 UNK         0.0600 
    198 H198       -3.3271  -24.1203  -44.9227 H         1 UNK         0.0600 
    199 H199       -1.6079  -24.2742  -45.2834 H         1 UNK         0.0600 
    200 H200       -0.5215  -24.2344  -47.6084 H         1 UNK         0.3000 
    201 H201        0.6690  -26.7448  -48.1334 H         1 UNK         0.0600 
    202 H202        1.9799  -24.7074  -47.6454 H         1 UNK         0.0600 
    203 H203        1.4199  -23.9451  -49.1323 H         1 UNK         0.0600 
    204 H204        2.4654  -25.3591  -49.2025 H         1 UNK         0.0600 
    205 H205       -0.9928  -24.4588  -50.3190 H         1 UNK         0.3000 
    206 H206       -0.5728  -26.0187  -52.7216 H         1 UNK         0.0600 
    207 H207       -0.8833  -23.5482  -52.7521 H         1 UNK         0.0600 
    208 H208       -2.1368  -24.3436  -53.6904 H         1 UNK         0.0600 
    209 H209       -2.5054  -23.7262  -52.0854 H         1 UNK         0.0600 
    210 H210       -2.6058  -26.5811  -50.0732 H         1 UNK         0.3000 
    211 H211       -4.4304  -27.7315  -49.6081 H         1 UNK         0.0600 
    212 H212       -3.9157  -29.2622  -52.2151 H         1 UNK         0.0600 
    213 H213       -4.8756  -29.8185  -50.8506 H         1 UNK         0.0600 
    214 H214       -3.1428  -29.6022  -50.6671 H         1 UNK         0.0600 
    215 H215       -4.8380  -25.2766  -50.7828 H         1 UNK         0.3000 
    216 H216       -6.2608  -23.8560  -51.6297 H         1 UNK         0.0600 
    217 H217       -8.6759  -24.3097  -51.5206 H         1 UNK         0.0600 
    218 H218       -7.8875  -25.0105  -50.1182 H         1 UNK         0.0600 
    219 H219       -8.3964  -26.0433  -51.4544 H         1 UNK         0.0600 
    220 H220       -4.9863  -26.0377  -53.5811 H         1 UNK         0.3000 
    221 H221       -6.6401  -25.7165  -55.9671 H         1 UNK         0.0600 
    222 H222       -3.7769  -26.7647  -55.6887 H         1 UNK         0.0600 
    223 H223       -5.2253  -27.7584  -55.5225 H         1 UNK         0.0600 
    224 H224       -4.8547  -26.9862  -57.0574 H         1 UNK         0.0600 
    225 H225       -4.3883  -23.7481  -54.3234 H         1 UNK         0.3000 
    226 H226       -4.4160  -21.7206  -56.3557 H         1 UNK         0.0600 
    227 H227       -2.3352  -23.0381  -57.0056 H         1 UNK         0.0600 
    228 H228       -1.9497  -21.4210  -56.4487 H         1 UNK         0.0600 
    229 H229       -1.6950  -22.7938  -55.3828 H         1 UNK         0.0600 
    230 H230       -3.1297  -19.7949  -55.3323 H         1 UNK         0.3000 
    231 H231       -3.0197  -18.1840  -53.8377 H         1 UNK         0.0600 
    232 H232       -1.5650  -19.4849  -52.4187 H         1 UNK         0.0600 
    233 H233       -2.8881  -20.4030  -51.7403 H         1 UNK         0.0600 
    234 H234       -2.7375  -18.7034  -51.3658 H         1 UNK         0.0600 
    235 H235       -5.0617  -20.2728  -51.8250 H         1 UNK         0.3000 
    236 H236       -7.0582  -19.9982  -50.8330 H         1 UNK         0.0600 
    237 H237       -8.9480  -19.7875  -52.4237 H         1 UNK         0.0600 
    238 H238       -7.8731  -19.1485  -53.6618 H         1 UNK         0.0600 
    239 H239       -7.6881  -20.8089  -53.0986 H         1 UNK         0.0600 
    240 H240       -5.6045  -17.9994  -50.0062 H         1 UNK         0.3000 
    241 H241       -6.1423  -15.3992  -50.5825 H         1 UNK         0.0600 
    242 H242       -8.9169  -14.0147  -48.8468 H         1 UNK         0.3800 
    243 H243       -7.5641  -13.7138  -49.8983 H         1 UNK         0.3800 
    244 H244       -5.0195  -14.8218  -48.4854 H         1 UNK         0.0800 
    245 H245       -5.3899  -16.3732  -47.7864 H         1 UNK         0.0800 
    246 H246       -2.8547  -14.2638  -49.2691 H         1 UNK         0.0800 
    247 H247       -3.0281  -14.8498  -50.9071 H         1 UNK         0.0800 
@<TRIPOS>BOND
     1    1    2 1    
     2    1  127 1    
     3    1  128 1    
     4    1  129 1    
     5    2    3 2    
     6    2    4 am   BACKBONE|DICT|INTERRES
     7    4    5 1    
     8    4  130 1    
     9    5    6 1    
    10    5   65 1    
    11    5  131 1    
    12    6    7 1    
    13    6  132 1    
    14    6  133 1    
    15    7    8 1    
    16    8    9 1    
    17    8  134 1    
    18    8  135 1    
    19    9   10 ar   
    20    9   14 ar   
    21   10   11 ar   
    22   10  136 1    
    23   11   12 ar   
    24   11  126 1    
    25   12   13 ar   
    26   12  137 1    
    27   13   14 ar   
    28   13   15 1    
    29   14  138 1    
    30   15   16 1    
    31   15  139 1    
    32   15  140 1    
    33   16   17 1    
    34   17   18 1    
    35   17  141 1    
    36   17  142 1    
    37   18   19 1    
    38   18   67 1    
    39   18  143 1    
    40   19   20 am   BACKBONE|DICT|INTERRES
    41   19  144 1    
    42   20   21 2    
    43   20   22 1    
    44   22   23 1    
    45   22   24 1    
    46   22  145 1    
    47   23  146 1    
    48   23  147 1    
    49   23  148 1    
    50   24   25 am   BACKBONE|DICT|INTERRES
    51   24  149 1    
    52   25   26 2    
    53   25   27 1    
    54   27   28 1    
    55   27   29 1    
    56   27  150 1    
    57   28  151 1    
    58   28  152 1    
    59   28  153 1    
    60   29   30 am   BACKBONE|DICT|INTERRES
    61   29  154 1    
    62   30   31 2    
    63   30   32 1    
    64   32   33 1    
    65   32   34 1    
    66   32  155 1    
    67   33  156 1    
    68   33  157 1    
    69   33  158 1    
    70   34   35 am   BACKBONE|DICT|INTERRES
    71   34  159 1    
    72   35   36 2    
    73   35   37 1    
    74   37   38 1    
    75   37   39 1    
    76   37  160 1    
    77   38  161 1    
    78   38  162 1    
    79   38  163 1    
    80   39   40 am   BACKBONE|DICT|INTERRES
    81   39  164 1    
    82   40   41 2    
    83   40   42 1    
    84   42   43 1    
    85   42   44 1    
    86   42  165 1    
    87   43  166 1    
    88   43  167 1    
    89   43  168 1    
    90   44   45 am   BACKBONE|DICT|INTERRES
    91   44  169 1    
    92   45   46 2    
    93   45   47 1    
    94   47   48 1    
    95   47   49 1    
    96   47  170 1    
    97   48  171 1    
    98   48  172 1    
    99   48  173 1    
   100   49   50 am   BACKBONE|DICT|INTERRES
   101   49  174 1    
   102   50   51 2    
   103   50   52 1    
   104   52   53 1    
   105   52   54 1    
   106   52  175 1    
   107   53  176 1    
   108   53  177 1    
   109   53  178 1    
   110   54   55 am   BACKBONE|DICT|INTERRES
   111   54  179 1    
   112   55   56 2    
   113   55   57 1    
   114   57   58 1    
   115   57   59 1    
   116   57  180 1    
   117   58  181 1    
   118   58  182 1    
   119   58  183 1    
   120   59   60 am   BACKBONE|DICT|INTERRES
   121   59  184 1    
   122   60   61 2    
   123   60   62 1    
   124   62   63 1    
   125   62   64 1    
   126   62  185 1    
   127   63  186 1    
   128   63  187 1    
   129   63  188 1    
   130   64   65 am   BACKBONE|DICT|INTERRES
   131   64  189 1    
   132   65   66 2    
   133   67   68 2    
   134   67   69 am   BACKBONE|DICT|INTERRES
   135   69   70 1    
   136   69  190 1    
   137   70   71 1    
   138   70   72 1    
   139   70  191 1    
   140   71  192 1    
   141   71  193 1    
   142   71  194 1    
   143   72   73 2    
   144   72   74 am   BACKBONE|DICT|INTERRES
   145   74   75 1    
   146   74  195 1    
   147   75   76 1    
   148   75   77 1    
   149   75  196 1    
   150   76  197 1    
   151   76  198 1    
   152   76  199 1    
   153   77   78 2    
   154   77   79 am   BACKBONE|DICT|INTERRES
   155   79   80 1    
   156   79  200 1    
   157   80   81 1    
   158   80   82 1    
   159   80  201 1    
   160   81  202 1    
   161   81  203 1    
   162   81  204 1    
   163   82   83 2    
   164   82   84 am   BACKBONE|DICT|INTERRES
   165   84   85 1    
   166   84  205 1    
   167   85   86 1    
   168   85   87 1    
   169   85  206 1    
   170   86  207 1    
   171   86  208 1    
   172   86  209 1    
   173   87   88 2    
   174   87   89 am   BACKBONE|DICT|INTERRES
   175   89   90 1    
   176   89  210 1    
   177   90   91 1    
   178   90   92 1    
   179   90  211 1    
   180   91  212 1    
   181   91  213 1    
   182   91  214 1    
   183   92   93 2    
   184   92   94 am   BACKBONE|DICT|INTERRES
   185   94   95 1    
   186   94  215 1    
   187   95   96 1    
   188   95   97 1    
   189   95  216 1    
   190   96  217 1    
   191   96  218 1    
   192   96  219 1    
   193   97   98 2    
   194   97   99 am   BACKBONE|DICT|INTERRES
   195   99  100 1    
   196   99  220 1    
   197  100  101 1    
   198  100  102 1    
   199  100  221 1    
   200  101  222 1    
   201  101  223 1    
   202  101  224 1    
   203  102  103 2    
   204  102  104 am   BACKBONE|DICT|INTERRES
   205  104  105 1    
   206  104  225 1    
   207  105  106 1    
   208  105  107 1    
   209  105  226 1    
   210  106  227 1    
   211  106  228 1    
   212  106  229 1    
   213  107  108 2    
   214  107  109 am   BACKBONE|DICT|INTERRES
   215  109  110 1    
   216  109  230 1    
   217  110  111 1    
   218  110  112 1    
   219  110  231 1    
   220  111  232 1    
   221  111  233 1    
   222  111  234 1    
   223  112  113 2    
   224  112  114 am   BACKBONE|DICT|INTERRES
   225  114  115 1    
   226  114  235 1    
   227  115  116 1    
   228  115  117 1    
   229  115  236 1    
   230  116  237 1    
   231  116  238 1    
   232  116  239 1    
   233  117  118 2    
   234  117  119 am   BACKBONE|DICT|INTERRES
   235  119  120 1    
   236  119  240 1    
   237  120  121 1    
   238  120  124 1    
   239  120  241 1    
   240  121  122 am   BACKBONE|DICT|INTERRES
   241  121  123 2    
   242  122  242 1    
   243  122  243 1    
   244  124  125 1    
   245  124  244 1    
   246  124  245 1    
   247  125  126 1    
   248  126  246 1    
   249  126  247 1    
@<TRIPOS>SUBSTRUCTURE
     1 UNK         1 GROUP             0       ****    0 ROOT    
