@<TRIPOS>MOLECULE
3R540
247   249    1
SMALL
USER_CHARGES


@<TRIPOS>ATOM
      1 CA          3.4658  -16.5916  -46.8418 C.3       0 UNK        -0.1800 
      2 C           2.3081  -15.6291  -47.0631 C.2       0 UNK         0.5000 
      3 O           1.7496  -15.1153  -46.0964 O.2       0 UNK        -0.5000 
      4 N           1.9578  -15.3734  -48.3310 N.am      1 UNK        -0.5000 
      5 CA          0.8196  -14.5478  -48.7651 C.3       1 UNK         0.1400 
      6 C6          0.7071  -14.5262  -50.3117 C.3       23 UNK        -0.0398 
      7 S7         -0.9994  -14.2420  -50.8942 S.3       23 UNK        -0.2404 
      8 C8         -1.3336  -15.7588  -51.8430 C.3       23 UNK        -0.0205 
      9 C9         -1.5087  -16.9747  -50.9461 C.ar      23 UNK        -0.0193 
     10 C10        -2.7341  -17.2065  -50.3154 C.ar      23 UNK        -0.1150 
     11 C11        -2.9278  -18.3522  -49.5393 C.ar      23 UNK        -0.0193 
     12 C12        -1.8768  -19.2601  -49.3820 C.ar      23 UNK        -0.1150 
     13 C13        -0.6390  -19.0290  -49.9888 C.ar      23 UNK        -0.0193 
     14 C14        -0.4633  -17.8875  -50.7753 C.ar      23 UNK        -0.1150 
     15 C15         0.4890  -20.0392  -49.8490 C.3       23 UNK        -0.0205 
     16 S16         1.7350  -19.5582  -48.6089 S.3       23 UNK        -0.2404 
     17 C17         0.8288  -19.6488  -47.0272 C.3       23 UNK        -0.0398 
     18 CA          0.6881  -21.0953  -46.4725 C.3       11 UNK         0.1400 
     19 N           0.9184  -21.1725  -45.0251 N.am      11 UNK        -0.5000 
     20 C           0.9818  -22.3082  -44.3125 C.2       10 UNK         0.5000 
     21 O           0.9481  -23.4317  -44.8138 O.2       10 UNK        -0.5000 
     22 CA          1.0405  -22.1711  -42.7791 C.3       10 UNK         0.1400 
     23 CB          2.4833  -21.9665  -42.2938 C.3       10 UNK        -0.1800 
     24 N           0.1868  -21.0889  -42.2855 N.am      10 UNK        -0.5000 
     25 C          -1.1531  -21.1009  -42.3484 C.2       9 UNK         0.5000 
     26 O          -1.8090  -22.0648  -42.7437 O.2       9 UNK        -0.5000 
     27 CA         -1.8855  -19.8100  -41.9369 C.3       9 UNK         0.1400 
     28 CB         -2.1185  -19.7795  -40.4193 C.3       9 UNK        -0.1800 
     29 N          -1.1835  -18.5949  -42.3557 N.am      9 UNK        -0.5000 
     30 C          -0.9626  -18.2423  -43.6311 C.2       8 UNK         0.5000 
     31 O          -1.3703  -18.8861  -44.5969 O.2       8 UNK        -0.5000 
     32 CA         -0.0809  -17.0038  -43.8711 C.3       8 UNK         0.1400 
     33 CB         -0.8826  -15.7063  -43.6974 C.3       8 UNK        -0.1800 
     34 N           1.0890  -16.9828  -42.9947 N.am      8 UNK        -0.5000 
     35 C           2.0688  -17.8954  -43.0135 C.2       7 UNK         0.5000 
     36 O           2.1208  -18.8215  -43.8211 O.2       7 UNK        -0.5000 
     37 CA          3.1337  -17.7956  -41.9089 C.3       7 UNK         0.1400 
     38 CB          4.2435  -16.8056  -42.2872 C.3       7 UNK        -0.1800 
     39 N           2.5500  -17.4094  -40.6252 N.am      7 UNK        -0.5000 
     40 C           1.8059  -18.2185  -39.8601 C.2       6 UNK         0.5000 
     41 O           1.5647  -19.3922  -40.1425 O.2       6 UNK        -0.5000 
     42 CA          1.2064  -17.6009  -38.5825 C.3       6 UNK         0.1400 
     43 CB          2.2312  -17.6227  -37.4386 C.3       6 UNK        -0.1800 
     44 N           0.7321  -16.2295  -38.7822 N.am      6 UNK        -0.5000 
     45 C          -0.3190  -15.9020  -39.5463 C.2       5 UNK         0.5000 
     46 O          -1.0080  -16.7261  -40.1457 O.2       5 UNK        -0.5000 
     47 CA         -0.6297  -14.4010  -39.7071 C.3       5 UNK         0.1400 
     48 CB         -1.5086  -13.9085  -38.5477 C.3       5 UNK        -0.1800 
     49 N           0.5493  -13.5345  -39.8237 N.am      5 UNK        -0.5000 
     50 C           1.5360  -13.6827  -40.7179 C.2       4 UNK         0.5000 
     51 O           1.6288  -14.6495  -41.4759 O.2       4 UNK        -0.5000 
     52 CA          2.6199  -12.5868  -40.7348 C.3       4 UNK         0.1400 
     53 CB          3.6018  -12.7954  -39.5708 C.3       4 UNK        -0.1800 
     54 N           3.3818  -12.5703  -41.9862 N.am      4 UNK        -0.5000 
     55 C           2.8776  -12.3114  -43.2007 C.2       3 UNK         0.5000 
     56 O           1.7153  -11.9425  -43.3922 O.2       3 UNK        -0.5000 
     57 CA          3.8516  -12.4898  -44.3841 C.3       3 UNK         0.1400 
     58 CB          4.5173  -13.8768  -44.3794 C.3       3 UNK        -0.1800 
     59 N           3.1772  -12.3132  -45.6688 N.am      3 UNK        -0.5000 
     60 C           3.0249  -11.1415  -46.2991 C.2       2 UNK         0.5000 
     61 O           3.4630  -10.0762  -45.8605 O.2       2 UNK        -0.5000 
     62 CA          2.2889  -11.1528  -47.6549 C.3       2 UNK         0.1400 
     63 CB          3.0908  -10.3958  -48.7285 C.3       2 UNK        -0.1800 
     64 N           2.0409  -12.5123  -48.1422 N.am      2 UNK        -0.5000 
     65 C           0.8421  -13.1068  -48.2012 C.2       1 UNK         0.5000 
     66 O          -0.2063  -12.5770  -47.8300 O.2       1 UNK        -0.5000 
     67 C          -0.6802  -21.7002  -46.8464 C.2       11 UNK         0.5000 
     68 O          -0.7505  -22.5466  -47.7360 O.2       11 UNK        -0.5000 
     69 N          -1.7296  -21.2856  -46.1201 N.am      12 UNK        -0.5000 
     70 CA         -3.1353  -21.6666  -46.3002 C.3       12 UNK         0.1400 
     71 CB         -4.0084  -20.7991  -45.3797 C.3       12 UNK        -0.1800 
     72 C          -3.4602  -23.1640  -46.1174 C.2       12 UNK         0.5000 
     73 O          -4.5986  -23.5626  -46.3685 O.2       12 UNK        -0.5000 
     74 N          -2.4694  -23.9810  -45.7329 N.am      13 UNK        -0.5000 
     75 CA         -2.5133  -25.4405  -45.8346 C.3       13 UNK         0.1400 
     76 CB         -1.2713  -26.0293  -45.1503 C.3       13 UNK        -0.1800 
     77 C          -2.6123  -25.9304  -47.2972 C.2       13 UNK         0.5000 
     78 O          -3.1436  -27.0165  -47.5322 O.2       13 UNK        -0.5000 
     79 N          -2.1326  -25.1147  -48.2463 N.am      14 UNK        -0.5000 
     80 CA         -2.3397  -25.2671  -49.6806 C.3       14 UNK         0.1400 
     81 CB         -0.9733  -25.2549  -50.3824 C.3       14 UNK        -0.1800 
     82 C          -3.2067  -24.0975  -50.1740 C.2       14 UNK         0.5000 
     83 O          -3.0579  -22.9728  -49.6912 O.2       14 UNK        -0.5000 
     84 N          -4.0793  -24.3700  -51.1503 N.am      15 UNK        -0.5000 
     85 CA         -4.9703  -23.3883  -51.7693 C.3       15 UNK         0.1400 
     86 CB         -6.1066  -24.1408  -52.4834 C.3       15 UNK        -0.1800 
     87 C          -4.1855  -22.4775  -52.7301 C.2       15 UNK         0.5000 
     88 O          -4.0975  -22.7817  -53.9219 O.2       15 UNK        -0.5000 
     89 N          -3.5836  -21.4151  -52.1792 N.am      16 UNK        -0.5000 
     90 CA         -2.7407  -20.4213  -52.8515 C.3       16 UNK         0.1400 
     91 CB         -3.5687  -19.5788  -53.8391 C.3       16 UNK        -0.1800 
     92 C          -1.4945  -21.0593  -53.4927 C.2       16 UNK         0.5000 
     93 O          -1.2196  -20.8350  -54.6707 O.2       16 UNK        -0.5000 
     94 N          -0.7989  -21.8988  -52.7095 N.am      17 UNK        -0.5000 
     95 CA          0.3395  -22.7333  -53.1231 C.3       17 UNK         0.1400 
     96 CB          1.5558  -21.8695  -53.5206 C.3       17 UNK        -0.1800 
     97 C          -0.0483  -23.7652  -54.2070 C.2       17 UNK         0.5000 
     98 O           0.7436  -24.0536  -55.1053 O.2       17 UNK        -0.5000 
     99 N          -1.2760  -24.2927  -54.0878 N.am      18 UNK        -0.5000 
    100 CA        -1.9325  -25.2584  -54.9747 C.3       18 UNK         0.1400 
    101 CB        -1.1442  -26.5827  -55.0552 C.3       18 UNK        -0.1800 
    102 C         -2.3043  -24.6822  -56.3582 C.2       18 UNK         0.5000 
    103 O         -2.4593  -25.4419  -57.3157 O.2       18 UNK        -0.5000 
    104 N         -2.4967  -23.3573  -56.4333 N.am      19 UNK        -0.5000 
    105 CA        -3.0678  -22.6646  -57.5921 C.3       19 UNK         0.1400 
    106 CB        -2.6271  -21.1935  -57.5723 C.3       19 UNK        -0.1800 
    107 C         -4.6075  -22.7688  -57.6487 C.2       19 UNK         0.5000 
    108 O         -5.1898  -22.4180  -58.6754 O.2       19 UNK        -0.5000 
    109 N         -5.2275  -23.2469  -56.5579 N.am      20 UNK        -0.5000 
    110 CA        -6.6652  -23.4266  -56.3412 C.3       20 UNK         0.1400 
    111 CB        -7.2943  -24.3653  -57.3931 C.3       20 UNK        -0.1800 
    112 C         -7.3881  -22.0750  -56.1984 C.2       20 UNK         0.5000 
    113 O         -8.3668  -21.8074  -56.8985 O.2       20 UNK        -0.5000 
    114 N         -6.8798  -21.2483  -55.2792 N.am      21 UNK        -0.5000 
    115 CA        -7.4416  -19.9564  -54.8952 C.3       21 UNK         0.1400 
    116 CB        -6.7713  -18.8404  -55.7205 C.3       21 UNK        -0.1800 
    117 C         -7.2893  -19.7610  -53.3746 C.2       21 UNK         0.5000 
    118 O         -6.9112  -20.7000  -52.6742 O.2       21 UNK        -0.5000 
    119 N         -7.6170  -18.5548  -52.8973 N.am      22 UNK        -0.5000 
    120 CA        -7.5656  -18.0877  -51.4971 C.3       22 UNK         0.1400 
    121 C         -8.6056  -18.7109  -50.5143 C.2       22 UNK         0.5000 
    122 N         -9.4774  -19.6131  -50.9466 N.am      22 UNK        -0.7600 
    123 O         -8.6624  -18.3255  -49.3495 O.2       22 UNK        -0.5000 
    124 C124       -6.1165  -17.9639  -50.9276 C.3       23 UNK        -0.0398 
    125 S125       -5.4389  -19.4130  -50.0324 S.3       23 UNK        -0.2404 
    126 C126       -4.2724  -18.6187  -48.8809 C.3       23 UNK        -0.0205 
    127 H127        3.2144  -17.3078  -46.0595 H         1 UNK         0.0600 
    128 H128        3.7040  -17.1506  -47.7469 H         1 UNK         0.0600 
    129 H129        4.3564  -16.0466  -46.5316 H         1 UNK         0.0600 
    130 H130        2.4738  -15.8257  -49.0719 H         1 UNK         0.3000 
    131 H131       -0.0688  -15.0389  -48.3614 H         1 UNK         0.0600 
    132 H132        1.3601  -13.7693  -50.7506 H         1 UNK         0.0800 
    133 H133        1.0564  -15.4717  -50.7252 H         1 UNK         0.0800 
    134 H134       -0.5342  -15.9234  -52.5674 H         1 UNK         0.0800 
    135 H135       -2.2423  -15.6112  -52.4284 H         1 UNK         0.0800 
    136 H136       -3.5429  -16.5015  -50.4448 H         1 UNK         0.1150 
    137 H137       -2.0309  -20.1579  -48.8033 H         1 UNK         0.1150 
    138 H138        0.4846  -17.7219  -51.2673 H         1 UNK         0.1150 
    139 H139        0.0973  -21.0303  -49.6253 H         1 UNK         0.0800 
    140 H140        0.9927  -20.1361  -50.8103 H         1 UNK         0.0800 
    141 H141       -0.1277  -19.1304  -47.1133 H         1 UNK         0.0800 
    142 H142        1.4068  -19.0417  -46.3313 H         1 UNK         0.0800 
    143 H143        1.4560  -21.7222  -46.9309 H         1 UNK         0.0600 
    144 H144        1.0299  -20.2907  -44.5343 H         1 UNK         0.3000 
    145 H145        0.6741  -23.1061  -42.3499 H         1 UNK         0.0600 
    146 H146        2.5289  -21.9061  -41.2063 H         1 UNK         0.0600 
    147 H147        3.1171  -22.7993  -42.6005 H         1 UNK         0.0600 
    148 H148        2.9240  -21.0561  -42.6980 H         1 UNK         0.0600 
    149 H149        0.6522  -20.2815  -41.8883 H         1 UNK         0.3000 
    150 H150       -2.8609  -19.8125  -42.4267 H         1 UNK         0.0600 
    151 H151       -2.6460  -20.6742  -40.0863 H         1 UNK         0.0600 
    152 H152       -2.7242  -18.9202  -40.1314 H         1 UNK         0.0600 
    153 H153       -1.1793  -19.7268  -39.8683 H         1 UNK         0.0600 
    154 H154       -0.8657  -17.9785  -41.6130 H         1 UNK         0.3000 
    155 H155        0.2755  -17.0471  -44.9019 H         1 UNK         0.0600 
    156 H156       -1.2755  -15.6069  -42.6861 H         1 UNK         0.0600 
    157 H157       -1.7285  -15.6771  -44.3850 H         1 UNK         0.0600 
    158 H158       -0.2632  -14.8328  -43.9045 H         1 UNK         0.0600 
    159 H159        1.1600  -16.2087  -42.3380 H         1 UNK         0.3000 
    160 H160        3.5888  -18.7823  -41.8003 H         1 UNK         0.0600 
    161 H161        5.0714  -16.8563  -41.5801 H         1 UNK         0.0600 
    162 H162        3.8770  -15.7804  -42.2948 H         1 UNK         0.0600 
    163 H163        4.6457  -17.0230  -43.2777 H         1 UNK         0.0600 
    164 H164        2.6248  -16.4347  -40.3711 H         1 UNK         0.3000 
    165 H165        0.3537  -18.2157  -38.2864 H         1 UNK         0.0600 
    166 H166        1.7912  -17.2629  -36.5084 H         1 UNK         0.0600 
    167 H167        2.5903  -18.6365  -37.2562 H         1 UNK         0.0600 
    168 H168        3.0997  -17.0018  -37.6621 H         1 UNK         0.0600 
    169 H169        1.2506  -15.4909  -38.3303 H         1 UNK         0.3000 
    170 H170       -1.1998  -14.2883  -40.6310 H         1 UNK         0.0600 
    171 H171       -2.4050  -14.5224  -38.4483 H         1 UNK         0.0600 
    172 H172       -0.9777  -13.9460  -37.5957 H         1 UNK         0.0600 
    173 H173       -1.8374  -12.8818  -38.7094 H         1 UNK         0.0600 
    174 H174        0.5632  -12.7250  -39.2202 H         1 UNK         0.3000 
    175 H175        2.1318  -11.6168  -40.6213 H         1 UNK         0.0600 
    176 H176        4.1162  -13.7546  -39.6457 H         1 UNK         0.0600 
    177 H177        4.3580  -12.0104  -39.5469 H         1 UNK         0.0600 
    178 H178        3.0866  -12.7739  -38.6097 H         1 UNK         0.0600 
    179 H179        4.3407  -12.8765  -41.9204 H         1 UNK         0.3000 
    180 H180        4.6373  -11.7386  -44.2804 H         1 UNK         0.0600 
    181 H181        3.7742  -14.6742  -44.3809 H         1 UNK         0.0600 
    182 H182        5.1516  -14.0148  -43.5037 H         1 UNK         0.0600 
    183 H183        5.1538  -14.0105  -45.2541 H         1 UNK         0.0600 
    184 H184        2.6942  -13.1261  -46.0315 H         1 UNK         0.3000 
    185 H185        1.3466  -10.6227  -47.5039 H         1 UNK         0.0600 
    186 H186        3.2514   -9.3557  -48.4420 H         1 UNK         0.0600 
    187 H187        4.0700  -10.8473  -48.8922 H         1 UNK         0.0600 
    188 H188        2.5617  -10.3879  -49.6817 H         1 UNK         0.0600 
    189 H189        2.8521  -13.0347  -48.4416 H         1 UNK         0.3000 
    190 H190       -1.5619  -20.5653  -45.4212 H         1 UNK         0.3000 
    191 H191       -3.3979  -21.4310  -47.3324 H         1 UNK         0.0600 
    192 H192       -3.8102  -21.0095  -44.3291 H         1 UNK         0.0600 
    193 H193       -5.0689  -20.9822  -45.5561 H         1 UNK         0.0600 
    194 H194       -3.8328  -19.7367  -45.5491 H         1 UNK         0.0600 
    195 H195       -1.5673  -23.5709  -45.5342 H         1 UNK         0.3000 
    196 H196       -3.4001  -25.7909  -45.3027 H         1 UNK         0.0600 
    197 H197       -1.3043  -27.1194  -45.1530 H         1 UNK         0.0600 
    198 H198       -1.2016  -25.7072  -44.1110 H         1 UNK         0.0600 
    199 H199       -0.3540  -25.7273  -45.6572 H         1 UNK         0.0600 
    200 H200       -1.7472  -24.2137  -47.9712 H         1 UNK         0.3000 
    201 H201       -2.8458  -26.2082  -49.9046 H         1 UNK         0.0600 
    202 H202       -0.3392  -26.0634  -50.0184 H         1 UNK         0.0600 
    203 H203       -0.4441  -24.3159  -50.2139 H         1 UNK         0.0600 
    204 H204       -1.0835  -25.3904  -51.4582 H         1 UNK         0.0600 
    205 H205       -4.1385  -25.3121  -51.5084 H         1 UNK         0.3000 
    206 H206       -5.4176  -22.7634  -50.9926 H         1 UNK         0.0600 
    207 H207       -6.6865  -24.7360  -51.7781 H         1 UNK         0.0600 
    208 H208       -6.7967  -23.4420  -52.9570 H         1 UNK         0.0600 
    209 H209       -5.7294  -24.8118  -53.2560 H         1 UNK         0.0600 
    210 H210       -3.6870  -21.2932  -51.1789 H         1 UNK         0.3000 
    211 H211       -2.3767  -19.7444  -52.0825 H         1 UNK         0.0600 
    212 H212       -3.9955  -20.1901  -54.6331 H         1 UNK         0.0600 
    213 H213       -2.9578  -18.8061  -54.3071 H         1 UNK         0.0600 
    214 H214       -4.3862  -19.0758  -53.3264 H         1 UNK         0.0600 
    215 H215       -1.1212  -22.0286  -51.7605 H         1 UNK         0.3000 
    216 H216        0.6288  -23.3130  -52.2459 H         1 UNK         0.0600 
    217 H217        1.3757  -21.3080  -54.4376 H         1 UNK         0.0600 
    218 H218        2.4356  -22.4913  -53.6897 H         1 UNK         0.0600 
    219 H219        1.8130  -21.1578  -52.7378 H         1 UNK         0.0600 
    220 H220       -1.8599  -23.9321  -53.3482 H         1 UNK         0.3000 
    221 H221       -2.8859  -25.4860  -54.4956 H         1 UNK         0.0600 
    222 H222       -0.2122  -26.4691  -55.6090 H         1 UNK         0.0600 
    223 H223       -0.9021  -26.9593  -54.0614 H         1 UNK         0.0600 
    224 H224       -1.7278  -27.3541  -55.5590 H         1 UNK         0.0600 
    225 H225       -2.3583  -22.7990  -55.6005 H         1 UNK         0.3000 
    226 H226       -2.6747  -23.1199  -58.5034 H         1 UNK         0.0600 
    227 H227       -1.5411  -21.1063  -57.5333 H         1 UNK         0.0600 
    228 H228       -2.9634  -20.6725  -58.4694 H         1 UNK         0.0600 
    229 H229       -3.0374  -20.6626  -56.7142 H         1 UNK         0.0600 
    230 H230       -4.6504  -23.3972  -55.7366 H         1 UNK         0.3000 
    231 H231       -6.7628  -23.9259  -55.3773 H         1 UNK         0.0600 
    232 H232       -6.7492  -25.3071  -57.4566 H         1 UNK         0.0600 
    233 H233       -7.3110  -23.9189  -58.3874 H         1 UNK         0.0600 
    234 H234       -8.3252  -24.6039  -57.1296 H         1 UNK         0.0600 
    235 H235       -6.1069  -21.5633  -54.7059 H         1 UNK         0.3000 
    236 H236       -8.5137  -19.9501  -55.1021 H         1 UNK         0.0600 
    237 H237       -7.2315  -17.8704  -55.5320 H         1 UNK         0.0600 
    238 H238       -5.7094  -18.7500  -55.4967 H         1 UNK         0.0600 
    239 H239       -6.8673  -19.0337  -56.7891 H         1 UNK         0.0600 
    240 H240       -7.9520  -17.8652  -53.5547 H         1 UNK         0.3000 
    241 H241       -7.9202  -17.0604  -51.5902 H         1 UNK         0.0600 
    242 H242       -9.4331  -19.9516  -51.8937 H         1 UNK         0.3800 
    243 H243      -10.1571  -19.9934  -50.3069 H         1 UNK         0.3800 
    244 H244       -5.4220  -17.6908  -51.7218 H         1 UNK         0.0800 
    245 H245       -6.1027  -17.1200  -50.2370 H         1 UNK         0.0800 
    246 H246       -4.6928  -17.6927  -48.4868 H         1 UNK         0.0800 
    247 H247       -4.1389  -19.2718  -48.0191 H         1 UNK         0.0800 
@<TRIPOS>BOND
     1    1    2 1    
     2    1  127 1    
     3    1  128 1    
     4    1  129 1    
     5    2    3 2    
     6    2    4 am   BACKBONE|DICT|INTERRES
     7    4    5 1    
     8    4  130 1    
     9    5    6 1    
    10    5   65 1    
    11    5  131 1    
    12    6    7 1    
    13    6  132 1    
    14    6  133 1    
    15    7    8 1    
    16    8    9 1    
    17    8  134 1    
    18    8  135 1    
    19    9   10 ar   
    20    9   14 ar   
    21   10   11 ar   
    22   10  136 1    
    23   11   12 ar   
    24   11  126 1    
    25   12   13 ar   
    26   12  137 1    
    27   13   14 ar   
    28   13   15 1    
    29   14  138 1    
    30   15   16 1    
    31   15  139 1    
    32   15  140 1    
    33   16   17 1    
    34   17   18 1    
    35   17  141 1    
    36   17  142 1    
    37   18   19 1    
    38   18   67 1    
    39   18  143 1    
    40   19   20 am   BACKBONE|DICT|INTERRES
    41   19  144 1    
    42   20   21 2    
    43   20   22 1    
    44   22   23 1    
    45   22   24 1    
    46   22  145 1    
    47   23  146 1    
    48   23  147 1    
    49   23  148 1    
    50   24   25 am   BACKBONE|DICT|INTERRES
    51   24  149 1    
    52   25   26 2    
    53   25   27 1    
    54   27   28 1    
    55   27   29 1    
    56   27  150 1    
    57   28  151 1    
    58   28  152 1    
    59   28  153 1    
    60   29   30 am   BACKBONE|DICT|INTERRES
    61   29  154 1    
    62   30   31 2    
    63   30   32 1    
    64   32   33 1    
    65   32   34 1    
    66   32  155 1    
    67   33  156 1    
    68   33  157 1    
    69   33  158 1    
    70   34   35 am   BACKBONE|DICT|INTERRES
    71   34  159 1    
    72   35   36 2    
    73   35   37 1    
    74   37   38 1    
    75   37   39 1    
    76   37  160 1    
    77   38  161 1    
    78   38  162 1    
    79   38  163 1    
    80   39   40 am   BACKBONE|DICT|INTERRES
    81   39  164 1    
    82   40   41 2    
    83   40   42 1    
    84   42   43 1    
    85   42   44 1    
    86   42  165 1    
    87   43  166 1    
    88   43  167 1    
    89   43  168 1    
    90   44   45 am   BACKBONE|DICT|INTERRES
    91   44  169 1    
    92   45   46 2    
    93   45   47 1    
    94   47   48 1    
    95   47   49 1    
    96   47  170 1    
    97   48  171 1    
    98   48  172 1    
    99   48  173 1    
   100   49   50 am   BACKBONE|DICT|INTERRES
   101   49  174 1    
   102   50   51 2    
   103   50   52 1    
   104   52   53 1    
   105   52   54 1    
   106   52  175 1    
   107   53  176 1    
   108   53  177 1    
   109   53  178 1    
   110   54   55 am   BACKBONE|DICT|INTERRES
   111   54  179 1    
   112   55   56 2    
   113   55   57 1    
   114   57   58 1    
   115   57   59 1    
   116   57  180 1    
   117   58  181 1    
   118   58  182 1    
   119   58  183 1    
   120   59   60 am   BACKBONE|DICT|INTERRES
   121   59  184 1    
   122   60   61 2    
   123   60   62 1    
   124   62   63 1    
   125   62   64 1    
   126   62  185 1    
   127   63  186 1    
   128   63  187 1    
   129   63  188 1    
   130   64   65 am   BACKBONE|DICT|INTERRES
   131   64  189 1    
   132   65   66 2    
   133   67   68 2    
   134   67   69 am   BACKBONE|DICT|INTERRES
   135   69   70 1    
   136   69  190 1    
   137   70   71 1    
   138   70   72 1    
   139   70  191 1    
   140   71  192 1    
   141   71  193 1    
   142   71  194 1    
   143   72   73 2    
   144   72   74 am   BACKBONE|DICT|INTERRES
   145   74   75 1    
   146   74  195 1    
   147   75   76 1    
   148   75   77 1    
   149   75  196 1    
   150   76  197 1    
   151   76  198 1    
   152   76  199 1    
   153   77   78 2    
   154   77   79 am   BACKBONE|DICT|INTERRES
   155   79   80 1    
   156   79  200 1    
   157   80   81 1    
   158   80   82 1    
   159   80  201 1    
   160   81  202 1    
   161   81  203 1    
   162   81  204 1    
   163   82   83 2    
   164   82   84 am   BACKBONE|DICT|INTERRES
   165   84   85 1    
   166   84  205 1    
   167   85   86 1    
   168   85   87 1    
   169   85  206 1    
   170   86  207 1    
   171   86  208 1    
   172   86  209 1    
   173   87   88 2    
   174   87   89 am   BACKBONE|DICT|INTERRES
   175   89   90 1    
   176   89  210 1    
   177   90   91 1    
   178   90   92 1    
   179   90  211 1    
   180   91  212 1    
   181   91  213 1    
   182   91  214 1    
   183   92   93 2    
   184   92   94 am   BACKBONE|DICT|INTERRES
   185   94   95 1    
   186   94  215 1    
   187   95   96 1    
   188   95   97 1    
   189   95  216 1    
   190   96  217 1    
   191   96  218 1    
   192   96  219 1    
   193   97   98 2    
   194   97   99 am   BACKBONE|DICT|INTERRES
   195   99  100 1    
   196   99  220 1    
   197  100  101 1    
   198  100  102 1    
   199  100  221 1    
   200  101  222 1    
   201  101  223 1    
   202  101  224 1    
   203  102  103 2    
   204  102  104 am   BACKBONE|DICT|INTERRES
   205  104  105 1    
   206  104  225 1    
   207  105  106 1    
   208  105  107 1    
   209  105  226 1    
   210  106  227 1    
   211  106  228 1    
   212  106  229 1    
   213  107  108 2    
   214  107  109 am   BACKBONE|DICT|INTERRES
   215  109  110 1    
   216  109  230 1    
   217  110  111 1    
   218  110  112 1    
   219  110  231 1    
   220  111  232 1    
   221  111  233 1    
   222  111  234 1    
   223  112  113 2    
   224  112  114 am   BACKBONE|DICT|INTERRES
   225  114  115 1    
   226  114  235 1    
   227  115  116 1    
   228  115  117 1    
   229  115  236 1    
   230  116  237 1    
   231  116  238 1    
   232  116  239 1    
   233  117  118 2    
   234  117  119 am   BACKBONE|DICT|INTERRES
   235  119  120 1    
   236  119  240 1    
   237  120  121 1    
   238  120  124 1    
   239  120  241 1    
   240  121  122 am   BACKBONE|DICT|INTERRES
   241  121  123 2    
   242  122  242 1    
   243  122  243 1    
   244  124  125 1    
   245  124  244 1    
   246  124  245 1    
   247  125  126 1    
   248  126  246 1    
   249  126  247 1    
@<TRIPOS>SUBSTRUCTURE
     1 UNK         1 GROUP             0       ****    0 ROOT    
