@<TRIPOS>MOLECULE
3R540
247   249    1
SMALL
USER_CHARGES


@<TRIPOS>ATOM
      1 CA         -1.7009  -11.1820  -48.5801 C.3       0 UNK        -0.1800 
      2 C          -0.5409  -12.0286  -48.0758 C.2       0 UNK         0.5000 
      3 O          -0.6031  -12.5441  -46.9614 O.2       0 UNK        -0.5000 
      4 N           0.5116  -12.1675  -48.8926 N.am      1 UNK        -0.5000 
      5 CA          1.7540  -12.9172  -48.6509 C.3       1 UNK         0.1400 
      6 C6          1.5671  -14.4126  -48.2752 C.3       23 UNK        -0.0398 
      7 S7          0.5338  -15.3404  -49.4535 S.3       23 UNK        -0.2404 
      8 C8          1.7911  -16.2027  -50.4433 C.3       23 UNK        -0.0205 
      9 C9          1.1503  -17.3470  -51.2067 C.ar      23 UNK        -0.0193 
     10 C10         0.6142  -17.1397  -52.4800 C.ar      23 UNK        -0.1150 
     11 C11        -0.0383  -18.1790  -53.1496 C.ar      23 UNK        -0.0193 
     12 C12        -0.1324  -19.4297  -52.5361 C.ar      23 UNK        -0.1150 
     13 C13         0.4241  -19.6662  -51.2762 C.ar      23 UNK        -0.0193 
     14 C14         1.0653  -18.6106  -50.6172 C.ar      23 UNK        -0.1150 
     15 C15         0.2786  -21.0639  -50.6721 C.3       23 UNK        -0.0205 
     16 S16         1.4761  -21.5116  -49.3682 S.3       23 UNK        -0.2404 
     17 C17         0.7441  -20.7428  -47.8817 C.3       23 UNK        -0.0398 
     18 CA         -0.0862  -21.7387  -47.0357 C.3       11 UNK         0.1400 
     19 N          -0.0561  -21.4125  -45.6048 N.am      11 UNK        -0.5000 
     20 C          -0.4871  -22.2385  -44.6391 C.2       10 UNK         0.5000 
     21 O          -0.9384  -23.3612  -44.8555 O.2       10 UNK        -0.5000 
     22 CA         -0.4713  -21.7117  -43.1943 C.3       10 UNK         0.1400 
     23 CB          0.9558  -21.6861  -42.6351 C.3       10 UNK        -0.1800 
     24 N          -1.0719  -20.3862  -43.0758 N.am      10 UNK        -0.5000 
     25 C          -2.3363  -20.0864  -43.4024 C.2       9 UNK         0.5000 
     26 O          -3.1626  -20.9159  -43.7812 O.2       9 UNK        -0.5000 
     27 CA         -2.7274  -18.6006  -43.3443 C.3       9 UNK         0.1400 
     28 CB         -3.2767  -18.2273  -41.9594 C.3       9 UNK        -0.1800 
     29 N          -1.6139  -17.7171  -43.6959 N.am      9 UNK        -0.5000 
     30 C          -1.0847  -17.6250  -44.9234 C.2       8 UNK         0.5000 
     31 O          -1.4586  -18.3020  -45.8837 O.2       8 UNK        -0.5000 
     32 CA          0.0640  -16.6159  -45.0950 C.3       8 UNK         0.1400 
     33 CB         -0.3942  -15.1850  -44.7706 C.3       8 UNK        -0.1800 
     34 N           1.2483  -16.9275  -44.2939 N.am      8 UNK        -0.5000 
     35 C           2.0114  -18.0199  -44.4424 C.2       7 UNK         0.5000 
     36 O           1.7083  -18.9788  -45.1519 O.2       7 UNK        -0.5000 
     37 CA          3.3384  -18.0417  -43.6681 C.3       7 UNK         0.1400 
     38 CB          4.2366  -16.8516  -44.0495 C.3       7 UNK        -0.1800 
     39 N           3.0663  -18.0073  -42.2371 N.am      7 UNK        -0.5000 
     40 C           3.2022  -19.0494  -41.4064 C.2       6 UNK         0.5000 
     41 O           3.7359  -20.1122  -41.7250 O.2       6 UNK        -0.5000 
     42 CA          2.6429  -18.8967  -39.9750 C.3       6 UNK         0.1400 
     43 CB          3.7903  -18.7578  -38.9622 C.3       6 UNK        -0.1800 
     44 N           1.7297  -17.7647  -39.8028 N.am      6 UNK        -0.5000 
     45 C           0.5490  -17.6041  -40.4177 C.2       5 UNK         0.5000 
     46 O           0.0560  -18.4323  -41.1818 O.2       5 UNK        -0.5000 
     47 CA         -0.1531  -16.2483  -40.2061 C.3       5 UNK         0.1400 
     48 CB         -1.1374  -16.3263  -39.0305 C.3       5 UNK        -0.1800 
     49 N           0.7927  -15.1507  -39.9768 N.am      5 UNK        -0.5000 
     50 C           1.7043  -14.7319  -40.8647 C.2       4 UNK         0.5000 
     51 O           1.8078  -15.1880  -42.0072 O.2       4 UNK        -0.5000 
     52 CA          2.7119  -13.6824  -40.3685 C.3       4 UNK         0.1400 
     53 CB          4.1511  -14.2004  -40.5264 C.3       4 UNK        -0.1800 
     54 N           2.5729  -12.4307  -41.1021 N.am      4 UNK        -0.5000 
     55 C           1.5794  -11.5459  -40.9401 C.2       3 UNK         0.5000 
     56 O           0.6844  -11.6703  -40.1031 O.2       3 UNK        -0.5000 
     57 CA          1.5947  -10.3065  -41.8600 C.3       3 UNK         0.1400 
     58 CB          2.1886   -9.0964  -41.1223 C.3       3 UNK        -0.1800 
     59 N           2.3482  -10.5268  -43.0984 N.am      3 UNK        -0.5000 
     60 C           1.9201  -11.3003  -44.1031 C.2       2 UNK         0.5000 
     61 O           0.8082  -11.8320  -44.1285 O.2       2 UNK        -0.5000 
     62 CA          2.9219  -11.5573  -45.2366 C.3       2 UNK         0.1400 
     63 CB          4.0055  -12.5537  -44.7744 C.3       2 UNK        -0.1800 
     64 N           2.2043  -12.0991  -46.3838 N.am      2 UNK        -0.5000 
     65 C           2.6708  -12.2142  -47.6304 C.2       1 UNK         0.5000 
     66 O           3.7748  -11.8015  -47.9888 O.2       1 UNK        -0.5000 
     67 C          -1.5301  -21.8549  -47.5676 C.2       11 UNK         0.5000 
     68 O          -1.8269  -22.7690  -48.3411 O.2       11 UNK        -0.5000 
     69 N          -2.4134  -20.9488  -47.1208 N.am      12 UNK        -0.5000 
     70 CA         -3.8388  -20.9533  -47.4568 C.3       12 UNK         0.1400 
     71 CB         -4.5183  -19.7079  -46.8716 C.3       12 UNK        -0.1800 
     72 C          -4.5614  -22.2382  -47.0075 C.2       12 UNK         0.5000 
     73 O          -5.4439  -22.7126  -47.7207 O.2       12 UNK        -0.5000 
     74 N          -4.1519  -22.7913  -45.8596 N.am      13 UNK        -0.5000 
     75 CA         -4.6303  -24.0656  -45.3378 C.3       13 UNK         0.1400 
     76 CB         -4.4272  -24.0985  -43.8138 C.3       13 UNK        -0.1800 
     77 C          -3.9437  -25.2650  -46.0169 C.2       13 UNK         0.5000 
     78 O          -4.6281  -26.1001  -46.6084 O.2       13 UNK        -0.5000 
     79 N          -2.6114  -25.3497  -45.8955 N.am      14 UNK        -0.5000 
     80 CA         -1.8245  -26.5431  -46.2165 C.3       14 UNK         0.1400 
     81 CB         -0.4324  -26.4285  -45.5765 C.3       14 UNK        -0.1800 
     82 C          -1.6957  -26.8281  -47.7202 C.2       14 UNK         0.5000 
     83 O          -1.7681  -27.9910  -48.1194 O.2       14 UNK        -0.5000 
     84 N          -1.5095  -25.7742  -48.5245 N.am      15 UNK        -0.5000 
     85 CA         -1.3804  -25.8682  -49.9812 C.3       15 UNK         0.1400 
     86 CB         -0.2591  -24.9231  -50.4454 C.3       15 UNK        -0.1800 
     87 C          -2.7027  -25.5381  -50.6954 C.2       15 UNK         0.5000 
     88 O          -2.7277  -25.5039  -51.9269 O.2       15 UNK        -0.5000 
     89 N          -3.7626  -25.2480  -49.9241 N.am      16 UNK        -0.5000 
     90 CA         -5.0814  -24.7921  -50.3742 C.3       16 UNK         0.1400 
     91 CB         -5.8187  -25.9210  -51.1251 C.3       16 UNK        -0.1800 
     92 C          -4.9959  -23.4846  -51.1906 C.2       16 UNK         0.5000 
     93 O          -5.6995  -23.3410  -52.1895 O.2       16 UNK        -0.5000 
     94 N          -4.0847  -22.5833  -50.7872 N.am      17 UNK        -0.5000 
     95 CA         -3.7174  -21.3419  -51.4819 C.3       17 UNK         0.1400 
     96 CB         -4.8993  -20.3519  -51.5121 C.3       17 UNK        -0.1800 
     97 C          -3.1129  -21.6115  -52.8779 C.2       17 UNK         0.5000 
     98 O          -3.4134  -20.8942  -53.8341 O.2       17 UNK        -0.5000 
     99 N          -2.2793  -22.6624  -52.9490 N.am      18 UNK        -0.5000 
    100 CA        -1.6712  -23.2578  -54.1439 C.3       18 UNK         0.1400 
    101 CB        -0.6365  -22.3154  -54.7904 C.3       18 UNK        -0.1800 
    102 C         -2.7429  -23.7612  -55.1269 C.2       18 UNK         0.5000 
    103 O         -2.7797  -23.3344  -56.2808 O.2       18 UNK        -0.5000 
    104 N         -3.6220  -24.6387  -54.6209 N.am      19 UNK        -0.5000 
    105 CA        -4.7816  -25.2156  -55.3121 C.3       19 UNK         0.1400 
    106 CB        -4.3251  -26.2028  -56.4062 C.3       19 UNK        -0.1800 
    107 C         -5.7511  -24.1328  -55.8353 C.2       19 UNK         0.5000 
    108 O         -6.1436  -24.1505  -57.0033 O.2       19 UNK        -0.5000 
    109 N         -6.0922  -23.1959  -54.9416 N.am      20 UNK        -0.5000 
    110 CA        -6.9819  -22.0472  -55.1164 C.3       20 UNK         0.1400 
    111 CB        -8.4102  -22.5020  -55.4819 C.3       20 UNK        -0.1800 
    112 C         -6.4558  -20.9447  -56.0588 C.2       20 UNK         0.5000 
    113 O         -7.2176  -20.0293  -56.3755 O.2       20 UNK        -0.5000 
    114 N         -5.1733  -20.9903  -56.4526 N.am      21 UNK        -0.5000 
    115 CA        -4.5268  -19.9757  -57.2953 C.3       21 UNK         0.1400 
    116 CB        -3.1077  -20.4293  -57.6628 C.3       21 UNK        -0.1800 
    117 C         -4.4939  -18.5763  -56.6504 C.2       21 UNK         0.5000 
    118 O         -4.6768  -17.5812  -57.3532 O.2       21 UNK        -0.5000 
    119 N         -4.3096  -18.5384  -55.3265 N.am      22 UNK        -0.5000 
    120 CA        -4.4402  -17.3418  -54.4805 C.3       22 UNK         0.1400 
    121 C         -5.7544  -17.3476  -53.6423 C.2       22 UNK         0.5000 
    122 N         -6.7686  -18.1293  -53.9958 N.am      22 UNK        -0.7600 
    123 O         -5.8747  -16.6173  -52.6627 O.2       22 UNK        -0.5000 
    124 C124       -3.1708  -17.1207  -53.6158 C.3       23 UNK        -0.0398 
    125 S125       -1.7625  -16.5498  -54.6267 S.3       23 UNK        -0.2404 
    126 C126       -0.6269  -17.9698  -54.5404 C.3       23 UNK        -0.0205 
    127 H127       -1.5121  -10.7869  -49.5786 H         1 UNK         0.0600 
    128 H128       -1.8711  -10.3413  -47.9077 H         1 UNK         0.0600 
    129 H129       -2.6115  -11.7799  -48.6176 H         1 UNK         0.0600 
    130 H130        0.4829  -11.6950  -49.7852 H         1 UNK         0.3000 
    131 H131        2.2857  -12.8971  -49.6037 H         1 UNK         0.0600 
    132 H132        2.5373  -14.9036  -48.1837 H         1 UNK         0.0800 
    133 H133        1.1004  -14.5097  -47.2955 H         1 UNK         0.0800 
    134 H134        2.2644  -15.4990  -51.1297 H         1 UNK         0.0800 
    135 H135        2.5803  -16.5903  -49.7974 H         1 UNK         0.0800 
    136 H136        0.6835  -16.1638  -52.9397 H         1 UNK         0.1150 
    137 H137       -0.6414  -20.2285  -53.0489 H         1 UNK         0.1150 
    138 H138        1.4935  -18.7511  -49.6369 H         1 UNK         0.1150 
    139 H139       -0.7322  -21.1785  -50.2871 H         1 UNK         0.0800 
    140 H140        0.3857  -21.8012  -51.4692 H         1 UNK         0.0800 
    141 H141        0.1668  -19.8521  -48.1368 H         1 UNK         0.0800 
    142 H142        1.5922  -20.3833  -47.2996 H         1 UNK         0.0800 
    143 H143        0.3689  -22.7274  -47.1308 H         1 UNK         0.0600 
    144 H144        0.3147  -20.5016  -45.3526 H         1 UNK         0.3000 
    145 H145       -1.0631  -22.3966  -42.5835 H         1 UNK         0.0600 
    146 H146        0.9653  -21.3638  -41.5939 H         1 UNK         0.0600 
    147 H147        1.4094  -22.6771  -42.6740 H         1 UNK         0.0600 
    148 H148        1.5957  -21.0103  -43.2025 H         1 UNK         0.0600 
    149 H149       -0.4887  -19.6450  -42.7015 H         1 UNK         0.3000 
    150 H150       -3.5230  -18.4360  -44.0729 H         1 UNK         0.0600 
    151 H151       -3.5480  -17.1727  -41.9100 H         1 UNK         0.0600 
    152 H152       -4.1740  -18.8045  -41.7331 H         1 UNK         0.0600 
    153 H153       -2.5563  -18.4284  -41.1676 H         1 UNK         0.0600 
    154 H154       -1.2004  -17.1845  -42.9465 H         1 UNK         0.3000 
    155 H155        0.3619  -16.6418  -46.1453 H         1 UNK         0.0600 
    156 H156       -0.6634  -15.0677  -43.7204 H         1 UNK         0.0600 
    157 H157       -1.2622  -14.9052  -45.3690 H         1 UNK         0.0600 
    158 H158        0.3926  -14.4624  -44.9859 H         1 UNK         0.0600 
    159 H159        1.5415  -16.2120  -43.6349 H         1 UNK         0.3000 
    160 H160        3.8652  -18.9579  -43.9431 H         1 UNK         0.0600 
    161 H161        3.7988  -15.8957  -43.7618 H         1 UNK         0.0600 
    162 H162        4.4121  -16.8232  -45.1255 H         1 UNK         0.0600 
    163 H163        5.2092  -16.9273  -43.5633 H         1 UNK         0.0600 
    164 H164        2.6031  -17.1748  -41.8955 H         1 UNK         0.3000 
    165 H165        2.0886  -19.8091  -39.7462 H         1 UNK         0.0600 
    166 H166        3.4138  -18.7291  -37.9395 H         1 UNK         0.0600 
    167 H167        4.4769  -19.6028  -39.0293 H         1 UNK         0.0600 
    168 H168        4.3698  -17.8498  -39.1340 H         1 UNK         0.0600 
    169 H169        2.0490  -17.0242  -39.1964 H         1 UNK         0.3000 
    170 H170       -0.7177  -16.0217  -41.1125 H         1 UNK         0.0600 
    171 H171       -1.8635  -17.1264  -39.1785 H         1 UNK         0.0600 
    172 H172       -0.6248  -16.5199  -38.0874 H         1 UNK         0.0600 
    173 H173       -1.6979  -15.3973  -38.9238 H         1 UNK         0.0600 
    174 H174        0.7575  -14.7095  -39.0687 H         1 UNK         0.3000 
    175 H175        2.5375  -13.4875  -39.3081 H         1 UNK         0.0600 
    176 H176        4.4060  -14.3788  -41.5721 H         1 UNK         0.0600 
    177 H177        4.8721  -13.4889  -40.1235 H         1 UNK         0.0600 
    178 H178        4.2896  -15.1407  -39.9911 H         1 UNK         0.0600 
    179 H179        3.2467  -12.2611  -41.8324 H         1 UNK         0.3000 
    180 H180        0.5592  -10.0741  -42.1180 H         1 UNK         0.0600 
    181 H181        3.2294   -9.2654  -40.8429 H         1 UNK         0.0600 
    182 H182        1.6334   -8.8859  -40.2072 H         1 UNK         0.0600 
    183 H183        2.1470   -8.1986  -41.7394 H         1 UNK         0.0600 
    184 H184        3.2677  -10.1117  -43.1484 H         1 UNK         0.3000 
    185 H185        3.3816  -10.6079  -45.5188 H         1 UNK         0.0600 
    186 H186        4.5591  -12.1687  -43.9175 H         1 UNK         0.0600 
    187 H187        3.5682  -13.5091  -44.4809 H         1 UNK         0.0600 
    188 H188        4.7347  -12.7487  -45.5606 H         1 UNK         0.0600 
    189 H189        1.2430  -12.3752  -46.1888 H         1 UNK         0.3000 
    190 H190       -2.0899  -20.2046  -46.5115 H         1 UNK         0.3000 
    191 H191       -3.9159  -20.8920  -48.5422 H         1 UNK         0.0600 
    192 H192       -4.0150  -18.7944  -47.1890 H         1 UNK         0.0600 
    193 H193       -5.5552  -19.6410  -47.2032 H         1 UNK         0.0600 
    194 H194       -4.5263  -19.7282  -45.7828 H         1 UNK         0.0600 
    195 H195       -3.4639  -22.2982  -45.3009 H         1 UNK         0.3000 
    196 H196       -5.7029  -24.1440  -45.5284 H         1 UNK         0.0600 
    197 H197       -4.7613  -25.0480  -43.3940 H         1 UNK         0.0600 
    198 H198       -4.9983  -23.3079  -43.3267 H         1 UNK         0.0600 
    199 H199       -3.3803  -23.9655  -43.5385 H         1 UNK         0.0600 
    200 H200       -2.1031  -24.5923  -45.4408 H         1 UNK         0.3000 
    201 H201       -2.3270  -27.4006  -45.7637 H         1 UNK         0.0600 
    202 H202       -0.5039  -26.2821  -44.4986 H         1 UNK         0.0600 
    203 H203        0.1338  -25.5936  -45.9912 H         1 UNK         0.0600 
    204 H204        0.1508  -27.3349  -45.7439 H         1 UNK         0.0600 
    205 H205       -1.4984  -24.8386  -48.1326 H         1 UNK         0.3000 
    206 H206       -1.1016  -26.8820  -50.2751 H         1 UNK         0.0600 
    207 H207        0.6744  -25.1306  -49.9221 H         1 UNK         0.0600 
    208 H208       -0.0636  -25.0393  -51.5120 H         1 UNK         0.0600 
    209 H209       -0.5121  -23.8784  -50.2727 H         1 UNK         0.0600 
    210 H210       -3.6399  -25.3100  -48.9228 H         1 UNK         0.3000 
    211 H211       -5.6603  -24.5674  -49.4792 H         1 UNK         0.0600 
    212 H212       -5.3272  -26.1762  -52.0639 H         1 UNK         0.0600 
    213 H213       -6.8427  -25.6294  -51.3614 H         1 UNK         0.0600 
    214 H214       -5.8722  -26.8253  -50.5191 H         1 UNK         0.0600 
    215 H215       -3.5406  -22.8070  -49.9630 H         1 UNK         0.3000 
    216 H216       -2.9285  -20.8796  -50.8896 H         1 UNK         0.0600 
    217 H217       -4.5671  -19.3671  -51.8375 H         1 UNK         0.0600 
    218 H218       -5.3426  -20.2313  -50.5239 H         1 UNK         0.0600 
    219 H219       -5.6861  -20.6726  -52.1949 H         1 UNK         0.0600 
    220 H220       -2.1748  -23.2174  -52.1122 H         1 UNK         0.3000 
    221 H221       -1.1304  -24.1440  -53.8085 H         1 UNK         0.0600 
    222 H222       -1.0792  -21.3691  -55.0971 H         1 UNK         0.0600 
    223 H223        0.1828  -22.1034  -54.1043 H         1 UNK         0.0600 
    224 H224       -0.1962  -22.7706  -55.6782 H         1 UNK         0.0600 
    225 H225       -3.4898  -24.9292  -53.6557 H         1 UNK         0.3000 
    226 H226       -5.3345  -25.7858  -54.5644 H         1 UNK         0.0600 
    227 H227       -3.6679  -26.9691  -55.9952 H         1 UNK         0.0600 
    228 H228       -5.1796  -26.7134  -56.8517 H         1 UNK         0.0600 
    229 H229       -3.7897  -25.6984  -57.2112 H         1 UNK         0.0600 
    230 H230       -5.7339  -23.2933  -53.9922 H         1 UNK         0.3000 
    231 H231       -7.0375  -21.5803  -54.1322 H         1 UNK         0.0600 
    232 H232       -8.4602  -22.9135  -56.4902 H         1 UNK         0.0600 
    233 H233       -9.1112  -21.6677  -55.4371 H         1 UNK         0.0600 
    234 H234       -8.7712  -23.2623  -54.7892 H         1 UNK         0.0600 
    235 H235       -4.5894  -21.7514  -56.1300 H         1 UNK         0.3000 
    236 H236       -5.1058  -19.8986  -58.2177 H         1 UNK         0.0600 
    237 H237       -3.1230  -21.3774  -58.2004 H         1 UNK         0.0600 
    238 H238       -2.6163  -19.6982  -58.3058 H         1 UNK         0.0600 
    239 H239       -2.4882  -20.5549  -56.7751 H         1 UNK         0.0600 
    240 H240       -4.1393  -19.4129  -54.8353 H         1 UNK         0.3000 
    241 H241       -4.5484  -16.4606  -55.1150 H         1 UNK         0.0600 
    242 H242       -7.6143  -18.1080  -53.4487 H         1 UNK         0.3800 
    243 H243       -6.7344  -18.6812  -54.8431 H         1 UNK         0.3800 
    244 H244       -3.3351  -16.3526  -52.8587 H         1 UNK         0.0800 
    245 H245       -2.9097  -18.0297  -53.0725 H         1 UNK         0.0800 
    246 H246        0.1908  -17.8088  -55.2437 H         1 UNK         0.0800 
    247 H247       -1.1570  -18.8606  -54.8819 H         1 UNK         0.0800 
@<TRIPOS>BOND
     1    1    2 1    
     2    1  127 1    
     3    1  128 1    
     4    1  129 1    
     5    2    3 2    
     6    2    4 am   BACKBONE|DICT|INTERRES
     7    4    5 1    
     8    4  130 1    
     9    5    6 1    
    10    5   65 1    
    11    5  131 1    
    12    6    7 1    
    13    6  132 1    
    14    6  133 1    
    15    7    8 1    
    16    8    9 1    
    17    8  134 1    
    18    8  135 1    
    19    9   10 ar   
    20    9   14 ar   
    21   10   11 ar   
    22   10  136 1    
    23   11   12 ar   
    24   11  126 1    
    25   12   13 ar   
    26   12  137 1    
    27   13   14 ar   
    28   13   15 1    
    29   14  138 1    
    30   15   16 1    
    31   15  139 1    
    32   15  140 1    
    33   16   17 1    
    34   17   18 1    
    35   17  141 1    
    36   17  142 1    
    37   18   19 1    
    38   18   67 1    
    39   18  143 1    
    40   19   20 am   BACKBONE|DICT|INTERRES
    41   19  144 1    
    42   20   21 2    
    43   20   22 1    
    44   22   23 1    
    45   22   24 1    
    46   22  145 1    
    47   23  146 1    
    48   23  147 1    
    49   23  148 1    
    50   24   25 am   BACKBONE|DICT|INTERRES
    51   24  149 1    
    52   25   26 2    
    53   25   27 1    
    54   27   28 1    
    55   27   29 1    
    56   27  150 1    
    57   28  151 1    
    58   28  152 1    
    59   28  153 1    
    60   29   30 am   BACKBONE|DICT|INTERRES
    61   29  154 1    
    62   30   31 2    
    63   30   32 1    
    64   32   33 1    
    65   32   34 1    
    66   32  155 1    
    67   33  156 1    
    68   33  157 1    
    69   33  158 1    
    70   34   35 am   BACKBONE|DICT|INTERRES
    71   34  159 1    
    72   35   36 2    
    73   35   37 1    
    74   37   38 1    
    75   37   39 1    
    76   37  160 1    
    77   38  161 1    
    78   38  162 1    
    79   38  163 1    
    80   39   40 am   BACKBONE|DICT|INTERRES
    81   39  164 1    
    82   40   41 2    
    83   40   42 1    
    84   42   43 1    
    85   42   44 1    
    86   42  165 1    
    87   43  166 1    
    88   43  167 1    
    89   43  168 1    
    90   44   45 am   BACKBONE|DICT|INTERRES
    91   44  169 1    
    92   45   46 2    
    93   45   47 1    
    94   47   48 1    
    95   47   49 1    
    96   47  170 1    
    97   48  171 1    
    98   48  172 1    
    99   48  173 1    
   100   49   50 am   BACKBONE|DICT|INTERRES
   101   49  174 1    
   102   50   51 2    
   103   50   52 1    
   104   52   53 1    
   105   52   54 1    
   106   52  175 1    
   107   53  176 1    
   108   53  177 1    
   109   53  178 1    
   110   54   55 am   BACKBONE|DICT|INTERRES
   111   54  179 1    
   112   55   56 2    
   113   55   57 1    
   114   57   58 1    
   115   57   59 1    
   116   57  180 1    
   117   58  181 1    
   118   58  182 1    
   119   58  183 1    
   120   59   60 am   BACKBONE|DICT|INTERRES
   121   59  184 1    
   122   60   61 2    
   123   60   62 1    
   124   62   63 1    
   125   62   64 1    
   126   62  185 1    
   127   63  186 1    
   128   63  187 1    
   129   63  188 1    
   130   64   65 am   BACKBONE|DICT|INTERRES
   131   64  189 1    
   132   65   66 2    
   133   67   68 2    
   134   67   69 am   BACKBONE|DICT|INTERRES
   135   69   70 1    
   136   69  190 1    
   137   70   71 1    
   138   70   72 1    
   139   70  191 1    
   140   71  192 1    
   141   71  193 1    
   142   71  194 1    
   143   72   73 2    
   144   72   74 am   BACKBONE|DICT|INTERRES
   145   74   75 1    
   146   74  195 1    
   147   75   76 1    
   148   75   77 1    
   149   75  196 1    
   150   76  197 1    
   151   76  198 1    
   152   76  199 1    
   153   77   78 2    
   154   77   79 am   BACKBONE|DICT|INTERRES
   155   79   80 1    
   156   79  200 1    
   157   80   81 1    
   158   80   82 1    
   159   80  201 1    
   160   81  202 1    
   161   81  203 1    
   162   81  204 1    
   163   82   83 2    
   164   82   84 am   BACKBONE|DICT|INTERRES
   165   84   85 1    
   166   84  205 1    
   167   85   86 1    
   168   85   87 1    
   169   85  206 1    
   170   86  207 1    
   171   86  208 1    
   172   86  209 1    
   173   87   88 2    
   174   87   89 am   BACKBONE|DICT|INTERRES
   175   89   90 1    
   176   89  210 1    
   177   90   91 1    
   178   90   92 1    
   179   90  211 1    
   180   91  212 1    
   181   91  213 1    
   182   91  214 1    
   183   92   93 2    
   184   92   94 am   BACKBONE|DICT|INTERRES
   185   94   95 1    
   186   94  215 1    
   187   95   96 1    
   188   95   97 1    
   189   95  216 1    
   190   96  217 1    
   191   96  218 1    
   192   96  219 1    
   193   97   98 2    
   194   97   99 am   BACKBONE|DICT|INTERRES
   195   99  100 1    
   196   99  220 1    
   197  100  101 1    
   198  100  102 1    
   199  100  221 1    
   200  101  222 1    
   201  101  223 1    
   202  101  224 1    
   203  102  103 2    
   204  102  104 am   BACKBONE|DICT|INTERRES
   205  104  105 1    
   206  104  225 1    
   207  105  106 1    
   208  105  107 1    
   209  105  226 1    
   210  106  227 1    
   211  106  228 1    
   212  106  229 1    
   213  107  108 2    
   214  107  109 am   BACKBONE|DICT|INTERRES
   215  109  110 1    
   216  109  230 1    
   217  110  111 1    
   218  110  112 1    
   219  110  231 1    
   220  111  232 1    
   221  111  233 1    
   222  111  234 1    
   223  112  113 2    
   224  112  114 am   BACKBONE|DICT|INTERRES
   225  114  115 1    
   226  114  235 1    
   227  115  116 1    
   228  115  117 1    
   229  115  236 1    
   230  116  237 1    
   231  116  238 1    
   232  116  239 1    
   233  117  118 2    
   234  117  119 am   BACKBONE|DICT|INTERRES
   235  119  120 1    
   236  119  240 1    
   237  120  121 1    
   238  120  124 1    
   239  120  241 1    
   240  121  122 am   BACKBONE|DICT|INTERRES
   241  121  123 2    
   242  122  242 1    
   243  122  243 1    
   244  124  125 1    
   245  124  244 1    
   246  124  245 1    
   247  125  126 1    
   248  126  246 1    
   249  126  247 1    
@<TRIPOS>SUBSTRUCTURE
     1 UNK         1 GROUP             0       ****    0 ROOT    
