@<TRIPOS>MOLECULE
3R540
247   249    1
SMALL
USER_CHARGES


@<TRIPOS>ATOM
      1 CA          9.2537  -18.3549  -47.2729 C.3       0 UNK        -0.1800 
      2 C           7.8482  -18.8881  -47.0343 C.2       0 UNK         0.5000 
      3 O           7.6829  -19.8962  -46.3477 O.2       0 UNK        -0.5000 
      4 N           6.8360  -18.2133  -47.5938 N.am      1 UNK        -0.5000 
      5 CA          5.4154  -18.5691  -47.4720 C.3       1 UNK         0.1400 
      6 C6          4.6014  -18.0619  -48.6887 C.3       23 UNK        -0.0398 
      7 S7          4.5908  -16.2447  -48.8924 S.3       23 UNK        -0.2404 
      8 C8          3.9997  -16.0802  -50.6078 C.3       23 UNK        -0.0205 
      9 C9          2.5450  -16.5027  -50.7495 C.ar      23 UNK        -0.0193 
     10 C10         1.5204  -15.6179  -50.4033 C.ar      23 UNK        -0.1150 
     11 C11         0.1828  -16.0101  -50.5013 C.ar      23 UNK        -0.0193 
     12 C12        -0.1305  -17.2905  -50.9655 C.ar      23 UNK        -0.1150 
     13 C13         0.8850  -18.1809  -51.3204 C.ar      23 UNK        -0.0193 
     14 C14         2.2205  -17.7795  -51.2172 C.ar      23 UNK        -0.1150 
     15 C15         0.5445  -19.5744  -51.8204 C.3       23 UNK        -0.0205 
     16 S16         0.9887  -20.8530  -50.6075 S.3       23 UNK        -0.2404 
     17 C17        -0.5084  -20.9376  -49.5665 C.3       23 UNK        -0.0398 
     18 CA         -0.3711  -22.0845  -48.5397 C.3       11 UNK         0.1400 
     19 N           0.7038  -21.8443  -47.5689 N.am      11 UNK        -0.5000 
     20 C           1.2874  -22.7956  -46.8279 C.2       10 UNK         0.5000 
     21 O           0.9301  -23.9727  -46.8281 O.2       10 UNK        -0.5000 
     22 CA          2.4365  -22.3480  -45.9077 C.3       10 UNK         0.1400 
     23 CB          3.6633  -21.9275  -46.7302 C.3       10 UNK        -0.1800 
     24 N           2.0313  -21.2492  -45.0341 N.am      10 UNK        -0.5000 
     25 C           1.1167  -21.3626  -44.0586 C.2       9 UNK         0.5000 
     26 O           0.6033  -22.4297  -43.7213 O.2       9 UNK        -0.5000 
     27 CA          0.6671  -20.0596  -43.3685 C.3       9 UNK         0.1400 
     28 CB          1.4757  -19.8211  -42.0847 C.3       9 UNK        -0.1800 
     29 N           0.7553  -18.8811  -44.2372 N.am      9 UNK        -0.5000 
     30 C           0.0611  -18.7294  -45.3733 C.2       8 UNK         0.5000 
     31 O          -0.7104  -19.5816  -45.8097 O.2       8 UNK        -0.5000 
     32 CA          0.3184  -17.4424  -46.1690 C.3       8 UNK         0.1400 
     33 CB          0.9810  -17.7359  -47.5255 C.3       8 UNK        -0.1800 
     34 N          -0.8837  -16.6137  -46.2992 N.am      8 UNK        -0.5000 
     35 C          -2.0091  -16.8596  -46.9926 C.2       7 UNK         0.5000 
     36 O          -2.1740  -17.8205  -47.7443 O.2       7 UNK        -0.5000 
     37 CA         -3.1364  -15.8122  -46.8771 C.3       7 UNK         0.1400 
     38 CB         -4.5463  -16.4254  -47.0197 C.3       7 UNK        -0.1800 
     39 N          -3.0346  -14.9540  -45.6928 N.am      7 UNK        -0.5000 
     40 C          -3.2138  -15.2898  -44.4051 C.2       6 UNK         0.5000 
     41 O          -3.5328  -16.4188  -44.0320 O.2       6 UNK        -0.5000 
     42 CA         -2.9772  -14.1803  -43.3564 C.3       6 UNK         0.1400 
     43 CB         -2.2781  -14.7258  -42.0981 C.3       6 UNK        -0.1800 
     44 N          -2.1680  -13.0912  -43.9068 N.am      6 UNK        -0.5000 
     45 C          -2.6378  -11.9285  -44.3804 C.2       5 UNK         0.5000 
     46 O          -3.8222  -11.5982  -44.3253 O.2       5 UNK        -0.5000 
     47 CA         -1.6221  -10.9861  -45.0624 C.3       5 UNK         0.1400 
     48 CB         -1.1727   -9.8879  -44.0868 C.3       5 UNK        -0.1800 
     49 N          -0.4351  -11.6737  -45.5794 N.am      5 UNK        -0.5000 
     50 C          -0.4306  -12.5768  -46.5708 C.2       4 UNK         0.5000 
     51 O          -1.4341  -12.8911  -47.2097 O.2       4 UNK        -0.5000 
     52 CA          0.9018  -13.3068  -46.8384 C.3       4 UNK         0.1400 
     53 CB          1.6975  -12.5946  -47.9409 C.3       4 UNK        -0.1800 
     54 N           1.7439  -13.4479  -45.6456 N.am      4 UNK        -0.5000 
     55 C           1.3908  -14.0927  -44.5264 C.2       3 UNK         0.5000 
     56 O           0.3039  -14.6572  -44.3862 O.2       3 UNK        -0.5000 
     57 CA          2.4069  -14.0851  -43.3701 C.3       3 UNK         0.1400 
     58 CB          1.7010  -14.0314  -42.0039 C.3       3 UNK        -0.1800 
     59 N           3.2930  -15.2479  -43.3949 N.am      3 UNK        -0.5000 
     60 C           4.2390  -15.4916  -44.3116 C.2       2 UNK         0.5000 
     61 O           4.4510  -14.7605  -45.2811 O.2       2 UNK        -0.5000 
     62 CA          5.1556  -16.7089  -44.0728 C.3       2 UNK         0.1400 
     63 CB          4.6243  -17.7242  -43.0360 C.3       2 UNK        -0.1800 
     64 N           5.5303  -17.3497  -45.3347 N.am      2 UNK        -0.5000 
     65 C           4.7884  -18.1466  -46.1186 C.2       1 UNK         0.5000 
     66 O           3.6681  -18.5632  -45.8149 O.2       1 UNK        -0.5000 
     67 C          -1.7126  -22.4307  -47.8657 C.2       11 UNK         0.5000 
     68 O          -2.5006  -23.1725  -48.4509 O.2       11 UNK        -0.5000 
     69 N          -1.9253  -21.9801  -46.6233 N.am      12 UNK        -0.5000 
     70 CA         -3.0412  -22.3926  -45.7711 C.3       12 UNK         0.1400 
     71 CB         -3.0419  -21.5548  -44.4848 C.3       12 UNK        -0.1800 
     72 C          -3.0447  -23.8991  -45.4430 C.2       12 UNK         0.5000 
     73 O          -4.1163  -24.4549  -45.2025 O.2       12 UNK        -0.5000 
     74 N          -1.8649  -24.5332  -45.4642 N.am      13 UNK        -0.5000 
     75 CA         -1.6977  -25.9748  -45.3163 C.3       13 UNK         0.1400 
     76 CB         -0.4617  -26.2573  -44.4461 C.3       13 UNK        -0.1800 
     77 C          -1.5756  -26.6522  -46.6915 C.2       13 UNK         0.5000 
     78 O          -2.3507  -27.5596  -46.9924 O.2       13 UNK        -0.5000 
     79 N          -0.6039  -26.2058  -47.4995 N.am      14 UNK        -0.5000 
     80 CA         -0.1882  -26.8521  -48.7468 C.3       14 UNK         0.1400 
     81 CB          1.1677  -26.2749  -49.1823 C.3       14 UNK        -0.1800 
     82 C          -1.2073  -26.7374  -49.8933 C.2       14 UNK         0.5000 
     83 O          -1.3252  -27.6700  -50.6888 O.2       14 UNK        -0.5000 
     84 N          -1.9158  -25.6049  -49.9600 N.am      15 UNK        -0.5000 
     85 CA         -2.9266  -25.3007  -50.9752 C.3       15 UNK         0.1400 
     86 CB         -2.5228  -23.9945  -51.6819 C.3       15 UNK        -0.1800 
     87 C          -4.3332  -25.1908  -50.3546 C.2       15 UNK         0.5000 
     88 O          -5.2726  -24.7985  -51.0511 O.2       15 UNK        -0.5000 
     89 N          -4.4461  -25.4951  -49.0505 N.am      16 UNK        -0.5000 
     90 CA         -5.6394  -25.4391  -48.1958 C.3       16 UNK         0.1400 
     91 CB         -6.6492  -26.5186  -48.6368 C.3       16 UNK        -0.1800 
     92 C          -6.2952  -24.0412  -48.0994 C.2       16 UNK         0.5000 
     93 O          -7.4623  -23.9485  -47.7161 O.2       16 UNK        -0.5000 
     94 N          -5.5598  -22.9893  -48.4986 N.am      17 UNK        -0.5000 
     95 CA         -6.0391  -21.6307  -48.7930 C.3       17 UNK         0.1400 
     96 CB         -6.4714  -20.8936  -47.5064 C.3       17 UNK        -0.1800 
     97 C          -7.1365  -21.5910  -49.8873 C.2       17 UNK         0.5000 
     98 O          -7.9339  -20.6520  -49.9170 O.2       17 UNK        -0.5000 
     99 N          -7.1789  -22.6164  -50.7493 N.am      18 UNK        -0.5000 
    100 CA        -8.2230  -22.8325  -51.7477 C.3       18 UNK         0.1400 
    101 CB        -8.9459  -24.1540  -51.4394 C.3       18 UNK        -0.1800 
    102 C         -7.6308  -22.8539  -53.1612 C.2       18 UNK         0.5000 
    103 O         -8.1508  -22.1704  -54.0440 O.2       18 UNK        -0.5000 
    104 N         -6.5476  -23.6201  -53.3544 N.am      19 UNK        -0.5000 
    105 CA        -5.8387  -23.7182  -54.6329 C.3       19 UNK         0.1400 
    106 CB        -5.0673  -25.0464  -54.6887 C.3       19 UNK        -0.1800 
    107 C         -4.9125  -22.5132  -54.8907 C.2       19 UNK         0.5000 
    108 O         -4.5972  -22.2291  -56.0469 O.2       19 UNK        -0.5000 
    109 N         -4.5165  -21.8158  -53.8202 N.am      20 UNK        -0.5000 
    110 CA        -3.7384  -20.5851  -53.8320 C.3       20 UNK         0.1400 
    111 CB        -2.2472  -20.8909  -54.0575 C.3       20 UNK        -0.1800 
    112 C         -3.9684  -19.8827  -52.4882 C.2       20 UNK         0.5000 
    113 O         -4.0161  -20.5564  -51.4566 O.2       20 UNK        -0.5000 
    114 N         -4.1093  -18.5556  -52.5283 N.am      21 UNK        -0.5000 
    115 CA        -4.3771  -17.6633  -51.4031 C.3       21 UNK         0.1400 
    116 CB        -5.7721  -17.9402  -50.8063 C.3       21 UNK        -0.1800 
    117 C         -4.2819  -16.2143  -51.9095 C.2       21 UNK         0.5000 
    118 O         -4.2298  -15.9954  -53.1238 O.2       21 UNK        -0.5000 
    119 N         -4.2749  -15.2591  -50.9734 N.am      22 UNK        -0.5000 
    120 CA        -4.1961  -13.8088  -51.2389 C.3       22 UNK         0.1400 
    121 C         -5.4586  -13.0328  -50.7593 C.2       22 UNK         0.5000 
    122 N         -6.5296  -13.6948  -50.3368 N.am      22 UNK        -0.7600 
    123 O         -5.4797  -11.8053  -50.7852 O.2       22 UNK        -0.5000 
    124 C124       -2.8923  -13.1861  -50.6688 C.3       23 UNK        -0.0398 
    125 S125       -1.3866  -13.9199  -51.3934 S.3       23 UNK        -0.2404 
    126 C126       -0.9242  -15.0692  -50.0681 C.3       23 UNK        -0.0205 
    127 H127        9.2478  -17.4595  -47.8949 H         1 UNK         0.0600 
    128 H128        9.8617  -19.1103  -47.7707 H         1 UNK         0.0600 
    129 H129        9.7271  -18.1062  -46.3231 H         1 UNK         0.0600 
    130 H130        7.0282  -17.3889  -48.1464 H         1 UNK         0.3000 
    131 H131        5.3557  -19.6582  -47.4952 H         1 UNK         0.0600 
    132 H132        3.5742  -18.4189  -48.6385 H         1 UNK         0.0800 
    133 H133        5.0126  -18.5043  -49.5970 H         1 UNK         0.0800 
    134 H134        4.1066  -15.0397  -50.9179 H         1 UNK         0.0800 
    135 H135        4.6378  -16.6625  -51.2743 H         1 UNK         0.0800 
    136 H136        1.7658  -14.6311  -50.0392 H         1 UNK         0.1150 
    137 H137       -1.1637  -17.5988  -51.0352 H         1 UNK         0.1150 
    138 H138        3.0069  -18.4705  -51.4865 H         1 UNK         0.1150 
    139 H139       -0.5153  -19.6517  -52.0620 H         1 UNK         0.0800 
    140 H140        1.0874  -19.7627  -52.7476 H         1 UNK         0.0800 
    141 H141       -1.3677  -21.1024  -50.2196 H         1 UNK         0.0800 
    142 H142       -0.6756  -19.9816  -49.0690 H         1 UNK         0.0800 
    143 H143       -0.0965  -22.9808  -49.1008 H         1 UNK         0.0600 
    144 H144        1.0181  -20.8904  -47.4782 H         1 UNK         0.3000 
    145 H145        2.7193  -23.1974  -45.2823 H         1 UNK         0.0600 
    146 H146        4.4942  -21.6457  -46.0829 H         1 UNK         0.0600 
    147 H147        4.0069  -22.7462  -47.3638 H         1 UNK         0.0600 
    148 H148        3.4410  -21.0810  -47.3805 H         1 UNK         0.0600 
    149 H149        2.4174  -20.3342  -45.2355 H         1 UNK         0.3000 
    150 H150       -0.3816  -20.1782  -43.0893 H         1 UNK         0.0600 
    151 H151        1.2915  -20.6172  -41.3623 H         1 UNK         0.0600 
    152 H152        1.2012  -18.8805  -41.6068 H         1 UNK         0.0600 
    153 H153        2.5479  -19.8067  -42.2779 H         1 UNK         0.0600 
    154 H154        1.4028  -18.1600  -43.9580 H         1 UNK         0.3000 
    155 H155        1.0388  -16.8555  -45.5996 H         1 UNK         0.0600 
    156 H156        1.5185  -16.8612  -47.8881 H         1 UNK         0.0600 
    157 H157        0.2702  -18.0347  -48.2903 H         1 UNK         0.0600 
    158 H158        1.6978  -18.5497  -47.4417 H         1 UNK         0.0600 
    159 H159       -0.8820  -15.8014  -45.6935 H         1 UNK         0.3000 
    160 H160       -2.9970  -15.1418  -47.7252 H         1 UNK         0.0600 
    161 H161       -5.3190  -15.6587  -46.9628 H         1 UNK         0.0600 
    162 H162       -4.7476  -17.1658  -46.2454 H         1 UNK         0.0600 
    163 H163       -4.6597  -16.9295  -47.9793 H         1 UNK         0.0600 
    164 H164       -2.7404  -14.0053  -45.8911 H         1 UNK         0.3000 
    165 H165       -3.9583  -13.8052  -43.0591 H         1 UNK         0.0600 
    166 H166       -1.3321  -15.2105  -42.3402 H         1 UNK         0.0600 
    167 H167       -2.0735  -13.9293  -41.3826 H         1 UNK         0.0600 
    168 H168       -2.9021  -15.4627  -41.5912 H         1 UNK         0.0600 
    169 H169       -1.1863  -13.3107  -44.0318 H         1 UNK         0.3000 
    170 H170       -2.1295  -10.5121  -45.9052 H         1 UNK         0.0600 
    171 H171       -2.0290   -9.3322  -43.7021 H         1 UNK         0.0600 
    172 H172       -0.6399  -10.3038  -43.2306 H         1 UNK         0.0600 
    173 H173       -0.5150   -9.1694  -44.5764 H         1 UNK         0.0600 
    174 H174        0.4377  -11.4783  -45.1115 H         1 UNK         0.3000 
    175 H175        0.6624  -14.3127  -47.1875 H         1 UNK         0.0600 
    176 H176        1.9997  -11.5922  -47.6355 H         1 UNK         0.0600 
    177 H177        2.5980  -13.1530  -48.1988 H         1 UNK         0.0600 
    178 H178        1.1038  -12.4958  -48.8508 H         1 UNK         0.0600 
    179 H179        2.6812  -13.0738  -45.7077 H         1 UNK         0.3000 
    180 H180        3.0186  -13.1851  -43.4619 H         1 UNK         0.0600 
    181 H181        1.1308  -14.9401  -41.8063 H         1 UNK         0.0600 
    182 H182        1.0066  -13.1915  -41.9534 H         1 UNK         0.0600 
    183 H183        2.4198  -13.9059  -41.1939 H         1 UNK         0.0600 
    184 H184        3.1934  -15.8958  -42.6278 H         1 UNK         0.3000 
    185 H185        6.0838  -16.3012  -43.6702 H         1 UNK         0.0600 
    186 H186        5.2670  -18.6029  -42.9805 H         1 UNK         0.0600 
    187 H187        4.5919  -17.2894  -42.0366 H         1 UNK         0.0600 
    188 H188        3.6194  -18.0618  -43.2827 H         1 UNK         0.0600 
    189 H189        6.4206  -17.0573  -45.7104 H         1 UNK         0.3000 
    190 H190       -1.2930  -21.2795  -46.2414 H         1 UNK         0.3000 
    191 H191       -3.9607  -22.1853  -46.3148 H         1 UNK         0.0600 
    192 H192       -3.8915  -21.8119  -43.8511 H         1 UNK         0.0600 
    193 H193       -3.1130  -20.4897  -44.7071 H         1 UNK         0.0600 
    194 H194       -2.1355  -21.7181  -43.9021 H         1 UNK         0.0600 
    195 H195       -1.0315  -24.0017  -45.6813 H         1 UNK         0.3000 
    196 H196       -2.5625  -26.4056  -44.8072 H         1 UNK         0.0600 
    197 H197       -0.3020  -27.3300  -44.3308 H         1 UNK         0.0600 
    198 H198       -0.5836  -25.8372  -43.4476 H         1 UNK         0.0600 
    199 H199        0.4475  -25.8331  -44.8734 H         1 UNK         0.0600 
    200 H200       -0.0206  -25.4311  -47.1858 H         1 UNK         0.3000 
    201 H201       -0.0493  -27.9152  -48.5389 H         1 UNK         0.0600 
    202 H202        1.9223  -26.4128  -48.4078 H         1 UNK         0.0600 
    203 H203        1.1009  -25.2077  -49.3971 H         1 UNK         0.0600 
    204 H204        1.5327  -26.7690  -50.0836 H         1 UNK         0.0600 
    205 H205       -1.7836  -24.8897  -49.2536 H         1 UNK         0.3000 
    206 H206       -2.9733  -26.0924  -51.7251 H         1 UNK         0.0600 
    207 H207       -1.5038  -24.0495  -52.0650 H         1 UNK         0.0600 
    208 H208       -3.1710  -23.7900  -52.5298 H         1 UNK         0.0600 
    209 H209       -2.5846  -23.1314  -51.0204 H         1 UNK         0.0600 
    210 H210       -3.6029  -25.7980  -48.5843 H         1 UNK         0.3000 
    211 H211       -5.3067  -25.6932  -47.1897 H         1 UNK         0.0600 
    212 H212       -7.0752  -26.2974  -49.6157 H         1 UNK         0.0600 
    213 H213       -7.4763  -26.5971  -47.9304 H         1 UNK         0.0600 
    214 H214       -6.1780  -27.5001  -48.6901 H         1 UNK         0.0600 
    215 H215       -4.5926  -23.1689  -48.7480 H         1 UNK         0.3000 
    216 H216       -5.1823  -21.0943  -49.1996 H         1 UNK         0.0600 
    217 H217       -5.6730  -20.8642  -46.7684 H         1 UNK         0.0600 
    218 H218       -7.3411  -21.3600  -47.0435 H         1 UNK         0.0600 
    219 H219       -6.7342  -19.8568  -47.7201 H         1 UNK         0.0600 
    220 H220       -6.4728  -23.3425  -50.6757 H         1 UNK         0.3000 
    221 H221       -8.9627  -22.0301  -51.7151 H         1 UNK         0.0600 
    222 H222       -8.2634  -25.0045  -51.4609 H         1 UNK         0.0600 
    223 H223       -9.4089  -24.1255  -50.4527 H         1 UNK         0.0600 
    224 H224       -9.7364  -24.3465  -52.1658 H         1 UNK         0.0600 
    225 H225       -6.1638  -24.1502  -52.5762 H         1 UNK         0.3000 
    226 H226       -6.5740  -23.7338  -55.4404 H         1 UNK         0.0600 
    227 H227       -5.7497  -25.8950  -54.6390 H         1 UNK         0.0600 
    228 H228       -4.5075  -25.1356  -55.6206 H         1 UNK         0.0600 
    229 H229       -4.3586  -25.1460  -53.8688 H         1 UNK         0.0600 
    230 H230       -4.8357  -22.0954  -52.9017 H         1 UNK         0.3000 
    231 H231       -4.1042  -19.9446  -54.6374 H         1 UNK         0.0600 
    232 H232       -1.6696  -19.9685  -54.1210 H         1 UNK         0.0600 
    233 H233       -2.0867  -21.4336  -54.9890 H         1 UNK         0.0600 
    234 H234       -1.8318  -21.4903  -53.2465 H         1 UNK         0.0600 
    235 H235       -4.0363  -18.0609  -53.4102 H         1 UNK         0.3000 
    236 H236       -3.6118  -17.8155  -50.6391 H         1 UNK         0.0600 
    237 H237       -5.8155  -18.9252  -50.3459 H         1 UNK         0.0600 
    238 H238       -6.0292  -17.2220  -50.0280 H         1 UNK         0.0600 
    239 H239       -6.5515  -17.8925  -51.5677 H         1 UNK         0.0600 
    240 H240       -4.3519  -15.5193  -50.0023 H         1 UNK         0.3000 
    241 H241       -4.1797  -13.6412  -52.3171 H         1 UNK         0.0600 
    242 H242       -6.5609  -14.7005  -50.3549 H         1 UNK         0.3800 
    243 H243       -7.3406  -13.1762  -50.0371 H         1 UNK         0.3800 
    244 H244       -2.8550  -12.1167  -50.8827 H         1 UNK         0.0800 
    245 H245       -2.8647  -13.2736  -49.5815 H         1 UNK         0.0800 
    246 H246       -1.7962  -15.6493  -49.7688 H         1 UNK         0.0800 
    247 H247       -0.6116  -14.5044  -49.1914 H         1 UNK         0.0800 
@<TRIPOS>BOND
     1    1    2 1    
     2    1  127 1    
     3    1  128 1    
     4    1  129 1    
     5    2    3 2    
     6    2    4 am   BACKBONE|DICT|INTERRES
     7    4    5 1    
     8    4  130 1    
     9    5    6 1    
    10    5   65 1    
    11    5  131 1    
    12    6    7 1    
    13    6  132 1    
    14    6  133 1    
    15    7    8 1    
    16    8    9 1    
    17    8  134 1    
    18    8  135 1    
    19    9   10 ar   
    20    9   14 ar   
    21   10   11 ar   
    22   10  136 1    
    23   11   12 ar   
    24   11  126 1    
    25   12   13 ar   
    26   12  137 1    
    27   13   14 ar   
    28   13   15 1    
    29   14  138 1    
    30   15   16 1    
    31   15  139 1    
    32   15  140 1    
    33   16   17 1    
    34   17   18 1    
    35   17  141 1    
    36   17  142 1    
    37   18   19 1    
    38   18   67 1    
    39   18  143 1    
    40   19   20 am   BACKBONE|DICT|INTERRES
    41   19  144 1    
    42   20   21 2    
    43   20   22 1    
    44   22   23 1    
    45   22   24 1    
    46   22  145 1    
    47   23  146 1    
    48   23  147 1    
    49   23  148 1    
    50   24   25 am   BACKBONE|DICT|INTERRES
    51   24  149 1    
    52   25   26 2    
    53   25   27 1    
    54   27   28 1    
    55   27   29 1    
    56   27  150 1    
    57   28  151 1    
    58   28  152 1    
    59   28  153 1    
    60   29   30 am   BACKBONE|DICT|INTERRES
    61   29  154 1    
    62   30   31 2    
    63   30   32 1    
    64   32   33 1    
    65   32   34 1    
    66   32  155 1    
    67   33  156 1    
    68   33  157 1    
    69   33  158 1    
    70   34   35 am   BACKBONE|DICT|INTERRES
    71   34  159 1    
    72   35   36 2    
    73   35   37 1    
    74   37   38 1    
    75   37   39 1    
    76   37  160 1    
    77   38  161 1    
    78   38  162 1    
    79   38  163 1    
    80   39   40 am   BACKBONE|DICT|INTERRES
    81   39  164 1    
    82   40   41 2    
    83   40   42 1    
    84   42   43 1    
    85   42   44 1    
    86   42  165 1    
    87   43  166 1    
    88   43  167 1    
    89   43  168 1    
    90   44   45 am   BACKBONE|DICT|INTERRES
    91   44  169 1    
    92   45   46 2    
    93   45   47 1    
    94   47   48 1    
    95   47   49 1    
    96   47  170 1    
    97   48  171 1    
    98   48  172 1    
    99   48  173 1    
   100   49   50 am   BACKBONE|DICT|INTERRES
   101   49  174 1    
   102   50   51 2    
   103   50   52 1    
   104   52   53 1    
   105   52   54 1    
   106   52  175 1    
   107   53  176 1    
   108   53  177 1    
   109   53  178 1    
   110   54   55 am   BACKBONE|DICT|INTERRES
   111   54  179 1    
   112   55   56 2    
   113   55   57 1    
   114   57   58 1    
   115   57   59 1    
   116   57  180 1    
   117   58  181 1    
   118   58  182 1    
   119   58  183 1    
   120   59   60 am   BACKBONE|DICT|INTERRES
   121   59  184 1    
   122   60   61 2    
   123   60   62 1    
   124   62   63 1    
   125   62   64 1    
   126   62  185 1    
   127   63  186 1    
   128   63  187 1    
   129   63  188 1    
   130   64   65 am   BACKBONE|DICT|INTERRES
   131   64  189 1    
   132   65   66 2    
   133   67   68 2    
   134   67   69 am   BACKBONE|DICT|INTERRES
   135   69   70 1    
   136   69  190 1    
   137   70   71 1    
   138   70   72 1    
   139   70  191 1    
   140   71  192 1    
   141   71  193 1    
   142   71  194 1    
   143   72   73 2    
   144   72   74 am   BACKBONE|DICT|INTERRES
   145   74   75 1    
   146   74  195 1    
   147   75   76 1    
   148   75   77 1    
   149   75  196 1    
   150   76  197 1    
   151   76  198 1    
   152   76  199 1    
   153   77   78 2    
   154   77   79 am   BACKBONE|DICT|INTERRES
   155   79   80 1    
   156   79  200 1    
   157   80   81 1    
   158   80   82 1    
   159   80  201 1    
   160   81  202 1    
   161   81  203 1    
   162   81  204 1    
   163   82   83 2    
   164   82   84 am   BACKBONE|DICT|INTERRES
   165   84   85 1    
   166   84  205 1    
   167   85   86 1    
   168   85   87 1    
   169   85  206 1    
   170   86  207 1    
   171   86  208 1    
   172   86  209 1    
   173   87   88 2    
   174   87   89 am   BACKBONE|DICT|INTERRES
   175   89   90 1    
   176   89  210 1    
   177   90   91 1    
   178   90   92 1    
   179   90  211 1    
   180   91  212 1    
   181   91  213 1    
   182   91  214 1    
   183   92   93 2    
   184   92   94 am   BACKBONE|DICT|INTERRES
   185   94   95 1    
   186   94  215 1    
   187   95   96 1    
   188   95   97 1    
   189   95  216 1    
   190   96  217 1    
   191   96  218 1    
   192   96  219 1    
   193   97   98 2    
   194   97   99 am   BACKBONE|DICT|INTERRES
   195   99  100 1    
   196   99  220 1    
   197  100  101 1    
   198  100  102 1    
   199  100  221 1    
   200  101  222 1    
   201  101  223 1    
   202  101  224 1    
   203  102  103 2    
   204  102  104 am   BACKBONE|DICT|INTERRES
   205  104  105 1    
   206  104  225 1    
   207  105  106 1    
   208  105  107 1    
   209  105  226 1    
   210  106  227 1    
   211  106  228 1    
   212  106  229 1    
   213  107  108 2    
   214  107  109 am   BACKBONE|DICT|INTERRES
   215  109  110 1    
   216  109  230 1    
   217  110  111 1    
   218  110  112 1    
   219  110  231 1    
   220  111  232 1    
   221  111  233 1    
   222  111  234 1    
   223  112  113 2    
   224  112  114 am   BACKBONE|DICT|INTERRES
   225  114  115 1    
   226  114  235 1    
   227  115  116 1    
   228  115  117 1    
   229  115  236 1    
   230  116  237 1    
   231  116  238 1    
   232  116  239 1    
   233  117  118 2    
   234  117  119 am   BACKBONE|DICT|INTERRES
   235  119  120 1    
   236  119  240 1    
   237  120  121 1    
   238  120  124 1    
   239  120  241 1    
   240  121  122 am   BACKBONE|DICT|INTERRES
   241  121  123 2    
   242  122  242 1    
   243  122  243 1    
   244  124  125 1    
   245  124  244 1    
   246  124  245 1    
   247  125  126 1    
   248  126  246 1    
   249  126  247 1    
@<TRIPOS>SUBSTRUCTURE
     1 UNK         1 GROUP             0       ****    0 ROOT    
