@<TRIPOS>MOLECULE
3R540
247   249    1
SMALL
USER_CHARGES


@<TRIPOS>ATOM
      1 CA          7.0431  -14.2091  -50.0915 C.3       0 UNK        -0.1800 
      2 C           5.8456  -13.7928  -49.2491 C.2       0 UNK         0.5000 
      3 O           5.3985  -12.6519  -49.3583 O.2       0 UNK        -0.5000 
      4 N           5.3450  -14.7189  -48.4158 N.am      1 UNK        -0.5000 
      5 CA          4.1864  -14.6086  -47.5120 C.3       1 UNK         0.1400 
      6 C6          2.8170  -14.9563  -48.1679 C.3       23 UNK        -0.0398 
      7 S7          2.3065  -13.9472  -49.6026 S.3       23 UNK        -0.2404 
      8 C8          2.7573  -15.0224  -51.0043 C.3       23 UNK        -0.0205 
      9 C9          1.8527  -16.2414  -51.1248 C.ar      23 UNK        -0.0193 
     10 C10         0.5804  -16.1199  -51.6898 C.ar      23 UNK        -0.1150 
     11 C11        -0.2441  -17.2401  -51.8324 C.ar      23 UNK        -0.0193 
     12 C12         0.2066  -18.4889  -51.3945 C.ar      23 UNK        -0.1150 
     13 C13         1.4746  -18.6221  -50.8212 C.ar      23 UNK        -0.0193 
     14 C14         2.2950  -17.4969  -50.6974 C.ar      23 UNK        -0.1150 
     15 C15         1.9712  -19.9766  -50.3389 C.3       23 UNK        -0.0205 
     16 S16         1.6582  -20.2021  -48.5598 S.3       23 UNK        -0.2404 
     17 C17        -0.0955  -20.7067  -48.5403 C.3       23 UNK        -0.0398 
     18 CA         -0.3046  -21.9774  -47.6834 C.3       11 UNK         0.1400 
     19 N          -0.1608  -21.7109  -46.2491 N.am      11 UNK        -0.5000 
     20 C          -0.0954  -22.6487  -45.2950 C.2       10 UNK         0.5000 
     21 O          -0.1296  -23.8571  -45.5247 O.2       10 UNK        -0.5000 
     22 CA         -0.0392  -22.1580  -43.8366 C.3       10 UNK         0.1400 
     23 CB          1.3746  -21.6904  -43.4610 C.3       10 UNK        -0.1800 
     24 N          -1.0071  -21.0930  -43.5681 N.am      10 UNK        -0.5000 
     25 C          -2.3370  -21.2571  -43.6225 C.2       9 UNK         0.5000 
     26 O          -2.8811  -22.3348  -43.8618 O.2       9 UNK        -0.5000 
     27 CA         -3.2070  -20.0019  -43.4261 C.3       9 UNK         0.1400 
     28 CB         -3.3537  -19.6678  -41.9344 C.3       9 UNK        -0.1800 
     29 N          -2.6940  -18.8365  -44.1478 N.am      9 UNK        -0.5000 
     30 C          -2.5614  -18.7696  -45.4807 C.2       8 UNK         0.5000 
     31 O          -2.9056  -19.6687  -46.2446 O.2       8 UNK        -0.5000 
     32 CA         -1.8650  -17.5235  -46.0555 C.3       8 UNK         0.1400 
     33 CB         -2.8388  -16.3407  -46.1461 C.3       8 UNK        -0.1800 
     34 N          -0.6823  -17.1385  -45.2850 N.am      8 UNK        -0.5000 
     35 C           0.3894  -17.9221  -45.1006 C.2       7 UNK         0.5000 
     36 O           0.5100  -19.0401  -45.5953 O.2       7 UNK        -0.5000 
     37 CA          1.4844  -17.3970  -44.1607 C.3       7 UNK         0.1400 
     38 CB          2.4129  -16.4178  -44.8903 C.3       7 UNK        -0.1800 
     39 N           0.9155  -16.7711  -42.9683 N.am      7 UNK        -0.5000 
     40 C           0.3212  -17.4566  -41.9812 C.2       6 UNK         0.5000 
     41 O           0.2536  -18.6859  -41.9476 O.2       6 UNK        -0.5000 
     42 CA         -0.3478  -16.6280  -40.8697 C.3       6 UNK         0.1400 
     43 CB          0.6679  -16.2416  -39.7860 C.3       6 UNK        -0.1800 
     44 N          -0.9948  -15.4209  -41.3865 N.am      6 UNK        -0.5000 
     45 C          -2.1064  -15.4361  -42.1359 C.2       5 UNK         0.5000 
     46 O          -2.7029  -16.4660  -42.4475 O.2       5 UNK        -0.5000 
     47 CA         -2.6185  -14.0826  -42.6626 C.3       5 UNK         0.1400 
     48 CB         -3.5638  -13.4318  -41.6422 C.3       5 UNK        -0.1800 
     49 N          -1.5551  -13.1369  -43.0060 N.am      5 UNK        -0.5000 
     50 C          -0.5826  -13.3534  -43.9019 C.2       4 UNK         0.5000 
     51 O          -0.4540  -14.4070  -44.5256 O.2       4 UNK        -0.5000 
     52 CA          0.4344  -12.2216  -44.1362 C.3       4 UNK         0.1400 
     53 CB          0.0255  -10.8622  -43.5253 C.3       4 UNK        -0.1800 
     54 N           1.7778  -12.5969  -43.6920 N.am      4 UNK        -0.5000 
     55 C           2.1653  -12.9458  -42.4542 C.2       3 UNK         0.5000 
     56 O           1.3831  -13.0894  -41.5129 O.2       3 UNK        -0.5000 
     57 CA          3.6753  -13.1762  -42.2138 C.3       3 UNK         0.1400 
     58 CB          3.9451  -14.5693  -41.6222 C.3       3 UNK        -0.1800 
     59 N           4.4926  -12.9971  -43.4179 N.am      3 UNK        -0.5000 
     60 C           4.8799  -11.8113  -43.9107 C.2       2 UNK         0.5000 
     61 O           4.6456  -10.7359  -43.3588 O.2       2 UNK        -0.5000 
     62 CA          5.6284  -11.8190  -45.2597 C.3       2 UNK         0.1400 
     63 CB          7.1427  -11.6927  -45.0342 C.3       2 UNK        -0.1800 
     64 N           5.3714  -12.9965  -46.0962 N.am      2 UNK        -0.5000 
     65 C           4.1830  -13.3515  -46.6088 C.2       1 UNK         0.5000 
     66 O           3.1339  -12.7552  -46.3599 O.2       1 UNK        -0.5000 
     67 C          -1.6450  -22.6574  -48.0246 C.2       11 UNK         0.5000 
     68 O          -1.6702  -23.5041  -48.9167 O.2       11 UNK        -0.5000 
     69 N          -2.7273  -22.3029  -47.3200 N.am      12 UNK        -0.5000 
     70 CA         -4.0333  -22.9508  -47.4395 C.3       12 UNK         0.1400 
     71 CB         -5.1086  -22.0893  -46.7591 C.3       12 UNK        -0.1800 
     72 C          -4.0390  -24.3786  -46.8655 C.2       12 UNK         0.5000 
     73 O          -4.6710  -25.2588  -47.4479 O.2       12 UNK        -0.5000 
     74 N          -3.3401  -24.5836  -45.7425 N.am      13 UNK        -0.5000 
     75 CA         -3.2397  -25.8721  -45.0622 C.3       13 UNK         0.1400 
     76 CB         -2.7535  -25.6536  -43.6204 C.3       13 UNK        -0.1800 
     77 C          -2.3300  -26.8702  -45.7996 C.2       13 UNK         0.5000 
     78 O          -2.7386  -28.0111  -46.0201 O.2       13 UNK        -0.5000 
     79 N          -1.1069  -26.4387  -46.1335 N.am      14 UNK        -0.5000 
     80 CA         -0.0594  -27.2999  -46.6780 C.3       14 UNK         0.1400 
     81 CB          1.3196  -26.7505  -46.2736 C.3       14 UNK        -0.1800 
     82 C          -0.1686  -27.4624  -48.2014 C.2       14 UNK         0.5000 
     83 O          -0.3272  -28.5840  -48.6850 O.2       14 UNK        -0.5000 
     84 N          -0.0470  -26.3464  -48.9313 N.am      15 UNK        -0.5000 
     85 CA          0.0333  -26.3349  -50.3941 C.3       15 UNK         0.1400 
     86 CB          0.8276  -25.0944  -50.8376 C.3       15 UNK        -0.1800 
     87 C          -1.3440  -26.3596  -51.0786 C.2       15 UNK         0.5000 
     88 O          -1.4360  -26.7843  -52.2303 O.2       15 UNK        -0.5000 
     89 N          -2.3678  -25.8571  -50.3739 N.am      16 UNK        -0.5000 
     90 CA         -3.7241  -25.5526  -50.8448 C.3       16 UNK         0.1400 
     91 CB         -4.4544  -26.8143  -51.3472 C.3       16 UNK        -0.1800 
     92 C          -3.7701  -24.3896  -51.8594 C.2       16 UNK         0.5000 
     93 O          -4.7887  -24.2001  -52.5231 O.2       16 UNK        -0.5000 
     94 N          -2.6857  -23.6057  -51.9426 N.am      17 UNK        -0.5000 
     95 CA         -2.5222  -22.4939  -52.8776 C.3       17 UNK         0.1400 
     96 CB         -1.0558  -22.0344  -52.8736 C.3       17 UNK        -0.1800 
     97 C          -3.4700  -21.3315  -52.5524 C.2       17 UNK         0.5000 
     98 O          -4.2271  -20.8930  -53.4169 O.2       17 UNK        -0.5000 
     99 N          -3.4530  -20.8910  -51.2879 N.am      18 UNK        -0.5000 
    100 CA        -4.3342  -19.8364  -50.7843 C.3       18 UNK         0.1400 
    101 CB        -3.7820  -19.3073  -49.4550 C.3       18 UNK        -0.1800 
    102 C         -5.7983  -20.2985  -50.6485 C.2       18 UNK         0.5000 
    103 O         -6.7027  -19.4747  -50.7797 O.2       18 UNK        -0.5000 
    104 N         -6.0126  -21.6091  -50.4532 N.am      19 UNK        -0.5000 
    105 CA        -7.3360  -22.2420  -50.4464 C.3       19 UNK         0.1400 
    106 CB        -7.2240  -23.6738  -49.9004 C.3       19 UNK        -0.1800 
    107 C         -7.9937  -22.2372  -51.8412 C.2       19 UNK         0.5000 
    108 O         -9.2109  -22.0852  -51.9412 O.2       19 UNK        -0.5000 
    109 N         -7.1682  -22.3474  -52.8911 N.am      20 UNK        -0.5000 
    110 CA        -7.5495  -22.2142  -54.2986 C.3       20 UNK         0.1400 
    111 CB        -6.5465  -23.0087  -55.1525 C.3       20 UNK        -0.1800 
    112 C         -7.6431  -20.7447  -54.7709 C.2       20 UNK         0.5000 
    113 O         -7.8512  -20.5134  -55.9623 O.2       20 UNK        -0.5000 
    114 N         -7.4892  -19.7859  -53.8440 N.am      21 UNK        -0.5000 
    115 CA        -7.5099  -18.3317  -54.0368 C.3       21 UNK         0.1400 
    116 CB        -8.8568  -17.8532  -54.6198 C.3       21 UNK        -0.1800 
    117 C         -6.2851  -17.7903  -54.8043 C.2       21 UNK         0.5000 
    118 O         -6.3686  -16.7240  -55.4171 O.2       21 UNK        -0.5000 
    119 N         -5.1548  -18.5024  -54.7081 N.am      22 UNK        -0.5000 
    120 CA        -3.8489  -18.1537  -55.2844 C.3       22 UNK         0.1400 
    121 C         -3.7886  -18.2278  -56.8413 C.2       22 UNK         0.5000 
    122 N         -2.7057  -17.7662  -57.4530 N.am      22 UNK        -0.7600 
    123 O         -4.6880  -18.7367  -57.5067 O.2       22 UNK        -0.5000 
    124 C124       -3.2855  -16.8266  -54.6918 C.3       23 UNK        -0.0398 
    125 S125       -1.5163  -16.9532  -54.2675 S.3       23 UNK        -0.2404 
    126 C126       -1.6214  -17.0957  -52.4566 C.3       23 UNK        -0.0205 
    127 H127        7.8949  -13.5632  -49.8780 H         1 UNK         0.0600 
    128 H128        6.8038  -14.1204  -51.1512 H         1 UNK         0.0600 
    129 H129        7.3405  -15.2397  -49.8960 H         1 UNK         0.0600 
    130 H130        5.8019  -15.6199  -48.3935 H         1 UNK         0.3000 
    131 H131        4.3641  -15.4106  -46.7954 H         1 UNK         0.0600 
    132 H132        2.0161  -14.8895  -47.4305 H         1 UNK         0.0800 
    133 H133        2.8284  -16.0048  -48.4603 H         1 UNK         0.0800 
    134 H134        2.6961  -14.4391  -51.9241 H         1 UNK         0.0800 
    135 H135        3.8005  -15.3266  -50.9105 H         1 UNK         0.0800 
    136 H136        0.2346  -15.1531  -52.0282 H         1 UNK         0.1150 
    137 H137       -0.4301  -19.3545  -51.5018 H         1 UNK         0.1150 
    138 H138        3.2792  -17.6007  -50.2626 H         1 UNK         0.1150 
    139 H139        1.5177  -20.7865  -50.9121 H         1 UNK         0.0800 
    140 H140        3.0453  -20.0520  -50.5145 H         1 UNK         0.0800 
    141 H141       -0.4210  -20.8761  -49.5669 H         1 UNK         0.0800 
    142 H142       -0.6983  -19.8792  -48.1632 H         1 UNK         0.0800 
    143 H143        0.4714  -22.6968  -47.9546 H         1 UNK         0.0600 
    144 H144       -0.0660  -20.7329  -45.9803 H         1 UNK         0.3000 
    145 H145       -0.2921  -23.0044  -43.1947 H         1 UNK         0.0600 
    146 H146        1.4254  -21.3925  -42.4136 H         1 UNK         0.0600 
    147 H147        2.1004  -22.4910  -43.6081 H         1 UNK         0.0600 
    148 H148        1.6971  -20.8423  -44.0644 H         1 UNK         0.0600 
    149 H149       -0.6328  -20.1774  -43.3509 H         1 UNK         0.3000 
    150 H150       -4.2000  -20.2243  -43.8220 H         1 UNK         0.0600 
    151 H151       -3.7381  -20.5234  -41.3778 H         1 UNK         0.0600 
    152 H152       -4.0499  -18.8428  -41.7830 H         1 UNK         0.0600 
    153 H153       -2.3997  -19.3860  -41.4882 H         1 UNK         0.0600 
    154 H154       -2.4391  -18.0297  -43.5859 H         1 UNK         0.3000 
    155 H155       -1.5326  -17.7650  -47.0671 H         1 UNK         0.0600 
    156 H156       -3.2263  -16.0630  -45.1664 H         1 UNK         0.0600 
    157 H157       -3.6924  -16.5886  -46.7782 H         1 UNK         0.0600 
    158 H158       -2.3563  -15.4635  -46.5777 H         1 UNK         0.0600 
    159 H159       -0.6795  -16.2041  -44.8823 H         1 UNK         0.3000 
    160 H160        2.0856  -18.2538  -43.8484 H         1 UNK         0.0600 
    161 H161        1.9216  -15.4680  -45.1001 H         1 UNK         0.0600 
    162 H162        2.7385  -16.8435  -45.8398 H         1 UNK         0.0600 
    163 H163        3.3108  -16.2141  -44.3099 H         1 UNK         0.0600 
    164 H164        0.8559  -15.7633  -42.9622 H         1 UNK         0.3000 
    165 H165       -1.1126  -17.2550  -40.4060 H         1 UNK         0.0600 
    166 H166        0.1803  -15.7375  -38.9516 H         1 UNK         0.0600 
    167 H167        1.1690  -17.1240  -39.3859 H         1 UNK         0.0600 
    168 H168        1.4354  -15.5748  -40.1762 H         1 UNK         0.0600 
    169 H169       -0.5368  -14.5368  -41.2051 H         1 UNK         0.3000 
    170 H170       -3.1870  -14.2784  -43.5733 H         1 UNK         0.0600 
    171 H171       -4.3814  -14.1057  -41.3821 H         1 UNK         0.0600 
    172 H172       -3.0437  -13.1745  -40.7186 H         1 UNK         0.0600 
    173 H173       -4.0103  -12.5212  -42.0419 H         1 UNK         0.0600 
    174 H174       -1.5645  -12.2526  -42.5191 H         1 UNK         0.3000 
    175 H175        0.4950  -12.0909  -45.2177 H         1 UNK         0.0600 
    176 H176       -0.0227  -10.8928  -42.4363 H         1 UNK         0.0600 
    177 H177        0.7413  -10.0866  -43.7981 H         1 UNK         0.0600 
    178 H178       -0.9488  -10.5405  -43.8954 H         1 UNK         0.0600 
    179 H179        2.4797  -12.5719  -44.4235 H         1 UNK         0.3000 
    180 H180        3.9925  -12.4399  -41.4724 H         1 UNK         0.0600 
    181 H181        3.5024  -15.3631  -42.2213 H         1 UNK         0.0600 
    182 H182        3.5281  -14.6472  -40.6182 H         1 UNK         0.0600 
    183 H183        5.0141  -14.7655  -41.5370 H         1 UNK         0.0600 
    184 H184        4.7359  -13.8305  -43.9319 H         1 UNK         0.3000 
    185 H185        5.2928  -10.9427  -45.8180 H         1 UNK         0.0600 
    186 H186        7.3781  -10.8078  -44.4412 H         1 UNK         0.0600 
    187 H187        7.5441  -12.5583  -44.5056 H         1 UNK         0.0600 
    188 H188        7.6764  -11.5983  -45.9801 H         1 UNK         0.0600 
    189 H189        6.1798  -13.5438  -46.3542 H         1 UNK         0.3000 
    190 H190       -2.6586  -21.5313  -46.6616 H         1 UNK         0.3000 
    191 H191       -4.2806  -23.0221  -48.4998 H         1 UNK         0.0600 
    192 H192       -5.1971  -21.1125  -47.2332 H         1 UNK         0.0600 
    193 H193       -6.0882  -22.5647  -46.8167 H         1 UNK         0.0600 
    194 H194       -4.8858  -21.9275  -45.7044 H         1 UNK         0.0600 
    195 H195       -2.8950  -23.7923  -45.2895 H         1 UNK         0.3000 
    196 H196       -4.2391  -26.3098  -45.0111 H         1 UNK         0.0600 
    197 H197       -2.6679  -26.6015  -43.0877 H         1 UNK         0.0600 
    198 H198       -3.4504  -25.0285  -43.0619 H         1 UNK         0.0600 
    199 H199       -1.7767  -25.1697  -43.5914 H         1 UNK         0.0600 
    200 H200       -0.8414  -25.4797  -45.9147 H         1 UNK         0.3000 
    201 H201       -0.1519  -28.2932  -46.2330 H         1 UNK         0.0600 
    202 H202        1.4227  -26.7120  -45.1891 H         1 UNK         0.0600 
    203 H203        1.4904  -25.7443  -46.6576 H         1 UNK         0.0600 
    204 H204        2.1198  -27.3868  -46.6537 H         1 UNK         0.0600 
    205 H205        0.0441  -25.4582  -48.4600 H         1 UNK         0.3000 
    206 H206        0.5813  -27.2185  -50.7290 H         1 UNK         0.0600 
    207 H207        1.8361  -25.1054  -50.4240 H         1 UNK         0.0600 
    208 H208        0.9246  -25.0598  -51.9236 H         1 UNK         0.0600 
    209 H209        0.3487  -24.1672  -50.5231 H         1 UNK         0.0600 
    210 H210       -2.1407  -25.4702  -49.4651 H         1 UNK         0.3000 
    211 H211       -4.2676  -25.1933  -49.9733 H         1 UNK         0.0600 
    212 H212       -4.0368  -27.1826  -52.2843 H         1 UNK         0.0600 
    213 H213       -5.5108  -26.6082  -51.5233 H         1 UNK         0.0600 
    214 H214       -4.4002  -27.6185  -50.6135 H         1 UNK         0.0600 
    215 H215       -1.9180  -23.7998  -51.3155 H         1 UNK         0.3000 
    216 H216       -2.7664  -22.8504  -53.8806 H         1 UNK         0.0600 
    217 H217       -0.9127  -21.1693  -53.5228 H         1 UNK         0.0600 
    218 H218       -0.3985  -22.8245  -53.2372 H         1 UNK         0.0600 
    219 H219       -0.7187  -21.7583  -51.8747 H         1 UNK         0.0600 
    220 H220       -2.8268  -21.3261  -50.6282 H         1 UNK         0.3000 
    221 H221       -4.3275  -19.0114  -51.4999 H         1 UNK         0.0600 
    222 H222       -3.6938  -20.1026  -48.7185 H         1 UNK         0.0600 
    223 H223       -2.7953  -18.8625  -49.5854 H         1 UNK         0.0600 
    224 H224       -4.4315  -18.5390  -49.0337 H         1 UNK         0.0600 
    225 H225       -5.2142  -22.2211  -50.4047 H         1 UNK         0.3000 
    226 H226       -7.9795  -21.6721  -49.7727 H         1 UNK         0.0600 
    227 H227       -6.7851  -23.6884  -48.9035 H         1 UNK         0.0600 
    228 H228       -8.2089  -24.1363  -49.8252 H         1 UNK         0.0600 
    229 H229       -6.6177  -24.3090  -50.5450 H         1 UNK         0.0600 
    230 H230       -6.1863  -22.5283  -52.7201 H         1 UNK         0.3000 
    231 H231       -8.5366  -22.6589  -54.4389 H         1 UNK         0.0600 
    232 H232       -6.5048  -24.0527  -54.8411 H         1 UNK         0.0600 
    233 H233       -5.5394  -22.5979  -55.0763 H         1 UNK         0.0600 
    234 H234       -6.8275  -22.9974  -56.2062 H         1 UNK         0.0600 
    235 H235       -7.3186  -20.0833  -52.8925 H         1 UNK         0.3000 
    236 H236       -7.4312  -17.9079  -53.0348 H         1 UNK         0.0600 
    237 H237       -8.9349  -16.7663  -54.5787 H         1 UNK         0.0600 
    238 H238       -8.9770  -18.1465  -55.6628 H         1 UNK         0.0600 
    239 H239       -9.6974  -18.2583  -54.0563 H         1 UNK         0.0600 
    240 H240       -5.1718  -19.3916  -54.2181 H         1 UNK         0.3000 
    241 H241       -3.2082  -18.9727  -54.9573 H         1 UNK         0.0600 
    242 H242       -2.6457  -17.8225  -58.4580 H         1 UNK         0.3800 
    243 H243       -1.9406  -17.3683  -56.9291 H         1 UNK         0.3800 
    244 H244       -3.4332  -15.9891  -55.3759 H         1 UNK         0.0800 
    245 H245       -3.8281  -16.5457  -53.7882 H         1 UNK         0.0800 
    246 H246       -2.1153  -16.2135  -52.0463 H         1 UNK         0.0800 
    247 H247       -2.2464  -17.9518  -52.1999 H         1 UNK         0.0800 
@<TRIPOS>BOND
     1    1    2 1    
     2    1  127 1    
     3    1  128 1    
     4    1  129 1    
     5    2    3 2    
     6    2    4 am   BACKBONE|DICT|INTERRES
     7    4    5 1    
     8    4  130 1    
     9    5    6 1    
    10    5   65 1    
    11    5  131 1    
    12    6    7 1    
    13    6  132 1    
    14    6  133 1    
    15    7    8 1    
    16    8    9 1    
    17    8  134 1    
    18    8  135 1    
    19    9   10 ar   
    20    9   14 ar   
    21   10   11 ar   
    22   10  136 1    
    23   11   12 ar   
    24   11  126 1    
    25   12   13 ar   
    26   12  137 1    
    27   13   14 ar   
    28   13   15 1    
    29   14  138 1    
    30   15   16 1    
    31   15  139 1    
    32   15  140 1    
    33   16   17 1    
    34   17   18 1    
    35   17  141 1    
    36   17  142 1    
    37   18   19 1    
    38   18   67 1    
    39   18  143 1    
    40   19   20 am   BACKBONE|DICT|INTERRES
    41   19  144 1    
    42   20   21 2    
    43   20   22 1    
    44   22   23 1    
    45   22   24 1    
    46   22  145 1    
    47   23  146 1    
    48   23  147 1    
    49   23  148 1    
    50   24   25 am   BACKBONE|DICT|INTERRES
    51   24  149 1    
    52   25   26 2    
    53   25   27 1    
    54   27   28 1    
    55   27   29 1    
    56   27  150 1    
    57   28  151 1    
    58   28  152 1    
    59   28  153 1    
    60   29   30 am   BACKBONE|DICT|INTERRES
    61   29  154 1    
    62   30   31 2    
    63   30   32 1    
    64   32   33 1    
    65   32   34 1    
    66   32  155 1    
    67   33  156 1    
    68   33  157 1    
    69   33  158 1    
    70   34   35 am   BACKBONE|DICT|INTERRES
    71   34  159 1    
    72   35   36 2    
    73   35   37 1    
    74   37   38 1    
    75   37   39 1    
    76   37  160 1    
    77   38  161 1    
    78   38  162 1    
    79   38  163 1    
    80   39   40 am   BACKBONE|DICT|INTERRES
    81   39  164 1    
    82   40   41 2    
    83   40   42 1    
    84   42   43 1    
    85   42   44 1    
    86   42  165 1    
    87   43  166 1    
    88   43  167 1    
    89   43  168 1    
    90   44   45 am   BACKBONE|DICT|INTERRES
    91   44  169 1    
    92   45   46 2    
    93   45   47 1    
    94   47   48 1    
    95   47   49 1    
    96   47  170 1    
    97   48  171 1    
    98   48  172 1    
    99   48  173 1    
   100   49   50 am   BACKBONE|DICT|INTERRES
   101   49  174 1    
   102   50   51 2    
   103   50   52 1    
   104   52   53 1    
   105   52   54 1    
   106   52  175 1    
   107   53  176 1    
   108   53  177 1    
   109   53  178 1    
   110   54   55 am   BACKBONE|DICT|INTERRES
   111   54  179 1    
   112   55   56 2    
   113   55   57 1    
   114   57   58 1    
   115   57   59 1    
   116   57  180 1    
   117   58  181 1    
   118   58  182 1    
   119   58  183 1    
   120   59   60 am   BACKBONE|DICT|INTERRES
   121   59  184 1    
   122   60   61 2    
   123   60   62 1    
   124   62   63 1    
   125   62   64 1    
   126   62  185 1    
   127   63  186 1    
   128   63  187 1    
   129   63  188 1    
   130   64   65 am   BACKBONE|DICT|INTERRES
   131   64  189 1    
   132   65   66 2    
   133   67   68 2    
   134   67   69 am   BACKBONE|DICT|INTERRES
   135   69   70 1    
   136   69  190 1    
   137   70   71 1    
   138   70   72 1    
   139   70  191 1    
   140   71  192 1    
   141   71  193 1    
   142   71  194 1    
   143   72   73 2    
   144   72   74 am   BACKBONE|DICT|INTERRES
   145   74   75 1    
   146   74  195 1    
   147   75   76 1    
   148   75   77 1    
   149   75  196 1    
   150   76  197 1    
   151   76  198 1    
   152   76  199 1    
   153   77   78 2    
   154   77   79 am   BACKBONE|DICT|INTERRES
   155   79   80 1    
   156   79  200 1    
   157   80   81 1    
   158   80   82 1    
   159   80  201 1    
   160   81  202 1    
   161   81  203 1    
   162   81  204 1    
   163   82   83 2    
   164   82   84 am   BACKBONE|DICT|INTERRES
   165   84   85 1    
   166   84  205 1    
   167   85   86 1    
   168   85   87 1    
   169   85  206 1    
   170   86  207 1    
   171   86  208 1    
   172   86  209 1    
   173   87   88 2    
   174   87   89 am   BACKBONE|DICT|INTERRES
   175   89   90 1    
   176   89  210 1    
   177   90   91 1    
   178   90   92 1    
   179   90  211 1    
   180   91  212 1    
   181   91  213 1    
   182   91  214 1    
   183   92   93 2    
   184   92   94 am   BACKBONE|DICT|INTERRES
   185   94   95 1    
   186   94  215 1    
   187   95   96 1    
   188   95   97 1    
   189   95  216 1    
   190   96  217 1    
   191   96  218 1    
   192   96  219 1    
   193   97   98 2    
   194   97   99 am   BACKBONE|DICT|INTERRES
   195   99  100 1    
   196   99  220 1    
   197  100  101 1    
   198  100  102 1    
   199  100  221 1    
   200  101  222 1    
   201  101  223 1    
   202  101  224 1    
   203  102  103 2    
   204  102  104 am   BACKBONE|DICT|INTERRES
   205  104  105 1    
   206  104  225 1    
   207  105  106 1    
   208  105  107 1    
   209  105  226 1    
   210  106  227 1    
   211  106  228 1    
   212  106  229 1    
   213  107  108 2    
   214  107  109 am   BACKBONE|DICT|INTERRES
   215  109  110 1    
   216  109  230 1    
   217  110  111 1    
   218  110  112 1    
   219  110  231 1    
   220  111  232 1    
   221  111  233 1    
   222  111  234 1    
   223  112  113 2    
   224  112  114 am   BACKBONE|DICT|INTERRES
   225  114  115 1    
   226  114  235 1    
   227  115  116 1    
   228  115  117 1    
   229  115  236 1    
   230  116  237 1    
   231  116  238 1    
   232  116  239 1    
   233  117  118 2    
   234  117  119 am   BACKBONE|DICT|INTERRES
   235  119  120 1    
   236  119  240 1    
   237  120  121 1    
   238  120  124 1    
   239  120  241 1    
   240  121  122 am   BACKBONE|DICT|INTERRES
   241  121  123 2    
   242  122  242 1    
   243  122  243 1    
   244  124  125 1    
   245  124  244 1    
   246  124  245 1    
   247  125  126 1    
   248  126  246 1    
   249  126  247 1    
@<TRIPOS>SUBSTRUCTURE
     1 UNK         1 GROUP             0       ****    0 ROOT    
