@<TRIPOS>MOLECULE
3R540
247   249    1
SMALL
USER_CHARGES


@<TRIPOS>ATOM
      1 CA          1.2248  -11.7101  -54.4657 C.3       0 UNK        -0.1800 
      2 C           1.8018  -12.0524  -53.0998 C.2       0 UNK         0.5000 
      3 O           2.4178  -11.1996  -52.4612 O.2       0 UNK        -0.5000 
      4 N           1.5931  -13.2926  -52.6410 N.am      1 UNK        -0.5000 
      5 CA          2.0834  -13.8267  -51.3632 C.3       1 UNK         0.1400 
      6 C6          2.2890  -15.3690  -51.3956 C.3       23 UNK        -0.0398 
      7 S7          1.0173  -16.3833  -52.2402 S.3       23 UNK        -0.2404 
      8 C8         -0.5529  -15.9823  -51.3971 C.3       23 UNK        -0.0205 
      9 C9         -0.5960  -16.2203  -49.8866 C.ar      23 UNK        -0.0193 
     10 C10        -1.5053  -15.4765  -49.1285 C.ar      23 UNK        -0.1150 
     11 C11        -1.5621  -15.6079  -47.7396 C.ar      23 UNK        -0.0193 
     12 C12        -0.7222  -16.5309  -47.1089 C.ar      23 UNK        -0.1150 
     13 C13         0.1679  -17.3143  -47.8489 C.ar      23 UNK        -0.0193 
     14 C14         0.2308  -17.1478  -49.2375 C.ar      23 UNK        -0.1150 
     15 C15         1.1021  -18.2781  -47.1219 C.3       23 UNK        -0.0205 
     16 S16         1.2384  -19.9248  -47.8941 S.3       23 UNK        -0.2404 
     17 C17        -0.4083  -20.6472  -47.5960 C.3       23 UNK        -0.0398 
     18 CA         -0.3202  -22.1512  -47.2481 C.3       11 UNK         0.1400 
     19 N           0.2426  -22.4010  -45.9186 N.am      11 UNK        -0.5000 
     20 C           0.6182  -23.6110  -45.4797 C.2       10 UNK         0.5000 
     21 O           0.5921  -24.6292  -46.1709 O.2       10 UNK        -0.5000 
     22 CA          1.0398  -23.7116  -44.0054 C.3       10 UNK         0.1400 
     23 CB          2.5025  -23.2813  -43.8154 C.3       10 UNK        -0.1800 
     24 N           0.1674  -22.9164  -43.1417 N.am      10 UNK        -0.5000 
     25 C          -1.0998  -23.2419  -42.8492 C.2       9 UNK         0.5000 
     26 O          -1.6535  -24.2620  -43.2584 O.2       9 UNK        -0.5000 
     27 CA         -1.8938  -22.2463  -41.9832 C.3       9 UNK         0.1400 
     28 CB         -1.6316  -22.4995  -40.4914 C.3       9 UNK        -0.1800 
     29 N          -1.5940  -20.8491  -42.2968 N.am      9 UNK        -0.5000 
     30 C          -1.8829  -20.2568  -43.4634 C.2       8 UNK         0.5000 
     31 O          -2.4488  -20.8214  -44.3986 O.2       8 UNK        -0.5000 
     32 CA         -1.4180  -18.8015  -43.6371 C.3       8 UNK         0.1400 
     33 CB         -2.4587  -17.8488  -43.0362 C.3       8 UNK        -0.1800 
     34 N          -0.0971  -18.5144  -43.0654 N.am      8 UNK        -0.5000 
     35 C           1.0334  -19.1877  -43.3356 C.2       7 UNK         0.5000 
     36 O           1.0648  -20.1785  -44.0672 O.2       7 UNK        -0.5000 
     37 CA          2.3412  -18.6836  -42.6939 C.3       7 UNK         0.1400 
     38 CB          3.5199  -18.7786  -43.6792 C.3       7 UNK        -0.1800 
     39 N           2.2194  -17.2968  -42.2467 N.am      7 UNK        -0.5000 
     40 C           2.1861  -16.8783  -40.9738 C.2       6 UNK         0.5000 
     41 O           2.2725  -17.6338  -40.0055 O.2       6 UNK        -0.5000 
     42 CA          2.0176  -15.3610  -40.7324 C.3       6 UNK         0.1400 
     43 CB          3.3734  -14.7172  -40.4049 C.3       6 UNK        -0.1800 
     44 N           1.4222  -14.6523  -41.8679 N.am      6 UNK        -0.5000 
     45 C           0.1657  -14.8222  -42.3019 C.2       5 UNK         0.5000 
     46 O          -0.6639  -15.5032  -41.7011 O.2       5 UNK        -0.5000 
     47 CA         -0.2136  -14.1760  -43.6523 C.3       5 UNK         0.1400 
     48 CB         -1.0571  -12.9123  -43.4314 C.3       5 UNK        -0.1800 
     49 N           0.9308  -13.8414  -44.5077 N.am      5 UNK        -0.5000 
     50 C           1.8304  -14.7114  -44.9889 C.2       4 UNK         0.5000 
     51 O           1.7819  -15.9186  -44.7515 O.2       4 UNK        -0.5000 
     52 CA          2.9945  -14.1423  -45.8267 C.3       4 UNK         0.1400 
     53 CB          3.5487  -15.1780  -46.8211 C.3       4 UNK        -0.1800 
     54 N           2.6306  -12.9228  -46.5520 N.am      4 UNK        -0.5000 
     55 C           2.7092  -11.6734  -46.0715 C.2       3 UNK         0.5000 
     56 O           3.0804  -11.4171  -44.9260 O.2       3 UNK        -0.5000 
     57 CA          2.2928  -10.5128  -47.0020 C.3       3 UNK         0.1400 
     58 CB          3.5358   -9.8244  -47.5861 C.3       3 UNK        -0.1800 
     59 N           1.4210  -10.9205  -48.1046 N.am      3 UNK        -0.5000 
     60 C           0.1561  -11.3414  -47.9710 C.2       2 UNK         0.5000 
     61 O          -0.4498  -11.3431  -46.8991 O.2       2 UNK        -0.5000 
     62 CA         -0.5427  -11.8825  -49.2375 C.3       2 UNK         0.1400 
     63 CB         -1.4430  -10.8034  -49.8566 C.3       2 UNK        -0.1800 
     64 N           0.3462  -12.4131  -50.2822 N.am      2 UNK        -0.5000 
     65 C           1.2920  -13.3518  -50.1218 C.2       1 UNK         0.5000 
     66 O           1.5707  -13.8301  -49.0252 O.2       1 UNK        -0.5000 
     67 C          -1.6830  -22.8521  -47.4269 C.2       11 UNK         0.5000 
     68 O          -1.9043  -23.4714  -48.4667 O.2       11 UNK        -0.5000 
     69 N          -2.5507  -22.7934  -46.4051 N.am      12 UNK        -0.5000 
     70 CA         -3.8415  -23.4851  -46.3643 C.3       12 UNK         0.1400 
     71 CB         -4.6228  -23.0786  -45.1066 C.3       12 UNK        -0.1800 
     72 C          -3.6971  -25.0142  -46.4529 C.2       12 UNK         0.5000 
     73 O          -4.3961  -25.6376  -47.2529 O.2       12 UNK        -0.5000 
     74 N          -2.7536  -25.5769  -45.6820 N.am      13 UNK        -0.5000 
     75 CA         -2.3956  -26.9990  -45.6916 C.3       13 UNK         0.1400 
     76 CB         -1.3917  -27.2828  -44.5646 C.3       13 UNK        -0.1800 
     77 C          -1.8427  -27.4892  -47.0448 C.2       13 UNK         0.5000 
     78 O          -2.0442  -28.6519  -47.3949 O.2       13 UNK        -0.5000 
     79 N          -1.2125  -26.5870  -47.8080 N.am      14 UNK        -0.5000 
     80 CA         -0.7431  -26.7976  -49.1788 C.3       14 UNK         0.1400 
     81 CB          0.4814  -25.8968  -49.4242 C.3       14 UNK        -0.1800 
     82 C          -1.8551  -26.5696  -50.2298 C.2       14 UNK         0.5000 
     83 O          -1.5588  -26.1275  -51.3406 O.2       14 UNK        -0.5000 
     84 N          -3.1146  -26.8553  -49.8628 N.am      15 UNK        -0.5000 
     85 CA         -4.3399  -26.7100  -50.6574 C.3       15 UNK         0.1400 
     86 CB         -4.3479  -27.7089  -51.8335 C.3       15 UNK        -0.1800 
     87 C          -4.5792  -25.2540  -51.1026 C.2       15 UNK         0.5000 
     88 O          -4.8546  -24.9995  -52.2766 O.2       15 UNK        -0.5000 
     89 N          -4.4070  -24.3180  -50.1568 N.am      16 UNK        -0.5000 
     90 CA         -4.4434  -22.8606  -50.3456 C.3       16 UNK         0.1400 
     91 CB         -5.8792  -22.3870  -50.6493 C.3       16 UNK        -0.1800 
     92 C          -3.4074  -22.3663  -51.3787 C.2       16 UNK         0.5000 
     93 O          -3.6679  -21.4114  -52.1093 O.2       16 UNK        -0.5000 
     94 N          -2.2588  -23.0527  -51.4447 N.am      17 UNK        -0.5000 
     95 CA         -1.1737  -22.8858  -52.4168 C.3       17 UNK         0.1400 
     96 CB         -0.4793  -21.5217  -52.2249 C.3       17 UNK        -0.1800 
     97 C          -1.6084  -23.1311  -53.8819 C.2       17 UNK         0.5000 
     98 O          -0.9320  -22.6616  -54.7981 O.2       17 UNK        -0.5000 
     99 N          -2.7163  -23.8669  -54.0701 N.am      18 UNK        -0.5000 
    100 CA        -3.3835  -24.2040  -55.3293 C.3       18 UNK         0.1400 
    101 CB        -2.5205  -25.1968  -56.1356 C.3       18 UNK        -0.1800 
    102 C         -3.7869  -22.9541  -56.1520 C.2       18 UNK         0.5000 
    103 O         -3.1696  -22.6848  -57.1826 O.2       18 UNK        -0.5000 
    104 N         -4.7918  -22.1676  -55.7390 N.am      19 UNK        -0.5000 
    105 CA        -5.6735  -22.3253  -54.5789 C.3       19 UNK         0.1400 
    106 CB        -6.8331  -23.2828  -54.9240 C.3       19 UNK        -0.1800 
    107 C         -6.1748  -20.9389  -54.1165 C.2       19 UNK         0.5000 
    108 O         -7.3444  -20.7961  -53.7563 O.2       19 UNK        -0.5000 
    109 N         -5.2989  -19.9271  -54.1909 N.am      20 UNK        -0.5000 
    110 CA        -5.6333  -18.5135  -53.9983 C.3       20 UNK         0.1400 
    111 CB        -5.0302  -17.7218  -55.1717 C.3       20 UNK        -0.1800 
    112 C         -5.1524  -17.9197  -52.6586 C.2       20 UNK         0.5000 
    113 O         -5.5144  -16.7798  -52.3602 O.2       20 UNK        -0.5000 
    114 N         -4.3315  -18.6467  -51.8883 N.am      21 UNK        -0.5000 
    115 CA        -3.7568  -18.1589  -50.6316 C.3       21 UNK         0.1400 
    116 CB        -2.5399  -19.0124  -50.2562 C.3       21 UNK        -0.1800 
    117 C         -4.7587  -18.1527  -49.4659 C.2       21 UNK         0.5000 
    118 O         -5.7677  -18.8603  -49.5031 O.2       21 UNK        -0.5000 
    119 N         -4.4229  -17.3792  -48.4265 N.am      22 UNK        -0.5000 
    120 CA        -5.1784  -17.3036  -47.1678 C.3       22 UNK         0.1400 
    121 C         -4.8951  -18.4688  -46.1711 C.2       22 UNK         0.5000 
    122 N         -3.8813  -19.2968  -46.3970 N.am      22 UNK        -0.7600 
    123 O         -5.6077  -18.6200  -45.1829 O.2       22 UNK        -0.5000 
    124 C124       -5.0391  -15.9011  -46.5173 C.3       23 UNK        -0.0398 
    125 S125       -3.4518  -15.5650  -45.6704 S.3       23 UNK        -0.2404 
    126 C126       -2.4646  -14.6873  -46.9248 C.3       23 UNK        -0.0205 
    127 H127        0.5239  -10.8797  -54.3800 H         1 UNK         0.0600 
    128 H128        0.6976  -12.5564  -54.9067 H         1 UNK         0.0600 
    129 H129        2.0233  -11.4148  -55.1464 H         1 UNK         0.0600 
    130 H130        1.0783  -13.9527  -53.2075 H         1 UNK         0.3000 
    131 H131        3.0785  -13.4035  -51.2089 H         1 UNK         0.0600 
    132 H132        3.2190  -15.5676  -51.9296 H         1 UNK         0.0800 
    133 H133        2.4619  -15.7767  -50.3984 H         1 UNK         0.0800 
    134 H134       -1.3374  -16.5814  -51.8592 H         1 UNK         0.0800 
    135 H135       -0.8010  -14.9431  -51.6164 H         1 UNK         0.0800 
    136 H136       -2.1439  -14.7581  -49.6232 H         1 UNK         0.1150 
    137 H137       -0.7410  -16.6184  -46.0320 H         1 UNK         0.1150 
    138 H138        0.9320  -17.7395  -49.8070 H         1 UNK         0.1150 
    139 H139        2.0958  -17.8322  -47.0866 H         1 UNK         0.0800 
    140 H140        0.7915  -18.4004  -46.0857 H         1 UNK         0.0800 
    141 H141       -0.9790  -20.5059  -48.5125 H         1 UNK         0.0800 
    142 H142       -0.9269  -20.0955  -46.8107 H         1 UNK         0.0800 
    143 H143        0.3528  -22.6158  -47.9726 H         1 UNK         0.0600 
    144 H144        0.3450  -21.6032  -45.2989 H         1 UNK         0.3000 
    145 H145        0.9566  -24.7580  -43.7041 H         1 UNK         0.0600 
    146 H146        2.8079  -23.3701  -42.7728 H         1 UNK         0.0600 
    147 H147        3.1699  -23.9113  -44.4045 H         1 UNK         0.0600 
    148 H148        2.6697  -22.2507  -44.1278 H         1 UNK         0.0600 
    149 H149        0.5202  -22.0156  -42.8503 H         1 UNK         0.3000 
    150 H150       -2.9557  -22.4132  -42.1747 H         1 UNK         0.0600 
    151 H151       -1.8654  -23.5309  -40.2241 H         1 UNK         0.0600 
    152 H152       -2.2509  -21.8551  -39.8672 H         1 UNK         0.0600 
    153 H153       -0.5882  -22.3205  -40.2286 H         1 UNK         0.0600 
    154 H154       -1.1191  -20.3106  -41.5876 H         1 UNK         0.3000 
    155 H155       -1.3595  -18.6073  -44.7093 H         1 UNK         0.0600 
    156 H156       -3.4589  -18.0693  -43.4109 H         1 UNK         0.0600 
    157 H157       -2.2420  -16.8158  -43.3008 H         1 UNK         0.0600 
    158 H158       -2.4913  -17.9175  -41.9484 H         1 UNK         0.0600 
    159 H159       -0.0394  -17.7096  -42.4563 H         1 UNK         0.3000 
    160 H160        2.5525  -19.3414  -41.8491 H         1 UNK         0.0600 
    161 H161        3.3347  -18.1983  -44.5840 H         1 UNK         0.0600 
    162 H162        3.6989  -19.8107  -43.9828 H         1 UNK         0.0600 
    163 H163        4.4414  -18.4107  -43.2280 H         1 UNK         0.0600 
    164 H164        2.1043  -16.6193  -42.9963 H         1 UNK         0.3000 
    165 H165        1.3597  -15.2358  -39.8699 H         1 UNK         0.0600 
    166 H166        3.2608  -13.6601  -40.1632 H         1 UNK         0.0600 
    167 H167        3.8367  -15.1986  -39.5425 H         1 UNK         0.0600 
    168 H168        4.0700  -14.7996  -41.2402 H         1 UNK         0.0600 
    169 H169        2.0386  -14.0674  -42.4122 H         1 UNK         0.3000 
    170 H170       -0.8213  -14.9034  -44.1925 H         1 UNK         0.0600 
    171 H171       -1.4015  -12.4967  -44.3786 H         1 UNK         0.0600 
    172 H172       -1.9431  -13.1335  -42.8348 H         1 UNK         0.0600 
    173 H173       -0.4923  -12.1384  -42.9104 H         1 UNK         0.0600 
    174 H174        1.0459  -12.8663  -44.7444 H         1 UNK         0.3000 
    175 H175        3.7971  -13.9077  -45.1248 H         1 UNK         0.0600 
    176 H176        2.7736  -15.5405  -47.4963 H         1 UNK         0.0600 
    177 H177        4.3511  -14.7569  -47.4268 H         1 UNK         0.0600 
    178 H178        3.9572  -16.0442  -46.2992 H         1 UNK         0.0600 
    179 H179        2.2521  -13.0741  -47.4850 H         1 UNK         0.3000 
    180 H180        1.7523   -9.7845  -46.3938 H         1 UNK         0.0600 
    181 H181        4.1092  -10.5015  -48.2205 H         1 UNK         0.0600 
    182 H182        4.1993   -9.4760  -46.7934 H         1 UNK         0.0600 
    183 H183        3.2616   -8.9546  -48.1835 H         1 UNK         0.0600 
    184 H184        1.8386  -10.9593  -49.0228 H         1 UNK         0.3000 
    185 H185       -1.1802  -12.7028  -48.9094 H         1 UNK         0.0600 
    186 H186       -2.0400  -11.2081  -50.6740 H         1 UNK         0.0600 
    187 H187       -2.1378  -10.4010  -49.1181 H         1 UNK         0.0600 
    188 H188       -0.8582   -9.9695  -50.2468 H         1 UNK         0.0600 
    189 H189        0.2093  -12.0472  -51.2127 H         1 UNK         0.3000 
    190 H190       -2.3188  -22.2311  -45.5901 H         1 UNK         0.3000 
    191 H191       -4.4214  -23.1584  -47.2280 H         1 UNK         0.0600 
    192 H192       -4.8293  -22.0084  -45.0991 H         1 UNK         0.0600 
    193 H193       -5.5837  -23.5924  -45.0605 H         1 UNK         0.0600 
    194 H194       -4.0769  -23.3218  -44.1954 H         1 UNK         0.0600 
    195 H195       -2.2505  -24.9931  -45.0206 H         1 UNK         0.3000 
    196 H196       -3.3049  -27.5676  -45.4870 H         1 UNK         0.0600 
    197 H197       -1.1197  -28.3387  -44.5383 H         1 UNK         0.0600 
    198 H198       -1.8116  -27.0321  -43.5903 H         1 UNK         0.0600 
    199 H199       -0.4730  -26.7096  -44.6912 H         1 UNK         0.0600 
    200 H200       -1.0810  -25.6553  -47.4342 H         1 UNK         0.3000 
    201 H201       -0.4166  -27.8339  -49.2848 H         1 UNK         0.0600 
    202 H202        1.2529  -26.0675  -48.6731 H         1 UNK         0.0600 
    203 H203        0.2167  -24.8398  -49.3951 H         1 UNK         0.0600 
    204 H204        0.9296  -26.0967  -50.3981 H         1 UNK         0.0600 
    205 H205       -3.2548  -27.1774  -48.9148 H         1 UNK         0.3000 
    206 H206       -5.1689  -26.9682  -49.9970 H         1 UNK         0.0600 
    207 H207       -4.1951  -28.7300  -51.4844 H         1 UNK         0.0600 
    208 H208       -5.3036  -27.6852  -52.3584 H         1 UNK         0.0600 
    209 H209       -3.5698  -27.4839  -52.5637 H         1 UNK         0.0600 
    210 H210       -4.1456  -24.6367  -49.2312 H         1 UNK         0.3000 
    211 H211       -4.1508  -22.4058  -49.4002 H         1 UNK         0.0600 
    212 H212       -6.2634  -22.8103  -51.5766 H         1 UNK         0.0600 
    213 H213       -5.9263  -21.3015  -50.7423 H         1 UNK         0.0600 
    214 H214       -6.5610  -22.6700  -49.8476 H         1 UNK         0.0600 
    215 H215       -2.1357  -23.8121  -50.7863 H         1 UNK         0.3000 
    216 H216       -0.4442  -23.6625  -52.1836 H         1 UNK         0.0600 
    217 H217        0.4542  -21.4768  -52.7864 H         1 UNK         0.0600 
    218 H218       -1.1059  -20.7008  -52.5734 H         1 UNK         0.0600 
    219 H219       -0.2368  -21.3418  -51.1772 H         1 UNK         0.0600 
    220 H220       -3.2016  -24.1957  -53.2424 H         1 UNK         0.3000 
    221 H221       -4.2957  -24.7341  -55.0607 H         1 UNK         0.0600 
    222 H222       -1.5658  -24.7625  -56.4337 H         1 UNK         0.0600 
    223 H223       -2.3111  -26.0953  -55.5549 H         1 UNK         0.0600 
    224 H224       -3.0352  -25.5104  -57.0445 H         1 UNK         0.0600 
    225 H225       -5.0019  -21.3536  -56.2992 H         1 UNK         0.3000 
    226 H226       -5.1187  -22.7513  -53.7471 H         1 UNK         0.0600 
    227 H227       -6.4803  -24.2568  -55.2586 H         1 UNK         0.0600 
    228 H228       -7.4642  -23.4582  -54.0518 H         1 UNK         0.0600 
    229 H229       -7.4663  -22.8734  -55.7118 H         1 UNK         0.0600 
    230 H230       -4.3388  -20.1381  -54.4247 H         1 UNK         0.3000 
    231 H231       -6.7161  -18.3761  -54.0303 H         1 UNK         0.0600 
    232 H232       -3.9425  -17.8007  -55.1930 H         1 UNK         0.0600 
    233 H233       -5.2813  -16.6624  -55.1039 H         1 UNK         0.0600 
    234 H234       -5.4117  -18.0818  -56.1273 H         1 UNK         0.0600 
    235 H235       -4.1243  -19.6106  -52.1396 H         1 UNK         0.3000 
    236 H236       -3.4197  -17.1327  -50.7889 H         1 UNK         0.0600 
    237 H237       -1.7992  -19.0290  -51.0547 H         1 UNK         0.0600 
    238 H238       -2.0524  -18.6138  -49.3689 H         1 UNK         0.0600 
    239 H239       -2.8218  -20.0357  -50.0205 H         1 UNK         0.0600 
    240 H240       -3.5628  -16.8502  -48.4527 H         1 UNK         0.3000 
    241 H241       -6.2343  -17.4082  -47.4254 H         1 UNK         0.0600 
    242 H242       -3.3034  -19.1703  -47.2077 H         1 UNK         0.3800 
    243 H243       -3.6605  -20.0126  -45.7147 H         1 UNK         0.3800 
    244 H244       -5.8243  -15.7801  -45.7694 H         1 UNK         0.0800 
    245 H245       -5.2319  -15.1230  -47.2568 H         1 UNK         0.0800 
    246 H246       -1.8256  -13.9657  -46.4143 H         1 UNK         0.0800 
    247 H247       -3.1216  -14.1019  -47.5691 H         1 UNK         0.0800 
@<TRIPOS>BOND
     1    1    2 1    
     2    1  127 1    
     3    1  128 1    
     4    1  129 1    
     5    2    3 2    
     6    2    4 am   BACKBONE|DICT|INTERRES
     7    4    5 1    
     8    4  130 1    
     9    5    6 1    
    10    5   65 1    
    11    5  131 1    
    12    6    7 1    
    13    6  132 1    
    14    6  133 1    
    15    7    8 1    
    16    8    9 1    
    17    8  134 1    
    18    8  135 1    
    19    9   10 ar   
    20    9   14 ar   
    21   10   11 ar   
    22   10  136 1    
    23   11   12 ar   
    24   11  126 1    
    25   12   13 ar   
    26   12  137 1    
    27   13   14 ar   
    28   13   15 1    
    29   14  138 1    
    30   15   16 1    
    31   15  139 1    
    32   15  140 1    
    33   16   17 1    
    34   17   18 1    
    35   17  141 1    
    36   17  142 1    
    37   18   19 1    
    38   18   67 1    
    39   18  143 1    
    40   19   20 am   BACKBONE|DICT|INTERRES
    41   19  144 1    
    42   20   21 2    
    43   20   22 1    
    44   22   23 1    
    45   22   24 1    
    46   22  145 1    
    47   23  146 1    
    48   23  147 1    
    49   23  148 1    
    50   24   25 am   BACKBONE|DICT|INTERRES
    51   24  149 1    
    52   25   26 2    
    53   25   27 1    
    54   27   28 1    
    55   27   29 1    
    56   27  150 1    
    57   28  151 1    
    58   28  152 1    
    59   28  153 1    
    60   29   30 am   BACKBONE|DICT|INTERRES
    61   29  154 1    
    62   30   31 2    
    63   30   32 1    
    64   32   33 1    
    65   32   34 1    
    66   32  155 1    
    67   33  156 1    
    68   33  157 1    
    69   33  158 1    
    70   34   35 am   BACKBONE|DICT|INTERRES
    71   34  159 1    
    72   35   36 2    
    73   35   37 1    
    74   37   38 1    
    75   37   39 1    
    76   37  160 1    
    77   38  161 1    
    78   38  162 1    
    79   38  163 1    
    80   39   40 am   BACKBONE|DICT|INTERRES
    81   39  164 1    
    82   40   41 2    
    83   40   42 1    
    84   42   43 1    
    85   42   44 1    
    86   42  165 1    
    87   43  166 1    
    88   43  167 1    
    89   43  168 1    
    90   44   45 am   BACKBONE|DICT|INTERRES
    91   44  169 1    
    92   45   46 2    
    93   45   47 1    
    94   47   48 1    
    95   47   49 1    
    96   47  170 1    
    97   48  171 1    
    98   48  172 1    
    99   48  173 1    
   100   49   50 am   BACKBONE|DICT|INTERRES
   101   49  174 1    
   102   50   51 2    
   103   50   52 1    
   104   52   53 1    
   105   52   54 1    
   106   52  175 1    
   107   53  176 1    
   108   53  177 1    
   109   53  178 1    
   110   54   55 am   BACKBONE|DICT|INTERRES
   111   54  179 1    
   112   55   56 2    
   113   55   57 1    
   114   57   58 1    
   115   57   59 1    
   116   57  180 1    
   117   58  181 1    
   118   58  182 1    
   119   58  183 1    
   120   59   60 am   BACKBONE|DICT|INTERRES
   121   59  184 1    
   122   60   61 2    
   123   60   62 1    
   124   62   63 1    
   125   62   64 1    
   126   62  185 1    
   127   63  186 1    
   128   63  187 1    
   129   63  188 1    
   130   64   65 am   BACKBONE|DICT|INTERRES
   131   64  189 1    
   132   65   66 2    
   133   67   68 2    
   134   67   69 am   BACKBONE|DICT|INTERRES
   135   69   70 1    
   136   69  190 1    
   137   70   71 1    
   138   70   72 1    
   139   70  191 1    
   140   71  192 1    
   141   71  193 1    
   142   71  194 1    
   143   72   73 2    
   144   72   74 am   BACKBONE|DICT|INTERRES
   145   74   75 1    
   146   74  195 1    
   147   75   76 1    
   148   75   77 1    
   149   75  196 1    
   150   76  197 1    
   151   76  198 1    
   152   76  199 1    
   153   77   78 2    
   154   77   79 am   BACKBONE|DICT|INTERRES
   155   79   80 1    
   156   79  200 1    
   157   80   81 1    
   158   80   82 1    
   159   80  201 1    
   160   81  202 1    
   161   81  203 1    
   162   81  204 1    
   163   82   83 2    
   164   82   84 am   BACKBONE|DICT|INTERRES
   165   84   85 1    
   166   84  205 1    
   167   85   86 1    
   168   85   87 1    
   169   85  206 1    
   170   86  207 1    
   171   86  208 1    
   172   86  209 1    
   173   87   88 2    
   174   87   89 am   BACKBONE|DICT|INTERRES
   175   89   90 1    
   176   89  210 1    
   177   90   91 1    
   178   90   92 1    
   179   90  211 1    
   180   91  212 1    
   181   91  213 1    
   182   91  214 1    
   183   92   93 2    
   184   92   94 am   BACKBONE|DICT|INTERRES
   185   94   95 1    
   186   94  215 1    
   187   95   96 1    
   188   95   97 1    
   189   95  216 1    
   190   96  217 1    
   191   96  218 1    
   192   96  219 1    
   193   97   98 2    
   194   97   99 am   BACKBONE|DICT|INTERRES
   195   99  100 1    
   196   99  220 1    
   197  100  101 1    
   198  100  102 1    
   199  100  221 1    
   200  101  222 1    
   201  101  223 1    
   202  101  224 1    
   203  102  103 2    
   204  102  104 am   BACKBONE|DICT|INTERRES
   205  104  105 1    
   206  104  225 1    
   207  105  106 1    
   208  105  107 1    
   209  105  226 1    
   210  106  227 1    
   211  106  228 1    
   212  106  229 1    
   213  107  108 2    
   214  107  109 am   BACKBONE|DICT|INTERRES
   215  109  110 1    
   216  109  230 1    
   217  110  111 1    
   218  110  112 1    
   219  110  231 1    
   220  111  232 1    
   221  111  233 1    
   222  111  234 1    
   223  112  113 2    
   224  112  114 am   BACKBONE|DICT|INTERRES
   225  114  115 1    
   226  114  235 1    
   227  115  116 1    
   228  115  117 1    
   229  115  236 1    
   230  116  237 1    
   231  116  238 1    
   232  116  239 1    
   233  117  118 2    
   234  117  119 am   BACKBONE|DICT|INTERRES
   235  119  120 1    
   236  119  240 1    
   237  120  121 1    
   238  120  124 1    
   239  120  241 1    
   240  121  122 am   BACKBONE|DICT|INTERRES
   241  121  123 2    
   242  122  242 1    
   243  122  243 1    
   244  124  125 1    
   245  124  244 1    
   246  124  245 1    
   247  125  126 1    
   248  126  246 1    
   249  126  247 1    
@<TRIPOS>SUBSTRUCTURE
     1 UNK         1 GROUP             0       ****    0 ROOT    
