@<TRIPOS>MOLECULE
3R540
247   249    1
SMALL
USER_CHARGES


@<TRIPOS>ATOM
      1 CA          1.4718  -12.4304  -50.0141 C.3       0 UNK        -0.1800 
      2 C           2.7688  -12.4842  -49.2199 C.2       0 UNK         0.5000 
      3 O           3.3928  -11.4482  -48.9904 O.2       0 UNK        -0.5000 
      4 N           3.1769  -13.6914  -48.8083 N.am      1 UNK        -0.5000 
      5 CA          4.4217  -13.9691  -48.0772 C.3       1 UNK         0.1400 
      6 C6          4.7166  -15.4860  -47.9903 C.3       23 UNK        -0.0398 
      7 S7          4.8670  -16.2878  -49.6249 S.3       23 UNK        -0.2404 
      8 C8          3.6558  -17.6427  -49.5061 C.3       23 UNK        -0.0205 
      9 C9          2.3385  -17.2978  -50.1859 C.ar      23 UNK        -0.0193 
     10 C10         2.0668  -17.7835  -51.4684 C.ar      23 UNK        -0.1150 
     11 C11         0.8528  -17.4930  -52.0975 C.ar      23 UNK        -0.0193 
     12 C12        -0.0943  -16.7075  -51.4341 C.ar      23 UNK        -0.1150 
     13 C13         0.1673  -16.2086  -50.1552 C.ar      23 UNK        -0.0193 
     14 C14         1.3846  -16.5099  -49.5358 C.ar      23 UNK        -0.1150 
     15 C15        -0.8569  -15.3265  -49.4533 C.3       23 UNK        -0.0205 
     16 S16        -2.2836  -16.2718  -48.8300 S.3       23 UNK        -0.2404 
     17 C17        -1.4905  -17.3924  -47.6325 C.3       23 UNK        -0.0398 
     18 CA         -1.6026  -18.8770  -48.0549 C.3       11 UNK         0.1400 
     19 N          -0.3816  -19.6303  -47.7598 N.am      11 UNK        -0.5000 
     20 C          -0.1063  -20.8447  -48.2573 C.2       10 UNK         0.5000 
     21 O          -0.8385  -21.4413  -49.0430 O.2       10 UNK        -0.5000 
     22 CA          1.1765  -21.5304  -47.7549 C.3       10 UNK         0.1400 
     23 CB          2.3606  -21.1957  -48.6709 C.3       10 UNK        -0.1800 
     24 N           1.5089  -21.1659  -46.3778 N.am      10 UNK        -0.5000 
     25 C           0.7626  -21.4523  -45.3046 C.2       9 UNK         0.5000 
     26 O          -0.2878  -22.0923  -45.3615 O.2       9 UNK        -0.5000 
     27 CA          1.2325  -20.8806  -43.9559 C.3       9 UNK         0.1400 
     28 CB          2.4103  -21.6844  -43.3757 C.3       9 UNK        -0.1800 
     29 N           1.5213  -19.4421  -43.9966 N.am      9 UNK        -0.5000 
     30 C           2.5076  -18.7784  -44.6178 C.2       8 UNK         0.5000 
     31 O           3.3656  -19.3109  -45.3222 O.2       8 UNK        -0.5000 
     32 CA          2.5149  -17.2482  -44.4412 C.3       8 UNK         0.1400 
     33 CB          1.6457  -16.5904  -45.5215 C.3       8 UNK        -0.1800 
     34 N           2.0395  -16.8318  -43.1221 N.am      8 UNK        -0.5000 
     35 C           2.6998  -17.0467  -41.9747 C.2       7 UNK         0.5000 
     36 O           3.8324  -17.5255  -41.9115 O.2       7 UNK        -0.5000 
     37 CA          1.9469  -16.7021  -40.6786 C.3       7 UNK         0.1400 
     38 CB          2.1076  -15.2149  -40.3272 C.3       7 UNK        -0.1800 
     39 N           0.5256  -17.0411  -40.7790 N.am      7 UNK        -0.5000 
     40 C           0.0445  -18.2926  -40.7215 C.2       6 UNK         0.5000 
     41 O           0.7413  -19.2834  -40.5038 O.2       6 UNK        -0.5000 
     42 CA         -1.4645  -18.4762  -40.9701 C.3       6 UNK         0.1400 
     43 CB         -2.2384  -18.4364  -39.6442 C.3       6 UNK        -0.1800 
     44 N          -2.0167  -17.4703  -41.8772 N.am      6 UNK        -0.5000 
     45 C          -1.7888  -17.4281  -43.1965 C.2       5 UNK         0.5000 
     46 O          -1.1138  -18.2577  -43.8066 O.2       5 UNK        -0.5000 
     47 CA         -2.3895  -16.2346  -43.9576 C.3       5 UNK         0.1400 
     48 CB         -3.8022  -16.5700  -44.4593 C.3       5 UNK        -0.1800 
     49 N          -2.4231  -14.9962  -43.1778 N.am      5 UNK        -0.5000 
     50 C          -1.3303  -14.3459  -42.7599 C.2       4 UNK         0.5000 
     51 O          -0.1803  -14.7659  -42.9183 O.2       4 UNK        -0.5000 
     52 CA         -1.5612  -13.0304  -42.0092 C.3       4 UNK         0.1400 
     53 CB         -1.4433  -13.2488  -40.4928 C.3       4 UNK        -0.1800 
     54 N          -0.5492  -12.0719  -42.4389 N.am      4 UNK        -0.5000 
     55 C          -0.7979  -10.8796  -42.9942 C.2       3 UNK         0.5000 
     56 O          -1.9292  -10.4118  -43.1322 O.2       3 UNK        -0.5000 
     57 CA          0.4156  -10.0598  -43.4786 C.3       3 UNK         0.1400 
     58 CB          0.7425   -8.9441  -42.4733 C.3       3 UNK        -0.1800 
     59 N           1.6234  -10.8590  -43.7042 N.am      3 UNK        -0.5000 
     60 C           1.7970  -11.7127  -44.7206 C.2       2 UNK         0.5000 
     61 O           0.9465  -11.9394  -45.5860 O.2       2 UNK        -0.5000 
     62 CA          3.1472  -12.4415  -44.7601 C.3       2 UNK         0.1400 
     63 CB          3.2413  -13.4953  -43.6418 C.3       2 UNK        -0.1800 
     64 N           3.3027  -13.0771  -46.0640 N.am      2 UNK        -0.5000 
     65 C           4.4686  -13.3500  -46.6607 C.2       1 UNK         0.5000 
     66 O           5.5633  -13.1392  -46.1362 O.2       1 UNK        -0.5000 
     67 C          -2.8420  -19.5453  -47.4239 C.2       11 UNK         0.5000 
     68 O          -3.8724  -19.6689  -48.0854 O.2       11 UNK        -0.5000 
     69 N          -2.7076  -20.0040  -46.1691 N.am      12 UNK        -0.5000 
     70 CA         -3.7374  -20.7691  -45.4640 C.3       12 UNK         0.1400 
     71 CB         -3.3632  -20.9188  -43.9817 C.3       12 UNK        -0.1800 
     72 C          -3.9864  -22.1399  -46.1165 C.2       12 UNK         0.5000 
     73 O          -5.1413  -22.5392  -46.2615 O.2       12 UNK        -0.5000 
     74 N          -2.9083  -22.8077  -46.5527 N.am      13 UNK        -0.5000 
     75 CA         -2.9709  -24.0480  -47.3258 C.3       13 UNK         0.1400 
     76 CB         -1.5638  -24.6385  -47.4886 C.3       13 UNK        -0.1800 
     77 C          -3.6515  -23.8574  -48.6937 C.2       13 UNK         0.5000 
     78 O          -4.4507  -24.7049  -49.0876 O.2       13 UNK        -0.5000 
     79 N          -3.3599  -22.7439  -49.3802 N.am      14 UNK        -0.5000 
     80 CA         -4.0006  -22.3563  -50.6374 C.3       14 UNK         0.1400 
     81 CB         -3.2679  -21.1617  -51.2638 C.3       14 UNK        -0.1800 
     82 C          -5.5006  -22.0614  -50.4706 C.2       14 UNK         0.5000 
     83 O          -6.2999  -22.5239  -51.2840 O.2       14 UNK        -0.5000 
     84 N          -5.8639  -21.3479  -49.3951 N.am      15 UNK        -0.5000 
     85 CA         -7.2502  -21.0629  -49.0138 C.3       15 UNK         0.1400 
     86 CB         -7.2656  -20.0662  -47.8450 C.3       15 UNK        -0.1800 
     87 C          -8.0516  -22.3330  -48.6636 C.2       15 UNK         0.5000 
     88 O          -9.2315  -22.4220  -49.0043 O.2       15 UNK        -0.5000 
     89 N          -7.3860  -23.3058  -48.0269 N.am      16 UNK        -0.5000 
     90 CA         -7.9222  -24.6329  -47.7166 C.3       16 UNK         0.1400 
     91 CB         -7.0803  -25.2475  -46.5864 C.3       16 UNK        -0.1800 
     92 C          -7.9630  -25.5864  -48.9309 C.2       16 UNK         0.5000 
     93 O          -8.5462  -26.6654  -48.8202 O.2       16 UNK        -0.5000 
     94 N          -7.3282  -25.1933  -50.0462 N.am      17 UNK        -0.5000 
     95 CA         -7.1184  -25.9568  -51.2825 C.3       17 UNK         0.1400 
     96 CB         -8.4586  -26.2777  -51.9761 C.3       17 UNK        -0.1800 
     97 C          -6.2207  -27.2006  -51.0929 C.2       17 UNK         0.5000 
     98 O          -6.3084  -28.1516  -51.8717 O.2       17 UNK        -0.5000 
     99 N          -5.3548  -27.1617  -50.0726 N.am      18 UNK        -0.5000 
    100 CA        -4.3178  -28.1557  -49.7998 C.3       18 UNK         0.1400 
    101 CB        -4.0245  -28.1607  -48.2914 C.3       18 UNK        -0.1800 
    102 C         -3.0328  -27.8675  -50.5999 C.2       18 UNK         0.5000 
    103 O         -2.2606  -28.7907  -50.8605 O.2       18 UNK        -0.5000 
    104 N         -2.8387  -26.6004  -50.9823 N.am      19 UNK        -0.5000 
    105 CA        -1.7817  -26.1153  -51.8633 C.3       19 UNK         0.1400 
    106 CB        -0.8389  -25.2049  -51.0572 C.3       19 UNK        -0.1800 
    107 C         -2.4171  -25.3467  -53.0334 C.2       19 UNK         0.5000 
    108 O         -3.6183  -25.0632  -53.0116 O.2       19 UNK        -0.5000 
    109 N         -1.5970  -25.0161  -54.0360 N.am      20 UNK        -0.5000 
    110 CA        -1.9834  -24.1720  -55.1648 C.3       20 UNK         0.1400 
    111 CB        -1.0088  -24.4174  -56.3272 C.3       20 UNK        -0.1800 
    112 C         -1.9829  -22.6842  -54.7685 C.2       20 UNK         0.5000 
    113 O         -1.1359  -22.2582  -53.9794 O.2       20 UNK        -0.5000 
    114 N         -2.9097  -21.9190  -55.3547 N.am      21 UNK        -0.5000 
    115 CA        -2.9739  -20.4610  -55.2496 C.3       21 UNK         0.1400 
    116 CB        -4.4120  -20.0139  -55.5613 C.3       21 UNK        -0.1800 
    117 C         -1.9622  -19.7802  -56.1936 C.2       21 UNK         0.5000 
    118 O         -1.3618  -20.4406  -57.0463 O.2       21 UNK        -0.5000 
    119 N         -1.8071  -18.4629  -56.0385 N.am      22 UNK        -0.5000 
    120 CA        -0.9218  -17.6191  -56.8497 C.3       22 UNK         0.1400 
    121 C         -1.5243  -16.2042  -57.0770 C.2       22 UNK         0.5000 
    122 N         -0.9428  -15.4104  -57.9663 N.am      22 UNK        -0.7600 
    123 O         -2.5152  -15.8158  -56.4601 O.2       22 UNK        -0.5000 
    124 C124        0.5330  -17.6090  -56.3008 C.3       23 UNK        -0.0398 
    125 S125        0.7672  -16.6994  -54.7316 S.3       23 UNK        -0.2404 
    126 C126        0.5675  -18.0185  -53.4956 C.3       23 UNK        -0.0205 
    127 H127        1.2311  -13.3986  -50.4532 H         1 UNK         0.0600 
    128 H128        0.6476  -12.1281  -49.3679 H         1 UNK         0.0600 
    129 H129        1.5545  -11.7074  -50.8256 H         1 UNK         0.0600 
    130 H130        2.6485  -14.5050  -49.0858 H         1 UNK         0.3000 
    131 H131        5.2327  -13.5055  -48.6432 H         1 UNK         0.0600 
    132 H132        3.9510  -15.9835  -47.3952 H         1 UNK         0.0800 
    133 H133        5.6586  -15.6589  -47.4662 H         1 UNK         0.0800 
    134 H134        4.0918  -18.5265  -49.9744 H         1 UNK         0.0800 
    135 H135        3.4831  -17.9187  -48.4653 H         1 UNK         0.0800 
    136 H136        2.8027  -18.3884  -51.9794 H         1 UNK         0.1150 
    137 H137       -1.0323  -16.4748  -51.9187 H         1 UNK         0.1150 
    138 H138        1.5895  -16.1281  -48.5483 H         1 UNK         0.1150 
    139 H139       -0.3988  -14.7815  -48.6263 H         1 UNK         0.0800 
    140 H140       -1.2161  -14.5694  -50.1519 H         1 UNK         0.0800 
    141 H141       -1.9336  -17.2202  -46.6549 H         1 UNK         0.0800 
    142 H142       -0.4478  -17.1010  -47.5253 H         1 UNK         0.0800 
    143 H143       -1.7287  -18.9203  -49.1395 H         1 UNK         0.0600 
    144 H144        0.2686  -19.2237  -47.1060 H         1 UNK         0.3000 
    145 H145        1.0139  -22.6091  -47.7871 H         1 UNK         0.0600 
    146 H146        3.2587  -21.7350  -48.3696 H         1 UNK         0.0600 
    147 H147        2.1462  -21.4699  -49.7049 H         1 UNK         0.0600 
    148 H148        2.5863  -20.1309  -48.6534 H         1 UNK         0.0600 
    149 H149        2.3487  -20.6125  -46.2278 H         1 UNK         0.3000 
    150 H150        0.3952  -20.9871  -43.2641 H         1 UNK         0.0600 
    151 H151        2.1410  -22.7344  -43.2561 H         1 UNK         0.0600 
    152 H152        2.6941  -21.3070  -42.3930 H         1 UNK         0.0600 
    153 H153        3.2911  -21.6458  -44.0169 H         1 UNK         0.0600 
    154 H154        0.8110  -18.8727  -43.5500 H         1 UNK         0.3000 
    155 H155        3.5431  -16.9020  -44.5665 H         1 UNK         0.0600 
    156 H156        1.7722  -15.5087  -45.5343 H         1 UNK         0.0600 
    157 H157        0.5880  -16.7987  -45.3653 H         1 UNK         0.0600 
    158 H158        1.9129  -16.9652  -46.5080 H         1 UNK         0.0600 
    159 H159        1.1412  -16.3631  -43.0825 H         1 UNK         0.3000 
    160 H160        2.3876  -17.2878  -39.8689 H         1 UNK         0.0600 
    161 H161        1.7037  -14.5655  -41.1031 H         1 UNK         0.0600 
    162 H162        3.1604  -14.9575  -40.2052 H         1 UNK         0.0600 
    163 H163        1.6043  -14.9745  -39.3908 H         1 UNK         0.0600 
    164 H164       -0.1057  -16.2863  -41.0028 H         1 UNK         0.3000 
    165 H165       -1.6084  -19.4610  -41.4204 H         1 UNK         0.0600 
    166 H166       -2.1468  -17.4672  -39.1524 H         1 UNK         0.0600 
    167 H167       -3.2988  -18.6354  -39.8009 H         1 UNK         0.0600 
    168 H168       -1.8660  -19.1927  -38.9520 H         1 UNK         0.0600 
    169 H169       -2.5906  -16.7495  -41.4650 H         1 UNK         0.3000 
    170 H170       -1.7482  -16.0437  -44.8180 H         1 UNK         0.0600 
    171 H171       -3.8078  -17.4955  -45.0363 H         1 UNK         0.0600 
    172 H172       -4.5030  -16.6977  -43.6335 H         1 UNK         0.0600 
    173 H173       -4.1866  -15.7830  -45.1084 H         1 UNK         0.0600 
    174 H174       -3.3340  -14.5975  -43.0005 H         1 UNK         0.3000 
    175 H175       -2.5658  -12.6674  -42.2357 H         1 UNK         0.0600 
    176 H176       -1.6206  -12.3204  -39.9497 H         1 UNK         0.0600 
    177 H177       -2.1773  -13.9754  -40.1422 H         1 UNK         0.0600 
    178 H178       -0.4559  -13.6148  -40.2107 H         1 UNK         0.0600 
    179 H179        0.4011  -12.4140  -42.4331 H         1 UNK         0.3000 
    180 H180        0.1346   -9.5928  -44.4250 H         1 UNK         0.0600 
    181 H181        1.0452   -9.3493  -41.5069 H         1 UNK         0.0600 
    182 H182       -0.1242   -8.3038  -42.3035 H         1 UNK         0.0600 
    183 H183        1.5478   -8.3065  -42.8386 H         1 UNK         0.0600 
    184 H184        2.3713  -10.7332  -43.0371 H         1 UNK         0.3000 
    185 H185        3.9357  -11.6974  -44.6284 H         1 UNK         0.0600 
    186 H186        4.1493  -14.0927  -43.7248 H         1 UNK         0.0600 
    187 H187        3.2534  -13.0254  -42.6581 H         1 UNK         0.0600 
    188 H188        2.3901  -14.1736  -43.6663 H         1 UNK         0.0600 
    189 H189        2.4371  -13.1964  -46.5749 H         1 UNK         0.3000 
    190 H190       -1.8308  -19.8763  -45.6840 H         1 UNK         0.3000 
    191 H191       -4.6713  -20.2058  -45.5179 H         1 UNK         0.0600 
    192 H192       -3.3371  -19.9505  -43.4839 H         1 UNK         0.0600 
    193 H193       -4.0964  -21.5301  -43.4541 H         1 UNK         0.0600 
    194 H194       -2.3891  -21.3902  -43.8519 H         1 UNK         0.0600 
    195 H195       -1.9860  -22.4407  -46.3394 H         1 UNK         0.3000 
    196 H196       -3.5694  -24.7612  -46.7556 H         1 UNK         0.0600 
    197 H197       -1.6059  -25.6084  -47.9854 H         1 UNK         0.0600 
    198 H198       -1.0830  -24.7880  -46.5217 H         1 UNK         0.0600 
    199 H199       -0.9217  -23.9928  -48.0862 H         1 UNK         0.0600 
    200 H200       -2.6247  -22.1315  -49.0388 H         1 UNK         0.3000 
    201 H201       -3.9104  -23.1964  -51.3242 H         1 UNK         0.0600 
    202 H202       -2.2296  -21.4093  -51.4855 H         1 UNK         0.0600 
    203 H203       -3.2728  -20.2911  -50.6090 H         1 UNK         0.0600 
    204 H204       -3.7406  -20.8694  -52.2014 H         1 UNK         0.0600 
    205 H205       -5.1373  -20.9543  -48.8032 H         1 UNK         0.3000 
    206 H206       -7.7378  -20.5902  -49.8688 H         1 UNK         0.0600 
    207 H207       -6.7519  -19.1414  -48.1085 H         1 UNK         0.0600 
    208 H208       -8.2877  -19.8044  -47.5688 H         1 UNK         0.0600 
    209 H209       -6.7811  -20.4763  -46.9590 H         1 UNK         0.0600 
    210 H210       -6.4385  -23.1185  -47.7144 H         1 UNK         0.3000 
    211 H211       -8.9464  -24.5191  -47.3558 H         1 UNK         0.0600 
    212 H212       -6.0443  -25.3953  -46.8927 H         1 UNK         0.0600 
    213 H213       -7.4746  -26.2186  -46.2848 H         1 UNK         0.0600 
    214 H214       -7.0799  -24.6092  -45.7027 H         1 UNK         0.0600 
    215 H215       -6.8772  -24.2872  -50.0281 H         1 UNK         0.3000 
    216 H216       -6.5608  -25.2935  -51.9455 H         1 UNK         0.0600 
    217 H217       -9.0651  -25.3798  -52.0947 H         1 UNK         0.0600 
    218 H218       -9.0429  -27.0074  -51.4154 H         1 UNK         0.0600 
    219 H219       -8.2935  -26.6896  -52.9723 H         1 UNK         0.0600 
    220 H220       -5.3025  -26.3039  -49.5288 H         1 UNK         0.3000 
    221 H221       -4.6790  -29.1463  -50.0838 H         1 UNK         0.0600 
    222 H222       -3.6555  -27.1937  -47.9486 H         1 UNK         0.0600 
    223 H223       -4.9204  -28.3986  -47.7175 H         1 UNK         0.0600 
    224 H224       -3.2699  -28.9078  -48.0425 H         1 UNK         0.0600 
    225 H225       -3.5592  -25.9235  -50.7640 H         1 UNK         0.3000 
    226 H226       -1.2121  -26.9500  -52.2767 H         1 UNK         0.0600 
    227 H227       -0.4178  -25.7331  -50.2020 H         1 UNK         0.0600 
    228 H228       -0.0024  -24.8630  -51.6674 H         1 UNK         0.0600 
    229 H229       -1.3523  -24.3176  -50.6862 H         1 UNK         0.0600 
    230 H230       -0.6162  -25.2445  -53.9660 H         1 UNK         0.3000 
    231 H231       -2.9869  -24.4537  -55.4920 H         1 UNK         0.0600 
    232 H232       -1.2775  -23.8141  -57.1955 H         1 UNK         0.0600 
    233 H233       -1.0219  -25.4615  -56.6403 H         1 UNK         0.0600 
    234 H234        0.0157  -24.1600  -56.0551 H         1 UNK         0.0600 
    235 H235       -3.5361  -22.3412  -56.0244 H         1 UNK         0.3000 
    236 H236       -2.7288  -20.1639  -54.2283 H         1 UNK         0.0600 
    237 H237       -4.5279  -18.9361  -55.4418 H         1 UNK         0.0600 
    238 H238       -4.6981  -20.2630  -56.5840 H         1 UNK         0.0600 
    239 H239       -5.1258  -20.4893  -54.8880 H         1 UNK         0.0600 
    240 H240       -2.3754  -17.9554  -55.3739 H         1 UNK         0.3000 
    241 H241       -0.8873  -18.0587  -57.8487 H         1 UNK         0.0600 
    242 H242       -0.1328  -15.7019  -58.4912 H         1 UNK         0.3800 
    243 H243       -1.3246  -14.4899  -58.1214 H         1 UNK         0.3800 
    244 H244        0.8945  -18.6313  -56.1825 H         1 UNK         0.0800 
    245 H245        1.1970  -17.1576  -57.0388 H         1 UNK         0.0800 
    246 H246       -0.4482  -18.4134  -53.5369 H         1 UNK         0.0800 
    247 H247        1.2338  -18.8488  -53.7349 H         1 UNK         0.0800 
@<TRIPOS>BOND
     1    1    2 1    
     2    1  127 1    
     3    1  128 1    
     4    1  129 1    
     5    2    3 2    
     6    2    4 am   BACKBONE|DICT|INTERRES
     7    4    5 1    
     8    4  130 1    
     9    5    6 1    
    10    5   65 1    
    11    5  131 1    
    12    6    7 1    
    13    6  132 1    
    14    6  133 1    
    15    7    8 1    
    16    8    9 1    
    17    8  134 1    
    18    8  135 1    
    19    9   10 ar   
    20    9   14 ar   
    21   10   11 ar   
    22   10  136 1    
    23   11   12 ar   
    24   11  126 1    
    25   12   13 ar   
    26   12  137 1    
    27   13   14 ar   
    28   13   15 1    
    29   14  138 1    
    30   15   16 1    
    31   15  139 1    
    32   15  140 1    
    33   16   17 1    
    34   17   18 1    
    35   17  141 1    
    36   17  142 1    
    37   18   19 1    
    38   18   67 1    
    39   18  143 1    
    40   19   20 am   BACKBONE|DICT|INTERRES
    41   19  144 1    
    42   20   21 2    
    43   20   22 1    
    44   22   23 1    
    45   22   24 1    
    46   22  145 1    
    47   23  146 1    
    48   23  147 1    
    49   23  148 1    
    50   24   25 am   BACKBONE|DICT|INTERRES
    51   24  149 1    
    52   25   26 2    
    53   25   27 1    
    54   27   28 1    
    55   27   29 1    
    56   27  150 1    
    57   28  151 1    
    58   28  152 1    
    59   28  153 1    
    60   29   30 am   BACKBONE|DICT|INTERRES
    61   29  154 1    
    62   30   31 2    
    63   30   32 1    
    64   32   33 1    
    65   32   34 1    
    66   32  155 1    
    67   33  156 1    
    68   33  157 1    
    69   33  158 1    
    70   34   35 am   BACKBONE|DICT|INTERRES
    71   34  159 1    
    72   35   36 2    
    73   35   37 1    
    74   37   38 1    
    75   37   39 1    
    76   37  160 1    
    77   38  161 1    
    78   38  162 1    
    79   38  163 1    
    80   39   40 am   BACKBONE|DICT|INTERRES
    81   39  164 1    
    82   40   41 2    
    83   40   42 1    
    84   42   43 1    
    85   42   44 1    
    86   42  165 1    
    87   43  166 1    
    88   43  167 1    
    89   43  168 1    
    90   44   45 am   BACKBONE|DICT|INTERRES
    91   44  169 1    
    92   45   46 2    
    93   45   47 1    
    94   47   48 1    
    95   47   49 1    
    96   47  170 1    
    97   48  171 1    
    98   48  172 1    
    99   48  173 1    
   100   49   50 am   BACKBONE|DICT|INTERRES
   101   49  174 1    
   102   50   51 2    
   103   50   52 1    
   104   52   53 1    
   105   52   54 1    
   106   52  175 1    
   107   53  176 1    
   108   53  177 1    
   109   53  178 1    
   110   54   55 am   BACKBONE|DICT|INTERRES
   111   54  179 1    
   112   55   56 2    
   113   55   57 1    
   114   57   58 1    
   115   57   59 1    
   116   57  180 1    
   117   58  181 1    
   118   58  182 1    
   119   58  183 1    
   120   59   60 am   BACKBONE|DICT|INTERRES
   121   59  184 1    
   122   60   61 2    
   123   60   62 1    
   124   62   63 1    
   125   62   64 1    
   126   62  185 1    
   127   63  186 1    
   128   63  187 1    
   129   63  188 1    
   130   64   65 am   BACKBONE|DICT|INTERRES
   131   64  189 1    
   132   65   66 2    
   133   67   68 2    
   134   67   69 am   BACKBONE|DICT|INTERRES
   135   69   70 1    
   136   69  190 1    
   137   70   71 1    
   138   70   72 1    
   139   70  191 1    
   140   71  192 1    
   141   71  193 1    
   142   71  194 1    
   143   72   73 2    
   144   72   74 am   BACKBONE|DICT|INTERRES
   145   74   75 1    
   146   74  195 1    
   147   75   76 1    
   148   75   77 1    
   149   75  196 1    
   150   76  197 1    
   151   76  198 1    
   152   76  199 1    
   153   77   78 2    
   154   77   79 am   BACKBONE|DICT|INTERRES
   155   79   80 1    
   156   79  200 1    
   157   80   81 1    
   158   80   82 1    
   159   80  201 1    
   160   81  202 1    
   161   81  203 1    
   162   81  204 1    
   163   82   83 2    
   164   82   84 am   BACKBONE|DICT|INTERRES
   165   84   85 1    
   166   84  205 1    
   167   85   86 1    
   168   85   87 1    
   169   85  206 1    
   170   86  207 1    
   171   86  208 1    
   172   86  209 1    
   173   87   88 2    
   174   87   89 am   BACKBONE|DICT|INTERRES
   175   89   90 1    
   176   89  210 1    
   177   90   91 1    
   178   90   92 1    
   179   90  211 1    
   180   91  212 1    
   181   91  213 1    
   182   91  214 1    
   183   92   93 2    
   184   92   94 am   BACKBONE|DICT|INTERRES
   185   94   95 1    
   186   94  215 1    
   187   95   96 1    
   188   95   97 1    
   189   95  216 1    
   190   96  217 1    
   191   96  218 1    
   192   96  219 1    
   193   97   98 2    
   194   97   99 am   BACKBONE|DICT|INTERRES
   195   99  100 1    
   196   99  220 1    
   197  100  101 1    
   198  100  102 1    
   199  100  221 1    
   200  101  222 1    
   201  101  223 1    
   202  101  224 1    
   203  102  103 2    
   204  102  104 am   BACKBONE|DICT|INTERRES
   205  104  105 1    
   206  104  225 1    
   207  105  106 1    
   208  105  107 1    
   209  105  226 1    
   210  106  227 1    
   211  106  228 1    
   212  106  229 1    
   213  107  108 2    
   214  107  109 am   BACKBONE|DICT|INTERRES
   215  109  110 1    
   216  109  230 1    
   217  110  111 1    
   218  110  112 1    
   219  110  231 1    
   220  111  232 1    
   221  111  233 1    
   222  111  234 1    
   223  112  113 2    
   224  112  114 am   BACKBONE|DICT|INTERRES
   225  114  115 1    
   226  114  235 1    
   227  115  116 1    
   228  115  117 1    
   229  115  236 1    
   230  116  237 1    
   231  116  238 1    
   232  116  239 1    
   233  117  118 2    
   234  117  119 am   BACKBONE|DICT|INTERRES
   235  119  120 1    
   236  119  240 1    
   237  120  121 1    
   238  120  124 1    
   239  120  241 1    
   240  121  122 am   BACKBONE|DICT|INTERRES
   241  121  123 2    
   242  122  242 1    
   243  122  243 1    
   244  124  125 1    
   245  124  244 1    
   246  124  245 1    
   247  125  126 1    
   248  126  246 1    
   249  126  247 1    
@<TRIPOS>SUBSTRUCTURE
     1 UNK         1 GROUP             0       ****    0 ROOT    
