@<TRIPOS>MOLECULE
3R540
247   249    1
SMALL
USER_CHARGES


@<TRIPOS>ATOM
      1 CA          2.1778  -13.5526  -44.3096 C.3       0 UNK        -0.1800 
      2 C           1.4859  -13.2526  -45.6314 C.2       0 UNK         0.5000 
      3 O           0.6037  -12.3947  -45.6762 O.2       0 UNK        -0.5000 
      4 N           1.8829  -13.9480  -46.7069 N.am      1 UNK        -0.5000 
      5 CA          1.3233  -13.8195  -48.0574 C.3       1 UNK         0.1400 
      6 C6          1.9633  -14.8277  -49.0433 C.3       23 UNK        -0.0398 
      7 S7          0.9297  -15.0802  -50.5271 S.3       23 UNK        -0.2404 
      8 C8          0.1218  -16.6670  -50.1561 C.3       23 UNK        -0.0205 
      9 C9          0.9906  -17.8503  -50.5546 C.ar      23 UNK        -0.0193 
     10 C10         0.9668  -18.3149  -51.8719 C.ar      23 UNK        -0.1150 
     11 C11         1.7394  -19.4153  -52.2579 C.ar      23 UNK        -0.0193 
     12 C12         2.5617  -20.0341  -51.3102 C.ar      23 UNK        -0.1150 
     13 C13         2.6003  -19.5768  -49.9890 C.ar      23 UNK        -0.0193 
     14 C14         1.8061  -18.4884  -49.6159 C.ar      23 UNK        -0.1150 
     15 C15         3.5158  -20.2421  -48.9681 C.3       23 UNK        -0.0205 
     16 S16         3.0861  -21.9845  -48.6525 S.3       23 UNK        -0.2404 
     17 C17         1.3764  -21.8278  -48.0479 C.3       23 UNK        -0.0398 
     18 CA          0.7887  -23.1868  -47.6108 C.3       11 UNK         0.1400 
     19 N           1.4843  -23.7622  -46.4587 N.am      11 UNK        -0.5000 
     20 C           1.3991  -25.0460  -46.0873 C.2       10 UNK         0.5000 
     21 O           0.7401  -25.8908  -46.6928 O.2       10 UNK        -0.5000 
     22 CA          2.1339  -25.4332  -44.7913 C.3       10 UNK         0.1400 
     23 CB          3.6339  -25.6323  -45.0547 C.3       10 UNK        -0.1800 
     24 N           1.9518  -24.4389  -43.7318 N.am      10 UNK        -0.5000 
     25 C           0.7754  -24.1687  -43.1493 C.2       9 UNK         0.5000 
     26 O          -0.2694  -24.7620  -43.4155 O.2       9 UNK        -0.5000 
     27 CA          0.7483  -23.0129  -42.1322 C.3       9 UNK         0.1400 
     28 CB          1.1055  -23.5239  -40.7288 C.3       9 UNK        -0.1800 
     29 N           1.6152  -21.8792  -42.4685 N.am      9 UNK        -0.5000 
     30 C           1.5665  -21.1681  -43.6027 C.2       8 UNK         0.5000 
     31 O           0.8454  -21.4512  -44.5598 O.2       8 UNK        -0.5000 
     32 CA          2.4348  -19.8988  -43.6531 C.3       8 UNK         0.1400 
     33 CB          2.8936  -19.5703  -45.0848 C.3       8 UNK        -0.1800 
     34 N           1.6727  -18.7678  -43.1327 N.am      8 UNK        -0.5000 
     35 C           1.3920  -18.5503  -41.8408 C.2       7 UNK         0.5000 
     36 O           1.8655  -19.2149  -40.9179 O.2       7 UNK        -0.5000 
     37 CA          0.4117  -17.4042  -41.5255 C.3       7 UNK         0.1400 
     38 CB          1.1787  -16.1367  -41.1184 C.3       7 UNK        -0.1800 
     39 N          -0.4818  -17.0743  -42.6381 N.am      7 UNK        -0.5000 
     40 C          -1.4785  -17.8377  -43.1026 C.2       6 UNK         0.5000 
     41 O          -1.7623  -18.9408  -42.6345 O.2       6 UNK        -0.5000 
     42 CA         -2.3017  -17.2425  -44.2697 C.3       6 UNK         0.1400 
     43 CB         -3.3194  -18.2451  -44.8468 C.3       6 UNK        -0.1800 
     44 N          -3.0177  -16.0221  -43.8844 N.am      6 UNK        -0.5000 
     45 C          -2.4653  -14.8297  -43.6230 C.2       5 UNK         0.5000 
     46 O          -1.2552  -14.6087  -43.7227 O.2       5 UNK        -0.5000 
     47 CA         -3.4269  -13.7284  -43.1286 C.3       5 UNK         0.1400 
     48 CB         -4.0904  -14.1334  -41.8001 C.3       5 UNK        -0.1800 
     49 N          -2.7383  -12.4553  -42.9197 N.am      5 UNK        -0.5000 
     50 C          -2.3619  -11.6067  -43.8832 C.2       4 UNK         0.5000 
     51 O          -2.6606  -11.7490  -45.0717 O.2       4 UNK        -0.5000 
     52 CA         -1.5279  -10.3870  -43.4455 C.3       4 UNK         0.1400 
     53 CB         -0.8321  -10.5577  -42.0758 C.3       4 UNK        -0.1800 
     54 N          -0.5314  -10.1039  -44.4710 N.am      4 UNK        -0.5000 
     55 C           0.0290   -8.9133  -44.7107 C.2       3 UNK         0.5000 
     56 O          -0.2548   -7.8877  -44.0900 O.2       3 UNK        -0.5000 
     57 CA          1.0761   -8.8480  -45.8340 C.3       3 UNK         0.1400 
     58 CB          2.4585   -9.2628  -45.3050 C.3       3 UNK        -0.1800 
     59 N           0.7107   -9.7177  -46.9525 N.am      3 UNK        -0.5000 
     60 C           0.4353   -9.3016  -48.1957 C.2       2 UNK         0.5000 
     61 O           0.4725   -8.1176  -48.5361 O.2       2 UNK        -0.5000 
     62 CA          0.0228  -10.3687  -49.2364 C.3       2 UNK         0.1400 
     63 CB          0.6467  -10.1087  -50.6239 C.3       2 UNK        -0.1800 
     64 N           0.2454  -11.7567  -48.8117 N.am      2 UNK        -0.5000 
     65 C           1.4164  -12.3678  -48.5782 C.2       1 UNK         0.5000 
     66 O           2.5215  -11.8386  -48.7138 O.2       1 UNK        -0.5000 
     67 C          -0.7234  -23.0645  -47.3521 C.2       11 UNK         0.5000 
     68 O          -1.5036  -23.2066  -48.2917 O.2       11 UNK        -0.5000 
     69 N          -1.1257  -22.8118  -46.1000 N.am      12 UNK        -0.5000 
     70 CA         -2.5249  -22.7969  -45.6763 C.3       12 UNK         0.1400 
     71 CB         -2.6382  -22.2313  -44.2538 C.3       12 UNK        -0.1800 
     72 C          -3.1614  -24.1941  -45.7798 C.2       12 UNK         0.5000 
     73 O          -4.2416  -24.3236  -46.3547 O.2       12 UNK        -0.5000 
     74 N          -2.4504  -25.2181  -45.2845 N.am      13 UNK        -0.5000 
     75 CA         -2.8396  -26.6287  -45.3640 C.3       13 UNK         0.1400 
     76 CB         -1.8676  -27.4734  -44.5265 C.3       13 UNK        -0.1800 
     77 C          -2.9131  -27.1590  -46.8090 C.2       13 UNK         0.5000 
     78 O          -3.8092  -27.9425  -47.1240 O.2       13 UNK        -0.5000 
     79 N          -1.9949  -26.6958  -47.6681 N.am      14 UNK        -0.5000 
     80 CA         -1.9621  -26.9923  -49.1030 C.3       14 UNK         0.1400 
     81 CB         -0.5543  -26.6814  -49.6363 C.3       14 UNK        -0.1800 
     82 C          -3.0211  -26.2244  -49.9233 C.2       14 UNK         0.5000 
     83 O          -3.1640  -26.4991  -51.1145 O.2       14 UNK        -0.5000 
     84 N          -3.7064  -25.2571  -49.2933 N.am      15 UNK        -0.5000 
     85 CA         -4.6857  -24.3151  -49.8518 C.3       15 UNK         0.1400 
     86 CB         -5.8562  -25.0475  -50.5355 C.3       15 UNK        -0.1800 
     87 C          -4.0704  -23.2260  -50.7562 C.2       15 UNK         0.5000 
     88 O          -4.8013  -22.3844  -51.2824 O.2       15 UNK        -0.5000 
     89 N          -2.7392  -23.2218  -50.8872 N.am      16 UNK        -0.5000 
     90 CA         -1.9436  -22.2501  -51.6294 C.3       16 UNK         0.1400 
     91 CB         -0.4780  -22.7117  -51.6440 C.3       16 UNK        -0.1800 
     92 C          -2.0785  -20.8295  -51.0596 C.2       16 UNK         0.5000 
     93 O          -2.2821  -19.8918  -51.8261 O.2       16 UNK        -0.5000 
     94 N          -2.0218  -20.7049  -49.7274 N.am      17 UNK        -0.5000 
     95 CA         -2.2197  -19.4298  -49.0367 C.3       17 UNK         0.1400 
     96 CB         -1.3624  -19.3805  -47.7629 C.3       17 UNK        -0.1800 
     97 C          -3.6957  -19.1706  -48.6970 C.2       17 UNK         0.5000 
     98 O          -4.1181  -18.0149  -48.7024 O.2       17 UNK        -0.5000 
     99 N          -4.4461  -20.2354  -48.3802 N.am      18 UNK        -0.5000 
    100 CA        -5.8131  -20.1317  -47.8651 C.3       18 UNK         0.1400 
    101 CB        -6.1578  -21.3925  -47.0583 C.3       18 UNK        -0.1800 
    102 C         -6.8701  -19.8785  -48.9548 C.2       18 UNK         0.5000 
    103 O         -7.8321  -19.1561  -48.6911 O.2       18 UNK        -0.5000 
    104 N         -6.6911  -20.4770  -50.1403 N.am      19 UNK        -0.5000 
    105 CA        -7.6516  -20.4247  -51.2479 C.3       19 UNK         0.1400 
    106 CB        -8.2406  -21.8306  -51.4573 C.3       19 UNK        -0.1800 
    107 C         -7.0247  -19.8980  -52.5514 C.2       19 UNK         0.5000 
    108 O         -7.7036  -19.9004  -53.5792 O.2       19 UNK        -0.5000 
    109 N         -5.7526  -19.4713  -52.5005 N.am      20 UNK        -0.5000 
    110 CA        -4.9367  -19.0041  -53.6291 C.3       20 UNK         0.1400 
    111 CB        -5.5138  -17.7053  -54.2320 C.3       20 UNK        -0.1800 
    112 C         -4.6880  -20.1011  -54.6890 C.2       20 UNK         0.5000 
    113 O         -4.5543  -19.7882  -55.8741 O.2       20 UNK        -0.5000 
    114 N         -4.6309  -21.3717  -54.2548 N.am      21 UNK        -0.5000 
    115 CA        -4.5547  -22.5552  -55.1222 C.3       21 UNK         0.1400 
    116 CB        -4.6881  -23.8246  -54.2675 C.3       21 UNK        -0.1800 
    117 C         -3.2961  -22.6342  -56.0113 C.2       21 UNK         0.5000 
    118 O         -3.3278  -23.3128  -57.0387 O.2       21 UNK        -0.5000 
    119 N         -2.2256  -21.9336  -55.6186 N.am      22 UNK        -0.5000 
    120 CA        -1.0071  -21.7376  -56.4191 C.3       22 UNK         0.1400 
    121 C         -1.1396  -20.6790  -57.5565 C.2       22 UNK         0.5000 
    122 N         -2.2314  -19.9289  -57.6600 N.am      22 UNK        -0.7600 
    123 O         -0.2361  -20.5482  -58.3780 O.2       22 UNK        -0.5000 
    124 C124        0.2313  -21.4812  -55.5213 C.3       23 UNK        -0.0398 
    125 S125        0.0236  -20.0847  -54.3653 S.3       23 UNK        -0.2404 
    126 C126        1.7133  -19.9298  -53.6946 C.3       23 UNK        -0.0205 
    127 H127        1.4347  -13.7606  -43.5397 H         1 UNK         0.0600 
    128 H128        2.7667  -12.6929  -43.9909 H         1 UNK         0.0600 
    129 H129        2.8404  -14.4150  -44.3842 H         1 UNK         0.0600 
    130 H130        2.6413  -14.6069  -46.6082 H         1 UNK         0.3000 
    131 H131        0.2674  -14.0819  -47.9578 H         1 UNK         0.0600 
    132 H132        2.9576  -14.5013  -49.3538 H         1 UNK         0.0800 
    133 H133        2.1115  -15.7891  -48.5526 H         1 UNK         0.0800 
    134 H134       -0.8192  -16.7092  -50.7069 H         1 UNK         0.0800 
    135 H135       -0.1437  -16.7166  -49.0990 H         1 UNK         0.0800 
    136 H136        0.3356  -17.8217  -52.5977 H         1 UNK         0.1150 
    137 H137        3.1753  -20.8768  -51.5966 H         1 UNK         0.1150 
    138 H138        1.8268  -18.1352  -48.5950 H         1 UNK         0.1150 
    139 H139        3.5047  -19.6970  -48.0236 H         1 UNK         0.0800 
    140 H140        4.5425  -20.1954  -49.3333 H         1 UNK         0.0800 
    141 H141        0.7837  -21.4008  -48.8584 H         1 UNK         0.0800 
    142 H142        1.3498  -21.1108  -47.2270 H         1 UNK         0.0800 
    143 H143        0.9065  -23.8786  -48.4472 H         1 UNK         0.0600 
    144 H144        1.9951  -23.1163  -45.8750 H         1 UNK         0.3000 
    145 H145        1.7186  -26.3814  -44.4432 H         1 UNK         0.0600 
    146 H146        3.7968  -26.3803  -45.8318 H         1 UNK         0.0600 
    147 H147        4.1487  -25.9790  -44.1585 H         1 UNK         0.0600 
    148 H148        4.1138  -24.7092  -45.3821 H         1 UNK         0.0600 
    149 H149        2.7615  -23.9030  -43.4563 H         1 UNK         0.3000 
    150 H150       -0.2743  -22.6328  -42.1012 H         1 UNK         0.0600 
    151 H151        0.9816  -22.7407  -39.9806 H         1 UNK         0.0600 
    152 H152        0.4596  -24.3537  -40.4384 H         1 UNK         0.0600 
    153 H153        2.1364  -23.8765  -40.6791 H         1 UNK         0.0600 
    154 H154        2.1969  -21.5295  -41.7192 H         1 UNK         0.3000 
    155 H155        3.3233  -20.0546  -43.0376 H         1 UNK         0.0600 
    156 H156        2.0529  -19.3261  -45.7352 H         1 UNK         0.0600 
    157 H157        3.4212  -20.4152  -45.5293 H         1 UNK         0.0600 
    158 H158        3.5766  -18.7207  -45.0926 H         1 UNK         0.0600 
    159 H159        1.2169  -18.1819  -43.8154 H         1 UNK         0.3000 
    160 H160       -0.2032  -17.7210  -40.6806 H         1 UNK         0.0600 
    161 H161        1.8241  -16.3285  -40.2602 H         1 UNK         0.0600 
    162 H162        0.4957  -15.3344  -40.8383 H         1 UNK         0.0600 
    163 H163        1.8101  -15.7716  -41.9293 H         1 UNK         0.0600 
    164 H164       -0.3894  -16.1447  -43.0400 H         1 UNK         0.3000 
    165 H165       -1.5969  -16.9907  -45.0648 H         1 UNK         0.0600 
    166 H166       -2.8295  -19.1667  -45.1600 H         1 UNK         0.0600 
    167 H167       -4.0814  -18.5141  -44.1144 H         1 UNK         0.0600 
    168 H168       -3.8247  -17.8354  -45.7216 H         1 UNK         0.0600 
    169 H169       -4.0129  -16.1267  -43.7505 H         1 UNK         0.3000 
    170 H170       -4.2037  -13.5914  -43.8837 H         1 UNK         0.0600 
    171 H171       -3.3491  -14.3317  -41.0246 H         1 UNK         0.0600 
    172 H172       -4.6962  -15.0331  -41.9124 H         1 UNK         0.0600 
    173 H173       -4.7531  -13.3481  -41.4357 H         1 UNK         0.0600 
    174 H174       -2.4172  -12.2762  -41.9800 H         1 UNK         0.3000 
    175 H175       -2.2205   -9.5453  -43.3838 H         1 UNK         0.0600 
    176 H176       -1.5567  -10.6731  -41.2692 H         1 UNK         0.0600 
    177 H177       -0.1737  -11.4277  -42.0675 H         1 UNK         0.0600 
    178 H178       -0.2273   -9.6853  -41.8282 H         1 UNK         0.0600 
    179 H179       -0.2510  -10.9143  -45.0205 H         1 UNK         0.3000 
    180 H180        1.1394   -7.8073  -46.1582 H         1 UNK         0.0600 
    181 H181        2.4616  -10.2918  -44.9447 H         1 UNK         0.0600 
    182 H182        2.7679   -8.6235  -44.4773 H         1 UNK         0.0600 
    183 H183        3.2175   -9.1795  -46.0830 H         1 UNK         0.0600 
    184 H184        0.6445  -10.7089  -46.7462 H         1 UNK         0.3000 
    185 H185       -1.0578  -10.2662  -49.3448 H         1 UNK         0.0600 
    186 H186        0.3331   -9.1422  -51.0198 H         1 UNK         0.0600 
    187 H187        1.7362  -10.1050  -50.5857 H         1 UNK         0.0600 
    188 H188        0.3383  -10.8669  -51.3439 H         1 UNK         0.0600 
    189 H189       -0.6000  -12.2805  -48.6315 H         1 UNK         0.3000 
    190 H190       -0.4237  -22.6016  -45.3959 H         1 UNK         0.3000 
    191 H191       -3.0673  -22.1282  -46.3467 H         1 UNK         0.0600 
    192 H192       -2.1236  -21.2746  -44.1651 H         1 UNK         0.0600 
    193 H193       -3.6821  -22.0676  -43.9844 H         1 UNK         0.0600 
    194 H194       -2.2129  -22.9064  -43.5125 H         1 UNK         0.0600 
    195 H195       -1.5840  -25.0177  -44.7913 H         1 UNK         0.3000 
    196 H196       -3.8358  -26.7228  -44.9272 H         1 UNK         0.0600 
    197 H197       -2.1411  -28.5288  -44.5541 H         1 UNK         0.0600 
    198 H198       -1.8756  -27.1623  -43.4817 H         1 UNK         0.0600 
    199 H199       -0.8435  -27.3883  -44.8919 H         1 UNK         0.0600 
    200 H200       -1.2431  -26.1177  -47.3084 H         1 UNK         0.3000 
    201 H201       -2.1519  -28.0586  -49.2416 H         1 UNK         0.0600 
    202 H202       -0.4658  -26.9430  -50.6915 H         1 UNK         0.0600 
    203 H203        0.2062  -27.2480  -49.0987 H         1 UNK         0.0600 
    204 H204       -0.3148  -25.6224  -49.5405 H         1 UNK         0.0600 
    205 H205       -3.5017  -25.1119  -48.3121 H         1 UNK         0.3000 
    206 H206       -5.0938  -23.7893  -48.9908 H         1 UNK         0.0600 
    207 H207       -5.5638  -25.4820  -51.4917 H         1 UNK         0.0600 
    208 H208       -6.2443  -25.8476  -49.9052 H         1 UNK         0.0600 
    209 H209       -6.6815  -24.3640  -50.7295 H         1 UNK         0.0600 
    210 H210       -2.2233  -23.8896  -50.3317 H         1 UNK         0.3000 
    211 H211       -2.3050  -22.2306  -52.6582 H         1 UNK         0.0600 
    212 H212        0.1625  -21.9822  -52.1373 H         1 UNK         0.0600 
    213 H213       -0.3697  -23.6542  -52.1806 H         1 UNK         0.0600 
    214 H214       -0.0867  -22.8551  -50.6376 H         1 UNK         0.0600 
    215 H215       -1.8755  -21.5403  -49.1693 H         1 UNK         0.3000 
    216 H216       -1.8908  -18.6146  -49.6821 H         1 UNK         0.0600 
    217 H217       -1.6247  -20.1716  -47.0619 H         1 UNK         0.0600 
    218 H218       -0.3043  -19.4714  -47.9965 H         1 UNK         0.0600 
    219 H219       -1.4901  -18.4284  -47.2472 H         1 UNK         0.0600 
    220 H220       -4.0339  -21.1539  -48.4187 H         1 UNK         0.3000 
    221 H221       -5.8534  -19.2868  -47.1735 H         1 UNK         0.0600 
    222 H222       -6.1505  -22.2878  -47.6776 H         1 UNK         0.0600 
    223 H223       -5.4577  -21.5426  -46.2368 H         1 UNK         0.0600 
    224 H224       -7.1533  -21.3116  -46.6198 H         1 UNK         0.0600 
    225 H225       -5.8834  -21.0722  -50.2937 H         1 UNK         0.3000 
    226 H226       -8.4744  -19.7475  -51.0117 H         1 UNK         0.0600 
    227 H227       -8.6256  -22.2452  -50.5256 H         1 UNK         0.0600 
    228 H228       -9.0679  -21.8059  -52.1675 H         1 UNK         0.0600 
    229 H229       -7.4946  -22.5192  -51.8533 H         1 UNK         0.0600 
    230 H230       -5.2803  -19.5116  -51.6093 H         1 UNK         0.3000 
    231 H231       -3.9610  -18.7448  -53.2242 H         1 UNK         0.0600 
    232 H232       -6.4556  -17.8791  -54.7530 H         1 UNK         0.0600 
    233 H233       -4.8208  -17.2695  -54.9526 H         1 UNK         0.0600 
    234 H234       -5.6894  -16.9561  -53.4602 H         1 UNK         0.0600 
    235 H235       -4.7502  -21.5482  -53.2635 H         1 UNK         0.3000 
    236 H236       -5.4152  -22.5122  -55.7929 H         1 UNK         0.0600 
    237 H237       -3.8291  -23.9601  -53.6106 H         1 UNK         0.0600 
    238 H238       -5.5866  -23.7966  -53.6507 H         1 UNK         0.0600 
    239 H239       -4.7559  -24.7123  -54.8975 H         1 UNK         0.0600 
    240 H240       -2.2933  -21.3723  -54.7826 H         1 UNK         0.3000 
    241 H241       -0.8120  -22.6771  -56.9397 H         1 UNK         0.0600 
    242 H242       -2.2959  -19.2576  -58.4083 H         1 UNK         0.3800 
    243 H243       -2.9967  -20.0071  -56.9965 H         1 UNK         0.3800 
    244 H244        1.1239  -21.3175  -56.1278 H         1 UNK         0.0800 
    245 H245        0.4352  -22.3747  -54.9297 H         1 UNK         0.0800 
    246 H246        2.2882  -19.2532  -54.3278 H         1 UNK         0.0800 
    247 H247        2.2071  -20.9012  -53.7481 H         1 UNK         0.0800 
@<TRIPOS>BOND
     1    1    2 1    
     2    1  127 1    
     3    1  128 1    
     4    1  129 1    
     5    2    3 2    
     6    2    4 am   BACKBONE|DICT|INTERRES
     7    4    5 1    
     8    4  130 1    
     9    5    6 1    
    10    5   65 1    
    11    5  131 1    
    12    6    7 1    
    13    6  132 1    
    14    6  133 1    
    15    7    8 1    
    16    8    9 1    
    17    8  134 1    
    18    8  135 1    
    19    9   10 ar   
    20    9   14 ar   
    21   10   11 ar   
    22   10  136 1    
    23   11   12 ar   
    24   11  126 1    
    25   12   13 ar   
    26   12  137 1    
    27   13   14 ar   
    28   13   15 1    
    29   14  138 1    
    30   15   16 1    
    31   15  139 1    
    32   15  140 1    
    33   16   17 1    
    34   17   18 1    
    35   17  141 1    
    36   17  142 1    
    37   18   19 1    
    38   18   67 1    
    39   18  143 1    
    40   19   20 am   BACKBONE|DICT|INTERRES
    41   19  144 1    
    42   20   21 2    
    43   20   22 1    
    44   22   23 1    
    45   22   24 1    
    46   22  145 1    
    47   23  146 1    
    48   23  147 1    
    49   23  148 1    
    50   24   25 am   BACKBONE|DICT|INTERRES
    51   24  149 1    
    52   25   26 2    
    53   25   27 1    
    54   27   28 1    
    55   27   29 1    
    56   27  150 1    
    57   28  151 1    
    58   28  152 1    
    59   28  153 1    
    60   29   30 am   BACKBONE|DICT|INTERRES
    61   29  154 1    
    62   30   31 2    
    63   30   32 1    
    64   32   33 1    
    65   32   34 1    
    66   32  155 1    
    67   33  156 1    
    68   33  157 1    
    69   33  158 1    
    70   34   35 am   BACKBONE|DICT|INTERRES
    71   34  159 1    
    72   35   36 2    
    73   35   37 1    
    74   37   38 1    
    75   37   39 1    
    76   37  160 1    
    77   38  161 1    
    78   38  162 1    
    79   38  163 1    
    80   39   40 am   BACKBONE|DICT|INTERRES
    81   39  164 1    
    82   40   41 2    
    83   40   42 1    
    84   42   43 1    
    85   42   44 1    
    86   42  165 1    
    87   43  166 1    
    88   43  167 1    
    89   43  168 1    
    90   44   45 am   BACKBONE|DICT|INTERRES
    91   44  169 1    
    92   45   46 2    
    93   45   47 1    
    94   47   48 1    
    95   47   49 1    
    96   47  170 1    
    97   48  171 1    
    98   48  172 1    
    99   48  173 1    
   100   49   50 am   BACKBONE|DICT|INTERRES
   101   49  174 1    
   102   50   51 2    
   103   50   52 1    
   104   52   53 1    
   105   52   54 1    
   106   52  175 1    
   107   53  176 1    
   108   53  177 1    
   109   53  178 1    
   110   54   55 am   BACKBONE|DICT|INTERRES
   111   54  179 1    
   112   55   56 2    
   113   55   57 1    
   114   57   58 1    
   115   57   59 1    
   116   57  180 1    
   117   58  181 1    
   118   58  182 1    
   119   58  183 1    
   120   59   60 am   BACKBONE|DICT|INTERRES
   121   59  184 1    
   122   60   61 2    
   123   60   62 1    
   124   62   63 1    
   125   62   64 1    
   126   62  185 1    
   127   63  186 1    
   128   63  187 1    
   129   63  188 1    
   130   64   65 am   BACKBONE|DICT|INTERRES
   131   64  189 1    
   132   65   66 2    
   133   67   68 2    
   134   67   69 am   BACKBONE|DICT|INTERRES
   135   69   70 1    
   136   69  190 1    
   137   70   71 1    
   138   70   72 1    
   139   70  191 1    
   140   71  192 1    
   141   71  193 1    
   142   71  194 1    
   143   72   73 2    
   144   72   74 am   BACKBONE|DICT|INTERRES
   145   74   75 1    
   146   74  195 1    
   147   75   76 1    
   148   75   77 1    
   149   75  196 1    
   150   76  197 1    
   151   76  198 1    
   152   76  199 1    
   153   77   78 2    
   154   77   79 am   BACKBONE|DICT|INTERRES
   155   79   80 1    
   156   79  200 1    
   157   80   81 1    
   158   80   82 1    
   159   80  201 1    
   160   81  202 1    
   161   81  203 1    
   162   81  204 1    
   163   82   83 2    
   164   82   84 am   BACKBONE|DICT|INTERRES
   165   84   85 1    
   166   84  205 1    
   167   85   86 1    
   168   85   87 1    
   169   85  206 1    
   170   86  207 1    
   171   86  208 1    
   172   86  209 1    
   173   87   88 2    
   174   87   89 am   BACKBONE|DICT|INTERRES
   175   89   90 1    
   176   89  210 1    
   177   90   91 1    
   178   90   92 1    
   179   90  211 1    
   180   91  212 1    
   181   91  213 1    
   182   91  214 1    
   183   92   93 2    
   184   92   94 am   BACKBONE|DICT|INTERRES
   185   94   95 1    
   186   94  215 1    
   187   95   96 1    
   188   95   97 1    
   189   95  216 1    
   190   96  217 1    
   191   96  218 1    
   192   96  219 1    
   193   97   98 2    
   194   97   99 am   BACKBONE|DICT|INTERRES
   195   99  100 1    
   196   99  220 1    
   197  100  101 1    
   198  100  102 1    
   199  100  221 1    
   200  101  222 1    
   201  101  223 1    
   202  101  224 1    
   203  102  103 2    
   204  102  104 am   BACKBONE|DICT|INTERRES
   205  104  105 1    
   206  104  225 1    
   207  105  106 1    
   208  105  107 1    
   209  105  226 1    
   210  106  227 1    
   211  106  228 1    
   212  106  229 1    
   213  107  108 2    
   214  107  109 am   BACKBONE|DICT|INTERRES
   215  109  110 1    
   216  109  230 1    
   217  110  111 1    
   218  110  112 1    
   219  110  231 1    
   220  111  232 1    
   221  111  233 1    
   222  111  234 1    
   223  112  113 2    
   224  112  114 am   BACKBONE|DICT|INTERRES
   225  114  115 1    
   226  114  235 1    
   227  115  116 1    
   228  115  117 1    
   229  115  236 1    
   230  116  237 1    
   231  116  238 1    
   232  116  239 1    
   233  117  118 2    
   234  117  119 am   BACKBONE|DICT|INTERRES
   235  119  120 1    
   236  119  240 1    
   237  120  121 1    
   238  120  124 1    
   239  120  241 1    
   240  121  122 am   BACKBONE|DICT|INTERRES
   241  121  123 2    
   242  122  242 1    
   243  122  243 1    
   244  124  125 1    
   245  124  244 1    
   246  124  245 1    
   247  125  126 1    
   248  126  246 1    
   249  126  247 1    
@<TRIPOS>SUBSTRUCTURE
     1 UNK         1 GROUP             0       ****    0 ROOT    
