@<TRIPOS>MOLECULE
3R540
247   249    1
SMALL
USER_CHARGES


@<TRIPOS>ATOM
      1 CA         -3.3993  -11.9784  -53.0439 C.3       0 UNK        -0.1800 
      2 C          -2.8755  -12.9801  -52.0245 C.2       0 UNK         0.5000 
      3 O          -1.6641  -13.0790  -51.8344 O.2       0 UNK        -0.5000 
      4 N          -3.7857  -13.7210  -51.3795 N.am      1 UNK        -0.5000 
      5 CA         -3.5181  -14.7421  -50.3577 C.3       1 UNK         0.1400 
      6 C6         -4.8319  -15.4024  -49.8736 C.3       23 UNK        -0.0398 
      7 S7         -5.6451  -16.3352  -51.2181 S.3       23 UNK        -0.2404 
      8 C8         -5.3522  -18.0626  -50.7168 C.3       23 UNK        -0.0205 
      9 C9         -3.8789  -18.3612  -50.4798 C.ar      23 UNK        -0.0193 
     10 C10        -2.9857  -18.4064  -51.5517 C.ar      23 UNK        -0.1150 
     11 C11        -1.6370  -18.6926  -51.3374 C.ar      23 UNK        -0.0193 
     12 C12        -1.1826  -18.9359  -50.0388 C.ar      23 UNK        -0.1150 
     13 C13        -2.0677  -18.9094  -48.9515 C.ar      23 UNK        -0.0193 
     14 C14        -3.4128  -18.6141  -49.1868 C.ar      23 UNK        -0.1150 
     15 C15        -1.6415  -19.1914  -47.5092 C.3       23 UNK        -0.0205 
     16 S16         0.1079  -19.6435  -47.2574 S.3       23 UNK        -0.2404 
     17 C17         0.1810  -21.3365  -47.9252 C.3       23 UNK        -0.0398 
     18 CA          0.1200  -22.4684  -46.8698 C.3       11 UNK         0.1400 
     19 N           1.0011  -22.2740  -45.7124 N.am      11 UNK        -0.5000 
     20 C           1.4895  -23.2902  -44.9853 C.2       10 UNK         0.5000 
     21 O           1.2832  -24.4746  -45.2515 O.2       10 UNK        -0.5000 
     22 CA          2.3198  -22.9378  -43.7367 C.3       10 UNK         0.1400 
     23 CB          3.7430  -22.5084  -44.1233 C.3       10 UNK        -0.1800 
     24 N           1.7027  -21.9063  -42.9041 N.am      10 UNK        -0.5000 
     25 C           0.5150  -22.0258  -42.2931 C.2       9 UNK         0.5000 
     26 O          -0.1919  -23.0313  -42.3586 O.2       9 UNK        -0.5000 
     27 CA          0.0105  -20.7972  -41.5122 C.3       9 UNK         0.1400 
     28 CB          0.5751  -20.7888  -40.0845 C.3       9 UNK        -0.1800 
     29 N           0.3278  -19.5322  -42.1760 N.am      9 UNK        -0.5000 
     30 C          -0.0977  -19.1885  -43.3997 C.2       8 UNK         0.5000 
     31 O          -0.8399  -19.8897  -44.0844 O.2       8 UNK        -0.5000 
     32 CA          0.4314  -17.8645  -43.9697 C.3       8 UNK         0.1400 
     33 CB         -0.4003  -16.6800  -43.4706 C.3       8 UNK        -0.1800 
     34 N           1.8428  -17.6587  -43.6487 N.am      8 UNK        -0.5000 
     35 C           2.8476  -18.3457  -44.2124 C.2       7 UNK         0.5000 
     36 O           2.6956  -19.1708  -45.1115 O.2       7 UNK        -0.5000 
     37 CA          4.2559  -18.1066  -43.6418 C.3       7 UNK         0.1400 
     38 CB          4.9472  -16.9376  -44.3574 C.3       7 UNK        -0.1800 
     39 N           4.2266  -17.8616  -42.1992 N.am      7 UNK        -0.5000 
     40 C           3.9717  -18.8182  -41.2943 C.2       6 UNK         0.5000 
     41 O           3.7792  -19.9979  -41.5905 O.2       6 UNK        -0.5000 
     42 CA          3.8772  -18.3881  -39.8177 C.3       6 UNK         0.1400 
     43 CB          5.2505  -18.4961  -39.1389 C.3       6 UNK        -0.1800 
     44 N           3.3513  -17.0355  -39.6241 N.am      6 UNK        -0.5000 
     45 C           2.1334  -16.6160  -39.9940 C.2       5 UNK         0.5000 
     46 O           1.3141  -17.3375  -40.5625 O.2       5 UNK        -0.5000 
     47 CA          1.7699  -15.1432  -39.7052 C.3       5 UNK         0.1400 
     48 CB          2.7143  -14.4590  -38.6921 C.3       5 UNK        -0.1800 
     49 N           1.6745  -14.3222  -40.9181 N.am      5 UNK        -0.5000 
     50 C           2.5825  -14.1926  -41.8951 C.2       4 UNK         0.5000 
     51 O           3.6051  -14.8766  -41.9724 O.2       4 UNK        -0.5000 
     52 CA          2.2963  -13.1036  -42.9535 C.3       4 UNK         0.1400 
     53 CB          3.4045  -13.0004  -44.0173 C.3       4 UNK        -0.1800 
     54 N           1.0159  -13.2828  -43.6408 N.am      4 UNK        -0.5000 
     55 C          -0.1970  -12.9732  -43.1591 C.2       3 UNK         0.5000 
     56 O          -0.3771  -12.5543  -42.0146 O.2       3 UNK        -0.5000 
     57 CA         -1.4036  -13.1639  -44.1039 C.3       3 UNK         0.1400 
     58 CB         -2.3259  -11.9322  -44.1045 C.3       3 UNK        -0.1800 
     59 N          -0.9787  -13.4434  -45.4799 N.am      3 UNK        -0.5000 
     60 C          -1.4716  -14.4086  -46.2652 C.2       2 UNK         0.5000 
     61 O          -2.3719  -15.1831  -45.9342 O.2       2 UNK        -0.5000 
     62 CA         -0.7940  -14.5616  -47.6397 C.3       2 UNK         0.1400 
     63 CB          0.3310  -15.6063  -47.5630 C.3       2 UNK        -0.1800 
     64 N          -1.7247  -14.9464  -48.7003 N.am      2 UNK        -0.5000 
     65 C          -2.7190  -14.1773  -49.1630 C.2       1 UNK         0.5000 
     66 O          -3.0074  -13.0696  -48.7014 O.2       1 UNK        -0.5000 
     67 C          -1.3215  -22.8169  -46.4529 C.2       11 UNK         0.5000 
     68 O          -1.9564  -23.6099  -47.1460 O.2       11 UNK        -0.5000 
     69 N          -1.8123  -22.2866  -45.3214 N.am      12 UNK        -0.5000 
     70 CA         -3.1182  -22.6356  -44.7477 C.3       12 UNK         0.1400 
     71 CB         -3.4286  -21.7414  -43.5405 C.3       12 UNK        -0.1800 
     72 C          -3.2237  -24.1242  -44.3655 C.2       12 UNK         0.5000 
     73 O          -4.2573  -24.7427  -44.6203 O.2       12 UNK        -0.5000 
     74 N          -2.1301  -24.6891  -43.8327 N.am      13 UNK        -0.5000 
     75 CA         -1.9723  -26.1202  -43.5574 C.3       13 UNK         0.1400 
     76 CB         -0.6906  -26.3390  -42.7399 C.3       13 UNK        -0.1800 
     77 C          -1.9622  -26.9955  -44.8291 C.2       13 UNK         0.5000 
     78 O          -2.3008  -28.1764  -44.7515 O.2       13 UNK        -0.5000 
     79 N          -1.6232  -26.3976  -45.9789 N.am      14 UNK        -0.5000 
     80 CA         -1.6896  -26.9923  -47.3143 C.3       14 UNK         0.1400 
     81 CB         -0.4447  -26.5630  -48.1122 C.3       14 UNK        -0.1800 
     82 C          -3.0065  -26.6107  -48.0268 C.2       14 UNK         0.5000 
     83 O          -3.0114  -26.3947  -49.2399 O.2       14 UNK        -0.5000 
     84 N          -4.0989  -26.5108  -47.2533 N.am      15 UNK        -0.5000 
     85 CA         -5.4748  -26.2106  -47.6692 C.3       15 UNK         0.1400 
     86 CB         -6.0388  -27.3572  -48.5344 C.3       15 UNK        -0.1800 
     87 C          -5.6469  -24.8243  -48.3281 C.2       15 UNK         0.5000 
     88 O          -6.5321  -24.6514  -49.1672 O.2       15 UNK        -0.5000 
     89 N          -4.7961  -23.8660  -47.9326 N.am      16 UNK        -0.5000 
     90 CA         -4.6881  -22.4995  -48.4565 C.3       16 UNK         0.1400 
     91 CB         -5.9786  -21.6907  -48.2078 C.3       16 UNK        -0.1800 
     92 C          -4.2039  -22.4509  -49.9197 C.2       16 UNK         0.5000 
     93 O          -4.5357  -21.5050  -50.6333 O.2       16 UNK        -0.5000 
     94 N          -3.4163  -23.4616  -50.3272 N.am      17 UNK        -0.5000 
     95 CA         -2.7800  -23.6230  -51.6375 C.3       17 UNK         0.1400 
     96 CB         -1.5710  -22.6648  -51.7443 C.3       17 UNK        -0.1800 
     97 C          -3.7979  -23.4917  -52.7929 C.2       17 UNK         0.5000 
     98 O          -4.6938  -24.3302  -52.9092 O.2       17 UNK        -0.5000 
     99 N          -3.6639  -22.4336  -53.5960 N.am      18 UNK        -0.5000 
    100 CA        -4.6441  -21.9610  -54.5601 C.3       18 UNK         0.1400 
    101 CB        -4.3827  -22.5947  -55.9363 C.3       18 UNK        -0.1800 
    102 C         -4.4935  -20.4383  -54.6170 C.2       18 UNK         0.5000 
    103 O         -3.3615  -19.9495  -54.6044 O.2       18 UNK        -0.5000 
    104 N         -5.6133  -19.7094  -54.7089 N.am      19 UNK        -0.5000 
    105 CA        -5.6385  -18.2425  -54.7627 C.3       19 UNK         0.1400 
    106 CB        -7.0932  -17.7521  -54.7593 C.3       19 UNK        -0.1800 
    107 C         -4.8679  -17.6659  -55.9645 C.2       19 UNK         0.5000 
    108 O         -4.1746  -16.6586  -55.8234 O.2       19 UNK        -0.5000 
    109 N         -4.9485  -18.3603  -57.1070 N.am      20 UNK        -0.5000 
    110 CA        -4.2535  -18.0278  -58.3511 C.3       20 UNK         0.1400 
    111 CB        -4.7944  -18.9298  -59.4714 C.3       20 UNK        -0.1800 
    112 C         -2.7165  -18.1354  -58.2703 C.2       20 UNK         0.5000 
    113 O         -2.0347  -17.5363  -59.1028 O.2       20 UNK        -0.5000 
    114 N         -2.1917  -18.8853  -57.2890 N.am      21 UNK        -0.5000 
    115 CA        -0.7537  -19.0502  -57.0718 C.3       21 UNK         0.1400 
    116 CB        -0.4964  -20.3635  -56.3149 C.3       21 UNK        -0.1800 
    117 C         -0.1152  -17.8560  -56.3355 C.2       21 UNK         0.5000 
    118 O          1.0995  -17.6796  -56.4415 O.2       21 UNK        -0.5000 
    119 N         -0.9245  -17.0663  -55.6154 N.am      22 UNK        -0.5000 
    120 CA        -0.4835  -15.8841  -54.8549 C.3       22 UNK         0.1400 
    121 C         -1.1338  -14.5631  -55.3501 C.2       22 UNK         0.5000 
    122 N         -2.3387  -14.5672  -55.9066 N.am      22 UNK        -0.7600 
    123 O         -0.5165  -13.5063  -55.2545 O.2       22 UNK        -0.5000 
    124 C124       -0.6922  -16.0654  -53.3299 C.3       23 UNK        -0.0398 
    125 S125        0.4157  -17.3280  -52.6160 S.3       23 UNK        -0.2404 
    126 C126       -0.6748  -18.7788  -52.5108 C.3       23 UNK        -0.0205 
    127 H127       -2.9404  -12.1587  -54.0159 H         1 UNK         0.0600 
    128 H128       -3.1524  -10.9633  -52.7329 H         1 UNK         0.0600 
    129 H129       -4.4811  -12.0461  -53.1617 H         1 UNK         0.0600 
    130 H130       -4.7630  -13.5799  -51.5896 H         1 UNK         0.3000 
    131 H131       -2.9019  -15.5076  -50.8341 H         1 UNK         0.0600 
    132 H132       -4.6517  -16.0676  -49.0280 H         1 UNK         0.0800 
    133 H133       -5.5275  -14.6447  -49.5087 H         1 UNK         0.0800 
    134 H134       -5.9384  -18.2774  -49.8221 H         1 UNK         0.0800 
    135 H135       -5.7297  -18.7302  -51.4928 H         1 UNK         0.0800 
    136 H136       -3.3408  -18.2241  -52.5543 H         1 UNK         0.1150 
    137 H137       -0.1350  -19.1539  -49.8960 H         1 UNK         0.1150 
    138 H138       -4.1045  -18.5902  -48.3564 H         1 UNK         0.1150 
    139 H139       -1.8421  -18.2999  -46.9132 H         1 UNK         0.0800 
    140 H140       -2.2713  -19.9791  -47.0947 H         1 UNK         0.0800 
    141 H141        1.1277  -21.4136  -48.4613 H         1 UNK         0.0800 
    142 H142       -0.5887  -21.4710  -48.6878 H         1 UNK         0.0800 
    143 H143        0.4807  -23.3564  -47.3940 H         1 UNK         0.0600 
    144 H144        1.1964  -21.3179  -45.4433 H         1 UNK         0.3000 
    145 H145        2.3967  -23.8420  -43.1291 H         1 UNK         0.0600 
    146 H146        4.3541  -22.3272  -43.2388 H         1 UNK         0.0600 
    147 H147        4.2387  -23.2841  -44.7081 H         1 UNK         0.0600 
    148 H148        3.7427  -21.5973  -44.7213 H         1 UNK         0.0600 
    149 H149        2.2365  -21.0579  -42.7589 H         1 UNK         0.3000 
    150 H150       -1.0759  -20.8648  -41.4419 H         1 UNK         0.0600 
    151 H151        0.2631  -21.6806  -39.5397 H         1 UNK         0.0600 
    152 H152        0.2227  -19.9232  -39.5232 H         1 UNK         0.0600 
    153 H153        1.6643  -20.7711  -40.0823 H         1 UNK         0.0600 
    154 H154        0.8783  -18.8602  -41.6492 H         1 UNK         0.3000 
    155 H155        0.3300  -17.8963  -45.0541 H         1 UNK         0.0600 
    156 H156       -0.0621  -15.7653  -43.9474 H         1 UNK         0.0600 
    157 H157       -0.3343  -16.5465  -42.3916 H         1 UNK         0.0600 
    158 H158       -1.4534  -16.8087  -43.7240 H         1 UNK         0.0600 
    159 H159        2.0515  -17.0490  -42.8709 H         1 UNK         0.3000 
    160 H160        4.8461  -19.0073  -43.8255 H         1 UNK         0.0600 
    161 H161        4.3935  -16.0078  -44.2378 H         1 UNK         0.0600 
    162 H162        5.0313  -17.1322  -45.4273 H         1 UNK         0.0600 
    163 H163        5.9554  -16.7799  -43.9741 H         1 UNK         0.0600 
    164 H164        4.3136  -16.8979  -41.8949 H         1 UNK         0.3000 
    165 H165        3.1968  -19.0791  -39.3171 H         1 UNK         0.0600 
    166 H166        5.1816  -18.2842  -38.0717 H         1 UNK         0.0600 
    167 H167        5.6598  -19.5019  -39.2433 H         1 UNK         0.0600 
    168 H168        5.9702  -17.8018  -39.5745 H         1 UNK         0.0600 
    169 H169        3.9728  -16.3685  -39.1907 H         1 UNK         0.3000 
    170 H170        0.7720  -15.1614  -39.2649 H         1 UNK         0.0600 
    171 H171        2.7781  -15.0273  -37.7630 H         1 UNK         0.0600 
    172 H172        3.7249  -14.3407  -39.0849 H         1 UNK         0.0600 
    173 H173        2.3475  -13.4660  -38.4319 H         1 UNK         0.0600 
    174 H174        0.8460  -13.7394  -40.9915 H         1 UNK         0.3000 
    175 H175        2.2708  -12.1516  -42.4190 H         1 UNK         0.0600 
    176 H176        3.4515  -13.8943  -44.6391 H         1 UNK         0.0600 
    177 H177        3.2387  -12.1466  -44.6744 H         1 UNK         0.0600 
    178 H178        4.3840  -12.8649  -43.5567 H         1 UNK         0.0600 
    179 H179        1.0698  -13.6817  -44.5649 H         1 UNK         0.3000 
    180 H180       -1.9664  -14.0112  -43.7071 H         1 UNK         0.0600 
    181 H181       -3.1922  -12.0911  -44.7470 H         1 UNK         0.0600 
    182 H182       -1.8052  -11.0417  -44.4583 H         1 UNK         0.0600 
    183 H183       -2.7020  -11.7190  -43.1031 H         1 UNK         0.0600 
    184 H184       -0.2661  -12.8297  -45.8502 H         1 UNK         0.3000 
    185 H185       -0.3542  -13.6025  -47.9216 H         1 UNK         0.0600 
    186 H186        0.8559  -15.6949  -48.5144 H         1 UNK         0.0600 
    187 H187        1.0708  -15.3364  -46.8083 H         1 UNK         0.0600 
    188 H188       -0.0551  -16.5914  -47.3021 H         1 UNK         0.0600 
    189 H189       -1.5760  -15.8569  -49.1107 H         1 UNK         0.3000 
    190 H190       -1.2716  -21.5824  -44.8245 H         1 UNK         0.3000 
    191 H191       -3.8767  -22.4368  -45.5060 H         1 UNK         0.0600 
    192 H192       -4.4163  -21.9637  -43.1348 H         1 UNK         0.0600 
    193 H193       -3.4220  -20.6870  -43.8168 H         1 UNK         0.0600 
    194 H194       -2.7063  -21.8865  -42.7389 H         1 UNK         0.0600 
    195 H195       -1.3422  -24.0942  -43.5928 H         1 UNK         0.3000 
    196 H196       -2.8217  -26.4386  -42.9497 H         1 UNK         0.0600 
    197 H197        0.1948  -26.0113  -43.2852 H         1 UNK         0.0600 
    198 H198       -0.7252  -25.7901  -41.7987 H         1 UNK         0.0600 
    199 H199       -0.5557  -27.3935  -42.4963 H         1 UNK         0.0600 
    200 H200       -1.4024  -25.4107  -45.9559 H         1 UNK         0.3000 
    201 H201       -1.6736  -28.0810  -47.2353 H         1 UNK         0.0600 
    202 H202       -0.4418  -25.4918  -48.3126 H         1 UNK         0.0600 
    203 H203       -0.4006  -27.0755  -49.0739 H         1 UNK         0.0600 
    204 H204        0.4719  -26.8048  -47.5738 H         1 UNK         0.0600 
    205 H205       -3.9754  -26.6473  -46.2593 H         1 UNK         0.3000 
    206 H206       -6.0620  -26.1748  -46.7505 H         1 UNK         0.0600 
    207 H207       -5.9188  -28.3209  -48.0395 H         1 UNK         0.0600 
    208 H208       -7.1048  -27.2214  -48.7204 H         1 UNK         0.0600 
    209 H209       -5.5427  -27.4133  -49.5039 H         1 UNK         0.0600 
    210 H210       -4.0610  -24.1323  -47.2885 H         1 UNK         0.3000 
    211 H211       -3.9019  -22.0114  -47.8816 H         1 UNK         0.0600 
    212 H212       -5.8282  -20.6368  -48.4440 H         1 UNK         0.0600 
    213 H213       -6.2847  -21.7472  -47.1633 H         1 UNK         0.0600 
    214 H214       -6.8063  -22.0443  -48.8225 H         1 UNK         0.0600 
    215 H215       -3.2593  -24.2251  -49.6800 H         1 UNK         0.3000 
    216 H216       -2.4004  -24.6450  -51.6756 H         1 UNK         0.0600 
    217 H217       -1.0520  -22.7844  -52.6962 H         1 UNK         0.0600 
    218 H218       -1.8676  -21.6194  -51.6518 H         1 UNK         0.0600 
    219 H219       -0.8452  -22.8683  -50.9570 H         1 UNK         0.0600 
    220 H220       -2.9292  -21.7633  -53.4068 H         1 UNK         0.3000 
    221 H221       -5.6514  -22.2101  -54.2193 H         1 UNK         0.0600 
    222 H222       -4.4726  -23.6802  -55.8935 H         1 UNK         0.0600 
    223 H223       -3.3842  -22.3561  -56.3054 H         1 UNK         0.0600 
    224 H224       -5.1014  -22.2367  -56.6742 H         1 UNK         0.0600 
    225 H225       -6.5081  -20.1775  -54.7207 H         1 UNK         0.3000 
    226 H226       -5.1571  -17.8657  -53.8602 H         1 UNK         0.0600 
    227 H227       -7.6476  -18.1232  -55.6221 H         1 UNK         0.0600 
    228 H228       -7.6146  -18.0751  -53.8580 H         1 UNK         0.0600 
    229 H229       -7.1365  -16.6623  -54.7831 H         1 UNK         0.0600 
    230 H230       -5.5253  -19.1884  -57.1203 H         1 UNK         0.3000 
    231 H231       -4.4923  -16.9916  -58.5998 H         1 UNK         0.0600 
    232 H232       -4.6034  -19.9839  -59.2656 H         1 UNK         0.0600 
    233 H233       -4.3254  -18.6918  -60.4271 H         1 UNK         0.0600 
    234 H234       -5.8693  -18.8006  -59.5988 H         1 UNK         0.0600 
    235 H235       -2.8038  -19.3207  -56.6097 H         1 UNK         0.3000 
    236 H236       -0.2628  -19.1323  -58.0440 H         1 UNK         0.0600 
    237 H237        0.5734  -20.5550  -56.2246 H         1 UNK         0.0600 
    238 H238       -0.9059  -20.3415  -55.3063 H         1 UNK         0.0600 
    239 H239       -0.9355  -21.2138  -56.8367 H         1 UNK         0.0600 
    240 H240       -1.9160  -17.2602  -55.6120 H         1 UNK         0.3000 
    241 H241        0.5872  -15.7362  -55.0088 H         1 UNK         0.0600 
    242 H242       -2.7183  -13.6969  -56.2412 H         1 UNK         0.3800 
    243 H243       -2.9229  -15.4004  -55.9375 H         1 UNK         0.3800 
    244 H244       -1.7340  -16.2946  -53.1029 H         1 UNK         0.0800 
    245 H245       -0.4646  -15.1369  -52.8062 H         1 UNK         0.0800 
    246 H246       -0.0608  -19.6742  -52.4054 H         1 UNK         0.0800 
    247 H247       -1.2191  -18.8933  -53.4475 H         1 UNK         0.0800 
@<TRIPOS>BOND
     1    1    2 1    
     2    1  127 1    
     3    1  128 1    
     4    1  129 1    
     5    2    3 2    
     6    2    4 am   BACKBONE|DICT|INTERRES
     7    4    5 1    
     8    4  130 1    
     9    5    6 1    
    10    5   65 1    
    11    5  131 1    
    12    6    7 1    
    13    6  132 1    
    14    6  133 1    
    15    7    8 1    
    16    8    9 1    
    17    8  134 1    
    18    8  135 1    
    19    9   10 ar   
    20    9   14 ar   
    21   10   11 ar   
    22   10  136 1    
    23   11   12 ar   
    24   11  126 1    
    25   12   13 ar   
    26   12  137 1    
    27   13   14 ar   
    28   13   15 1    
    29   14  138 1    
    30   15   16 1    
    31   15  139 1    
    32   15  140 1    
    33   16   17 1    
    34   17   18 1    
    35   17  141 1    
    36   17  142 1    
    37   18   19 1    
    38   18   67 1    
    39   18  143 1    
    40   19   20 am   BACKBONE|DICT|INTERRES
    41   19  144 1    
    42   20   21 2    
    43   20   22 1    
    44   22   23 1    
    45   22   24 1    
    46   22  145 1    
    47   23  146 1    
    48   23  147 1    
    49   23  148 1    
    50   24   25 am   BACKBONE|DICT|INTERRES
    51   24  149 1    
    52   25   26 2    
    53   25   27 1    
    54   27   28 1    
    55   27   29 1    
    56   27  150 1    
    57   28  151 1    
    58   28  152 1    
    59   28  153 1    
    60   29   30 am   BACKBONE|DICT|INTERRES
    61   29  154 1    
    62   30   31 2    
    63   30   32 1    
    64   32   33 1    
    65   32   34 1    
    66   32  155 1    
    67   33  156 1    
    68   33  157 1    
    69   33  158 1    
    70   34   35 am   BACKBONE|DICT|INTERRES
    71   34  159 1    
    72   35   36 2    
    73   35   37 1    
    74   37   38 1    
    75   37   39 1    
    76   37  160 1    
    77   38  161 1    
    78   38  162 1    
    79   38  163 1    
    80   39   40 am   BACKBONE|DICT|INTERRES
    81   39  164 1    
    82   40   41 2    
    83   40   42 1    
    84   42   43 1    
    85   42   44 1    
    86   42  165 1    
    87   43  166 1    
    88   43  167 1    
    89   43  168 1    
    90   44   45 am   BACKBONE|DICT|INTERRES
    91   44  169 1    
    92   45   46 2    
    93   45   47 1    
    94   47   48 1    
    95   47   49 1    
    96   47  170 1    
    97   48  171 1    
    98   48  172 1    
    99   48  173 1    
   100   49   50 am   BACKBONE|DICT|INTERRES
   101   49  174 1    
   102   50   51 2    
   103   50   52 1    
   104   52   53 1    
   105   52   54 1    
   106   52  175 1    
   107   53  176 1    
   108   53  177 1    
   109   53  178 1    
   110   54   55 am   BACKBONE|DICT|INTERRES
   111   54  179 1    
   112   55   56 2    
   113   55   57 1    
   114   57   58 1    
   115   57   59 1    
   116   57  180 1    
   117   58  181 1    
   118   58  182 1    
   119   58  183 1    
   120   59   60 am   BACKBONE|DICT|INTERRES
   121   59  184 1    
   122   60   61 2    
   123   60   62 1    
   124   62   63 1    
   125   62   64 1    
   126   62  185 1    
   127   63  186 1    
   128   63  187 1    
   129   63  188 1    
   130   64   65 am   BACKBONE|DICT|INTERRES
   131   64  189 1    
   132   65   66 2    
   133   67   68 2    
   134   67   69 am   BACKBONE|DICT|INTERRES
   135   69   70 1    
   136   69  190 1    
   137   70   71 1    
   138   70   72 1    
   139   70  191 1    
   140   71  192 1    
   141   71  193 1    
   142   71  194 1    
   143   72   73 2    
   144   72   74 am   BACKBONE|DICT|INTERRES
   145   74   75 1    
   146   74  195 1    
   147   75   76 1    
   148   75   77 1    
   149   75  196 1    
   150   76  197 1    
   151   76  198 1    
   152   76  199 1    
   153   77   78 2    
   154   77   79 am   BACKBONE|DICT|INTERRES
   155   79   80 1    
   156   79  200 1    
   157   80   81 1    
   158   80   82 1    
   159   80  201 1    
   160   81  202 1    
   161   81  203 1    
   162   81  204 1    
   163   82   83 2    
   164   82   84 am   BACKBONE|DICT|INTERRES
   165   84   85 1    
   166   84  205 1    
   167   85   86 1    
   168   85   87 1    
   169   85  206 1    
   170   86  207 1    
   171   86  208 1    
   172   86  209 1    
   173   87   88 2    
   174   87   89 am   BACKBONE|DICT|INTERRES
   175   89   90 1    
   176   89  210 1    
   177   90   91 1    
   178   90   92 1    
   179   90  211 1    
   180   91  212 1    
   181   91  213 1    
   182   91  214 1    
   183   92   93 2    
   184   92   94 am   BACKBONE|DICT|INTERRES
   185   94   95 1    
   186   94  215 1    
   187   95   96 1    
   188   95   97 1    
   189   95  216 1    
   190   96  217 1    
   191   96  218 1    
   192   96  219 1    
   193   97   98 2    
   194   97   99 am   BACKBONE|DICT|INTERRES
   195   99  100 1    
   196   99  220 1    
   197  100  101 1    
   198  100  102 1    
   199  100  221 1    
   200  101  222 1    
   201  101  223 1    
   202  101  224 1    
   203  102  103 2    
   204  102  104 am   BACKBONE|DICT|INTERRES
   205  104  105 1    
   206  104  225 1    
   207  105  106 1    
   208  105  107 1    
   209  105  226 1    
   210  106  227 1    
   211  106  228 1    
   212  106  229 1    
   213  107  108 2    
   214  107  109 am   BACKBONE|DICT|INTERRES
   215  109  110 1    
   216  109  230 1    
   217  110  111 1    
   218  110  112 1    
   219  110  231 1    
   220  111  232 1    
   221  111  233 1    
   222  111  234 1    
   223  112  113 2    
   224  112  114 am   BACKBONE|DICT|INTERRES
   225  114  115 1    
   226  114  235 1    
   227  115  116 1    
   228  115  117 1    
   229  115  236 1    
   230  116  237 1    
   231  116  238 1    
   232  116  239 1    
   233  117  118 2    
   234  117  119 am   BACKBONE|DICT|INTERRES
   235  119  120 1    
   236  119  240 1    
   237  120  121 1    
   238  120  124 1    
   239  120  241 1    
   240  121  122 am   BACKBONE|DICT|INTERRES
   241  121  123 2    
   242  122  242 1    
   243  122  243 1    
   244  124  125 1    
   245  124  244 1    
   246  124  245 1    
   247  125  126 1    
   248  126  246 1    
   249  126  247 1    
@<TRIPOS>SUBSTRUCTURE
     1 UNK         1 GROUP             0       ****    0 ROOT    
