@<TRIPOS>MOLECULE
3R540
247   249    1
SMALL
USER_CHARGES


@<TRIPOS>ATOM
      1 CA         -1.7624  -12.5097  -46.0845 C.3       0 UNK        -0.1800 
      2 C          -0.5507  -12.1725  -46.9404 C.2       0 UNK         0.5000 
      3 O           0.3282  -11.4340  -46.4948 O.2       0 UNK        -0.5000 
      4 N          -0.4873  -12.7248  -48.1609 N.am      1 UNK        -0.5000 
      5 CA          0.5874  -12.5033  -49.1420 C.3       1 UNK         0.1400 
      6 C6          0.2391  -13.0982  -50.5292 C.3       23 UNK        -0.0398 
      7 S7          0.0027  -14.9138  -50.5497 S.3       23 UNK        -0.2404 
      8 C8          1.6494  -15.4550  -51.1089 C.3       23 UNK        -0.0205 
      9 C9          1.6573  -16.9251  -51.4838 C.ar      23 UNK        -0.0193 
     10 C10         1.3226  -17.3061  -52.7841 C.ar      23 UNK        -0.1150 
     11 C11         1.3311  -18.6517  -53.1559 C.ar      23 UNK        -0.0193 
     12 C12         1.6996  -19.6196  -52.2157 C.ar      23 UNK        -0.1150 
     13 C13         2.0358  -19.2521  -50.9065 C.ar      23 UNK        -0.0193 
     14 C14         2.0129  -17.9004  -50.5473 C.ar      23 UNK        -0.1150 
     15 C15         2.4629  -20.3110  -49.8964 C.3       23 UNK        -0.0205 
     16 S16         1.1560  -21.5416  -49.5802 S.3       23 UNK        -0.2404 
     17 C17         0.4519  -21.0412  -47.9716 C.3       23 UNK        -0.0398 
     18 CA         -0.1177  -22.2542  -47.1952 C.3       11 UNK         0.1400 
     19 N          -0.2634  -21.9744  -45.7636 N.am      11 UNK        -0.5000 
     20 C          -0.5361  -22.9029  -44.8353 C.2       10 UNK         0.5000 
     21 O          -0.6315  -24.1041  -45.0809 O.2       10 UNK        -0.5000 
     22 CA         -0.8116  -22.4080  -43.4051 C.3       10 UNK         0.1400 
     23 CB          0.5003  -22.1643  -42.6456 C.3       10 UNK        -0.1800 
     24 N          -1.6422  -21.2032  -43.3844 N.am      10 UNK        -0.5000 
     25 C          -2.9071  -21.1539  -43.8271 C.2       9 UNK         0.5000 
     26 O          -3.5233  -22.1395  -44.2284 O.2       9 UNK        -0.5000 
     27 CA         -3.5859  -19.7737  -43.8770 C.3       9 UNK         0.1400 
     28 CB         -4.1826  -19.4129  -42.5091 C.3       9 UNK        -0.1800 
     29 N          -2.6845  -18.7113  -44.3263 N.am      9 UNK        -0.5000 
     30 C          -2.1196  -18.6545  -45.5414 C.2       8 UNK         0.5000 
     31 O          -2.3356  -19.4767  -46.4310 O.2       8 UNK        -0.5000 
     32 CA         -1.0900  -17.5330  -45.7809 C.3       8 UNK         0.1400 
     33 CB         -1.7751  -16.1955  -46.0937 C.3       8 UNK        -0.1800 
     34 N          -0.1804  -17.3691  -44.6460 N.am      8 UNK        -0.5000 
     35 C           0.6987  -18.3029  -44.2541 C.2       7 UNK         0.5000 
     36 O           0.8831  -19.3604  -44.8578 O.2       7 UNK        -0.5000 
     37 CA          1.4531  -18.0381  -42.9393 C.3       7 UNK         0.1400 
     38 CB          2.6854  -17.1508  -43.1640 C.3       7 UNK        -0.1800 
     39 N           0.5896  -17.4349  -41.9239 N.am      7 UNK        -0.5000 
     40 C          -0.3808  -18.0961  -41.2774 C.2       6 UNK         0.5000 
     41 O          -0.6301  -19.2864  -41.4579 O.2       6 UNK        -0.5000 
     42 CA         -1.2395  -17.2866  -40.2891 C.3       6 UNK         0.1400 
     43 CB         -0.5594  -17.2182  -38.9138 C.3       6 UNK        -0.1800 
     44 N          -1.5173  -15.9300  -40.7594 N.am      6 UNK        -0.5000 
     45 C          -2.2470  -15.6329  -41.8442 C.2       5 UNK         0.5000 
     46 O          -2.7934  -16.4741  -42.5546 O.2       5 UNK        -0.5000 
     47 CA         -2.3255  -14.1470  -42.2330 C.3       5 UNK         0.1400 
     48 CB         -3.4737  -13.4494  -41.4895 C.3       5 UNK        -0.1800 
     49 N          -1.0710  -13.4356  -41.9763 N.am      5 UNK        -0.5000 
     50 C           0.0837  -13.6983  -42.5997 C.2       4 UNK         0.5000 
     51 O           0.2136  -14.5573  -43.4781 O.2       4 UNK        -0.5000 
     52 CA          1.3041  -12.8966  -42.1416 C.3       4 UNK         0.1400 
     53 CB          2.1471  -13.7008  -41.1362 C.3       4 UNK        -0.1800 
     54 N           2.0832  -12.5769  -43.3262 N.am      4 UNK        -0.5000 
     55 C           2.9730  -11.5870  -43.4426 C.2       3 UNK         0.5000 
     56 O           3.3125  -10.8650  -42.5035 O.2       3 UNK        -0.5000 
     57 CA          3.5394  -11.3225  -44.8519 C.3       3 UNK         0.1400 
     58 CB          5.0458  -10.9872  -44.8422 C.3       3 UNK        -0.1800 
     59 N           3.2095  -12.3700  -45.8267 N.am      3 UNK        -0.5000 
     60 C           3.7364  -13.5984  -45.9539 C.2       2 UNK         0.5000 
     61 O           4.6284  -14.0371  -45.2280 O.2       2 UNK        -0.5000 
     62 CA          3.1596  -14.5043  -47.0680 C.3       2 UNK         0.1400 
     63 CB          2.7716  -15.8893  -46.5267 C.3       2 UNK        -0.1800 
     64 N           1.9830  -13.9419  -47.7289 N.am      2 UNK        -0.5000 
     65 C           1.9765  -12.9788  -48.6595 C.2       1 UNK         0.5000 
     66 O           2.9955  -12.4608  -49.1159 O.2       1 UNK        -0.5000 
     67 C          -1.4337  -22.7841  -47.8127 C.2       11 UNK         0.5000 
     68 O          -1.4038  -23.7578  -48.5662 O.2       11 UNK        -0.5000 
     69 N          -2.5727  -22.1844  -47.4424 N.am      12 UNK        -0.5000 
     70 CA         -3.9066  -22.6288  -47.8527 C.3       12 UNK         0.1400 
     71 CB         -4.9430  -21.5619  -47.4720 C.3       12 UNK        -0.1800 
     72 C          -4.2937  -24.0134  -47.3011 C.2       12 UNK         0.5000 
     73 O          -4.9992  -24.7557  -47.9833 O.2       12 UNK        -0.5000 
     74 N          -3.8168  -24.3482  -46.0974 N.am      13 UNK        -0.5000 
     75 CA         -4.0180  -25.6486  -45.4668 C.3       13 UNK         0.1400 
     76 CB         -3.8108  -25.5189  -43.9491 C.3       13 UNK        -0.1800 
     77 C          -3.1015  -26.7355  -46.0572 C.2       13 UNK         0.5000 
     78 O          -3.5930  -27.7965  -46.4441 O.2       13 UNK        -0.5000 
     79 N          -1.7881  -26.4721  -46.0810 N.am      14 UNK        -0.5000 
     80 CA         -0.7633  -27.4676  -46.3930 C.3       14 UNK         0.1400 
     81 CB          0.5461  -27.0933  -45.6795 C.3       14 UNK        -0.1800 
     82 C          -0.5225  -27.6424  -47.8998 C.2       14 UNK         0.5000 
     83 O          -0.4971  -28.7770  -48.3788 O.2       14 UNK        -0.5000 
     84 N          -0.3176  -26.5285  -48.6139 N.am      15 UNK        -0.5000 
     85 CA          0.0557  -26.5239  -50.0313 C.3       15 UNK         0.1400 
     86 CB          1.0656  -25.3917  -50.2774 C.3       15 UNK        -0.1800 
     87 C          -1.1567  -26.3684  -50.9642 C.2       15 UNK         0.5000 
     88 O          -1.0359  -26.6694  -52.1522 O.2       15 UNK        -0.5000 
     89 N          -2.2852  -25.8927  -50.4169 N.am      16 UNK        -0.5000 
     90 CA         -3.5178  -25.5187  -51.1145 C.3       16 UNK         0.1400 
     91 CB         -4.1965  -26.7457  -51.7586 C.3       16 UNK        -0.1800 
     92 C          -3.2810  -24.3542  -52.0957 C.2       16 UNK         0.5000 
     93 O          -3.6911  -24.4250  -53.2541 O.2       16 UNK        -0.5000 
     94 N          -2.6127  -23.3054  -51.6008 N.am      17 UNK        -0.5000 
     95 CA         -2.2745  -22.0926  -52.3404 C.3       17 UNK         0.1400 
     96 CB         -0.8266  -22.2128  -52.8451 C.3       17 UNK        -0.1800 
     97 C          -2.5504  -20.8487  -51.4729 C.2       17 UNK         0.5000 
     98 O          -3.3602  -20.9293  -50.5470 O.2       17 UNK        -0.5000 
     99 N          -1.9299  -19.7110  -51.8114 N.am      18 UNK        -0.5000 
    100 CA        -2.0586  -18.3748  -51.2121 C.3       18 UNK         0.1400 
    101 CB        -1.5684  -18.3570  -49.7516 C.3       18 UNK        -0.1800 
    102 C         -3.4701  -17.7733  -51.3401 C.2       18 UNK         0.5000 
    103 O         -3.6642  -16.8159  -52.0895 O.2       18 UNK        -0.5000 
    104 N         -4.4190  -18.3442  -50.5925 N.am      19 UNK        -0.5000 
    105 CA        -5.8370  -17.9970  -50.5979 C.3       19 UNK         0.1400 
    106 CB        -6.2877  -17.7516  -49.1492 C.3       19 UNK        -0.1800 
    107 C         -6.6882  -19.1067  -51.2405 C.2       19 UNK         0.5000 
    108 O         -7.7744  -18.8124  -51.7403 O.2       19 UNK        -0.5000 
    109 N         -6.1996  -20.3561  -51.2184 N.am      20 UNK        -0.5000 
    110 CA        -6.8997  -21.5237  -51.7607 C.3       20 UNK         0.1400 
    111 CB        -6.4660  -22.7688  -50.9725 C.3       20 UNK        -0.1800 
    112 C         -6.6763  -21.7173  -53.2741 C.2       20 UNK         0.5000 
    113 O         -7.4599  -22.4214  -53.9120 O.2       20 UNK        -0.5000 
    114 N         -5.6345  -21.0834  -53.8223 N.am      21 UNK        -0.5000 
    115 CA        -5.2611  -21.0578  -55.2345 C.3       21 UNK         0.1400 
    116 CB        -4.7179  -22.4268  -55.6985 C.3       21 UNK        -0.1800 
    117 C         -4.2338  -19.9288  -55.4279 C.2       21 UNK         0.5000 
    118 O         -4.0501  -19.1240  -54.5125 O.2       21 UNK        -0.5000 
    119 N         -3.6052  -19.8881  -56.6103 N.am      22 UNK        -0.5000 
    120 CA        -2.5400  -18.9776  -57.0891 C.3       22 UNK         0.1400 
    121 C         -2.8376  -17.4453  -57.0966 C.2       22 UNK         0.5000 
    122 N         -3.8004  -16.9452  -56.3368 N.am      22 UNK        -0.7600 
    123 O         -2.2012  -16.7029  -57.8399 O.2       22 UNK        -0.5000 
    124 C124       -1.1291  -19.3120  -56.5190 C.3       23 UNK        -0.0398 
    125 S125       -0.8678  -18.8180  -54.7838 S.3       23 UNK        -0.2404 
    126 C126        0.9224  -19.0420  -54.5686 C.3       23 UNK        -0.0205 
    127 H127       -1.4473  -13.0531  -45.1953 H         1 UNK         0.0600 
    128 H128       -2.4826  -13.1255  -46.6236 H         1 UNK         0.0600 
    129 H129       -2.2650  -11.5962  -45.7671 H         1 UNK         0.0600 
    130 H130       -1.2322  -13.3334  -48.4700 H         1 UNK         0.3000 
    131 H131        0.6681  -11.4216  -49.2695 H         1 UNK         0.0600 
    132 H132       -0.6853  -12.6451  -50.8895 H         1 UNK         0.0800 
    133 H133        0.9958  -12.8161  -51.2633 H         1 UNK         0.0800 
    134 H134        1.9601  -14.8609  -51.9697 H         1 UNK         0.0800 
    135 H135        2.3874  -15.2722  -50.3276 H         1 UNK         0.0800 
    136 H136        1.0372  -16.5544  -53.5069 H         1 UNK         0.1150 
    137 H137        1.7214  -20.6627  -52.4970 H         1 UNK         0.1150 
    138 H138        2.2758  -17.6050  -49.5418 H         1 UNK         0.1150 
    139 H139        3.3341  -20.8320  -50.2955 H         1 UNK         0.0800 
    140 H140        2.7885  -19.8545  -48.9609 H         1 UNK         0.0800 
    141 H141       -0.3100  -20.2776  -48.1173 H         1 UNK         0.0800 
    142 H142        1.2423  -20.5722  -47.3844 H         1 UNK         0.0800 
    143 H143        0.6124  -23.0637  -47.2689 H         1 UNK         0.0600 
    144 H144       -0.1629  -21.0076  -45.4721 H         1 UNK         0.3000 
    145 H145       -1.3587  -23.1957  -42.8832 H         1 UNK         0.0600 
    146 H146        0.3096  -21.8915  -41.6077 H         1 UNK         0.0600 
    147 H147        1.1173  -23.0637  -42.6363 H         1 UNK         0.0600 
    148 H148        1.0896  -21.3679  -43.0988 H         1 UNK         0.0600 
    149 H149       -1.2240  -20.3667  -42.9897 H         1 UNK         0.3000 
    150 H150       -4.4056  -19.8345  -44.5953 H         1 UNK         0.0600 
    151 H151       -4.8739  -20.1848  -42.1687 H         1 UNK         0.0600 
    152 H152       -4.7390  -18.4767  -42.5563 H         1 UNK         0.0600 
    153 H153       -3.4095  -19.3057  -41.7484 H         1 UNK         0.0600 
    154 H154       -2.5043  -17.9619  -43.6630 H         1 UNK         0.3000 
    155 H155       -0.4932  -17.8147  -46.6514 H         1 UNK         0.0600 
    156 H156       -2.3652  -15.8359  -45.2505 H         1 UNK         0.0600 
    157 H157       -2.4447  -16.2904  -46.9494 H         1 UNK         0.0600 
    158 H158       -1.0389  -15.4303  -46.3384 H         1 UNK         0.0600 
    159 H159       -0.2512  -16.5080  -44.1154 H         1 UNK         0.3000 
    160 H160        1.8032  -19.0012  -42.5618 H         1 UNK         0.0600 
    161 H161        2.4126  -16.1514  -43.5016 H         1 UNK         0.0600 
    162 H162        3.3459  -17.5856  -43.9148 H         1 UNK         0.0600 
    163 H163        3.2652  -17.0455  -42.2471 H         1 UNK         0.0600 
    164 H164        0.7017  -16.4466  -41.7568 H         1 UNK         0.3000 
    165 H165       -2.1931  -17.8056  -40.1731 H         1 UNK         0.0600 
    166 H166       -1.1943  -16.7148  -38.1845 H         1 UNK         0.0600 
    167 H167       -0.3557  -18.2187  -38.5295 H         1 UNK         0.0600 
    168 H168        0.3905  -16.6839  -38.9585 H         1 UNK         0.0600 
    169 H169       -1.1066  -15.1724  -40.2346 H         1 UNK         0.3000 
    170 H170       -2.5334  -14.0974  -43.3034 H         1 UNK         0.0600 
    171 H171       -4.4229  -13.9528  -41.6784 H         1 UNK         0.0600 
    172 H172       -3.3134  -13.4445  -40.4107 H         1 UNK         0.0600 
    173 H173       -3.5849  -12.4158  -41.8179 H         1 UNK         0.0600 
    174 H174       -1.0982  -12.7149  -41.2692 H         1 UNK         0.3000 
    175 H175        0.9652  -11.9690  -41.6754 H         1 UNK         0.0600 
    176 H176        2.5450  -14.6122  -41.5820 H         1 UNK         0.0600 
    177 H177        2.9909  -13.1155  -40.7710 H         1 UNK         0.0600 
    178 H178        1.5540  -13.9888  -40.2674 H         1 UNK         0.0600 
    179 H179        1.8368  -13.1152  -44.1463 H         1 UNK         0.3000 
    180 H180        3.0186  -10.4325  -45.2078 H         1 UNK         0.0600 
    181 H181        5.6383  -11.7815  -44.3880 H         1 UNK         0.0600 
    182 H182        5.2375  -10.0775  -44.2721 H         1 UNK         0.0600 
    183 H183        5.4207  -10.8205  -45.8520 H         1 UNK         0.0600 
    184 H184        2.4413  -12.1330  -46.4429 H         1 UNK         0.3000 
    185 H185        3.9475  -14.6373  -47.8120 H         1 UNK         0.0600 
    186 H186        3.6211  -16.3829  -46.0540 H         1 UNK         0.0600 
    187 H187        1.9733  -15.8143  -45.7887 H         1 UNK         0.0600 
    188 H188        2.4236  -16.5438  -47.3257 H         1 UNK         0.0600 
    189 H189        1.0887  -14.2955  -47.4228 H         1 UNK         0.3000 
    190 H190       -2.5239  -21.3482  -46.8672 H         1 UNK         0.3000 
    191 H191       -3.9072  -22.7279  -48.9370 H         1 UNK         0.0600 
    192 H192       -4.6980  -20.6009  -47.9242 H         1 UNK         0.0600 
    193 H193       -5.9387  -21.8412  -47.8169 H         1 UNK         0.0600 
    194 H194       -4.9973  -21.4209  -46.3931 H         1 UNK         0.0600 
    195 H195       -3.3151  -23.6478  -45.5618 H         1 UNK         0.3000 
    196 H196       -5.0523  -25.9583  -45.6323 H         1 UNK         0.0600 
    197 H197       -3.9654  -26.4764  -43.4502 H         1 UNK         0.0600 
    198 H198       -4.5156  -24.8086  -43.5164 H         1 UNK         0.0600 
    199 H199       -2.8046  -25.1788  -43.7035 H         1 UNK         0.0600 
    200 H200       -1.4548  -25.5703  -45.7437 H         1 UNK         0.3000 
    201 H201       -1.0833  -28.4335  -45.9956 H         1 UNK         0.0600 
    202 H202        0.4005  -27.0222  -44.6015 H         1 UNK         0.0600 
    203 H203        0.9385  -26.1366  -46.0264 H         1 UNK         0.0600 
    204 H204        1.3156  -27.8460  -45.8553 H         1 UNK         0.0600 
    205 H205       -0.4203  -25.6228  -48.1725 H         1 UNK         0.3000 
    206 H206        0.5474  -27.4647  -50.2879 H         1 UNK         0.0600 
    207 H207        1.9327  -25.4830  -49.6233 H         1 UNK         0.0600 
    208 H208        1.4295  -25.4106  -51.3054 H         1 UNK         0.0600 
    209 H209        0.6203  -24.4118  -50.1110 H         1 UNK         0.0600 
    210 H210       -2.2330  -25.6173  -49.4445 H         1 UNK         0.3000 
    211 H211       -4.2003  -25.1365  -50.3581 H         1 UNK         0.0600 
    212 H212       -3.6070  -27.1582  -52.5775 H         1 UNK         0.0600 
    213 H213       -5.1731  -26.4787  -52.1639 H         1 UNK         0.0600 
    214 H214       -4.3546  -27.5370  -51.0258 H         1 UNK         0.0600 
    215 H215       -2.3259  -23.3168  -50.6292 H         1 UNK         0.3000 
    216 H216       -2.9298  -21.9941  -53.2055 H         1 UNK         0.0600 
    217 H217       -0.6999  -23.1104  -53.4507 H         1 UNK         0.0600 
    218 H218       -0.1189  -22.2732  -52.0206 H         1 UNK         0.0600 
    219 H219       -0.5441  -21.3707  -53.4720 H         1 UNK         0.0600 
    220 H220       -1.3364  -19.7276  -52.6305 H         1 UNK         0.3000 
    221 H221       -1.3927  -17.7261  -51.7826 H         1 UNK         0.0600 
    222 H222       -2.1333  -19.0373  -49.1149 H         1 UNK         0.0600 
    223 H223       -0.5196  -18.6384  -49.6957 H         1 UNK         0.0600 
    224 H224       -1.6558  -17.3586  -49.3218 H         1 UNK         0.0600 
    225 H225       -4.1450  -19.1632  -50.0614 H         1 UNK         0.3000 
    226 H226       -6.0042  -17.0814  -51.1689 H         1 UNK         0.0600 
    227 H227       -5.7168  -16.9434  -48.6916 H         1 UNK         0.0600 
    228 H228       -7.3405  -17.4688  -49.1100 H         1 UNK         0.0600 
    229 H229       -6.1629  -18.6410  -48.5306 H         1 UNK         0.0600 
    230 H230       -5.2810  -20.5269  -50.8240 H         1 UNK         0.3000 
    231 H231       -7.9746  -21.3993  -51.6126 H         1 UNK         0.0600 
    232 H232       -5.3832  -22.8656  -50.9483 H         1 UNK         0.0600 
    233 H233       -6.8724  -23.6815  -51.4104 H         1 UNK         0.0600 
    234 H234       -6.8163  -22.7212  -49.9417 H         1 UNK         0.0600 
    235 H235       -5.0942  -20.4442  -53.2527 H         1 UNK         0.3000 
    236 H236       -6.1485  -20.8048  -55.8175 H         1 UNK         0.0600 
    237 H237       -5.3785  -23.2458  -55.4154 H         1 UNK         0.0600 
    238 H238       -4.6215  -22.4642  -56.7837 H         1 UNK         0.0600 
    239 H239       -3.7344  -22.6363  -55.2787 H         1 UNK         0.0600 
    240 H240       -3.8777  -20.5831  -57.2901 H         1 UNK         0.3000 
    241 H241       -2.4838  -19.2235  -58.1505 H         1 UNK         0.0600 
    242 H242       -3.9951  -15.9570  -56.3490 H         1 UNK         0.3800 
    243 H243       -4.2111  -17.5429  -55.6275 H         1 UNK         0.3800 
    244 H244       -0.9410  -20.3830  -56.6027 H         1 UNK         0.0800 
    245 H245       -0.3640  -18.8282  -57.1285 H         1 UNK         0.0800 
    246 H246        1.4588  -18.4229  -55.2891 H         1 UNK         0.0800 
    247 H247        1.1917  -20.0779  -54.7804 H         1 UNK         0.0800 
@<TRIPOS>BOND
     1    1    2 1    
     2    1  127 1    
     3    1  128 1    
     4    1  129 1    
     5    2    3 2    
     6    2    4 am   BACKBONE|DICT|INTERRES
     7    4    5 1    
     8    4  130 1    
     9    5    6 1    
    10    5   65 1    
    11    5  131 1    
    12    6    7 1    
    13    6  132 1    
    14    6  133 1    
    15    7    8 1    
    16    8    9 1    
    17    8  134 1    
    18    8  135 1    
    19    9   10 ar   
    20    9   14 ar   
    21   10   11 ar   
    22   10  136 1    
    23   11   12 ar   
    24   11  126 1    
    25   12   13 ar   
    26   12  137 1    
    27   13   14 ar   
    28   13   15 1    
    29   14  138 1    
    30   15   16 1    
    31   15  139 1    
    32   15  140 1    
    33   16   17 1    
    34   17   18 1    
    35   17  141 1    
    36   17  142 1    
    37   18   19 1    
    38   18   67 1    
    39   18  143 1    
    40   19   20 am   BACKBONE|DICT|INTERRES
    41   19  144 1    
    42   20   21 2    
    43   20   22 1    
    44   22   23 1    
    45   22   24 1    
    46   22  145 1    
    47   23  146 1    
    48   23  147 1    
    49   23  148 1    
    50   24   25 am   BACKBONE|DICT|INTERRES
    51   24  149 1    
    52   25   26 2    
    53   25   27 1    
    54   27   28 1    
    55   27   29 1    
    56   27  150 1    
    57   28  151 1    
    58   28  152 1    
    59   28  153 1    
    60   29   30 am   BACKBONE|DICT|INTERRES
    61   29  154 1    
    62   30   31 2    
    63   30   32 1    
    64   32   33 1    
    65   32   34 1    
    66   32  155 1    
    67   33  156 1    
    68   33  157 1    
    69   33  158 1    
    70   34   35 am   BACKBONE|DICT|INTERRES
    71   34  159 1    
    72   35   36 2    
    73   35   37 1    
    74   37   38 1    
    75   37   39 1    
    76   37  160 1    
    77   38  161 1    
    78   38  162 1    
    79   38  163 1    
    80   39   40 am   BACKBONE|DICT|INTERRES
    81   39  164 1    
    82   40   41 2    
    83   40   42 1    
    84   42   43 1    
    85   42   44 1    
    86   42  165 1    
    87   43  166 1    
    88   43  167 1    
    89   43  168 1    
    90   44   45 am   BACKBONE|DICT|INTERRES
    91   44  169 1    
    92   45   46 2    
    93   45   47 1    
    94   47   48 1    
    95   47   49 1    
    96   47  170 1    
    97   48  171 1    
    98   48  172 1    
    99   48  173 1    
   100   49   50 am   BACKBONE|DICT|INTERRES
   101   49  174 1    
   102   50   51 2    
   103   50   52 1    
   104   52   53 1    
   105   52   54 1    
   106   52  175 1    
   107   53  176 1    
   108   53  177 1    
   109   53  178 1    
   110   54   55 am   BACKBONE|DICT|INTERRES
   111   54  179 1    
   112   55   56 2    
   113   55   57 1    
   114   57   58 1    
   115   57   59 1    
   116   57  180 1    
   117   58  181 1    
   118   58  182 1    
   119   58  183 1    
   120   59   60 am   BACKBONE|DICT|INTERRES
   121   59  184 1    
   122   60   61 2    
   123   60   62 1    
   124   62   63 1    
   125   62   64 1    
   126   62  185 1    
   127   63  186 1    
   128   63  187 1    
   129   63  188 1    
   130   64   65 am   BACKBONE|DICT|INTERRES
   131   64  189 1    
   132   65   66 2    
   133   67   68 2    
   134   67   69 am   BACKBONE|DICT|INTERRES
   135   69   70 1    
   136   69  190 1    
   137   70   71 1    
   138   70   72 1    
   139   70  191 1    
   140   71  192 1    
   141   71  193 1    
   142   71  194 1    
   143   72   73 2    
   144   72   74 am   BACKBONE|DICT|INTERRES
   145   74   75 1    
   146   74  195 1    
   147   75   76 1    
   148   75   77 1    
   149   75  196 1    
   150   76  197 1    
   151   76  198 1    
   152   76  199 1    
   153   77   78 2    
   154   77   79 am   BACKBONE|DICT|INTERRES
   155   79   80 1    
   156   79  200 1    
   157   80   81 1    
   158   80   82 1    
   159   80  201 1    
   160   81  202 1    
   161   81  203 1    
   162   81  204 1    
   163   82   83 2    
   164   82   84 am   BACKBONE|DICT|INTERRES
   165   84   85 1    
   166   84  205 1    
   167   85   86 1    
   168   85   87 1    
   169   85  206 1    
   170   86  207 1    
   171   86  208 1    
   172   86  209 1    
   173   87   88 2    
   174   87   89 am   BACKBONE|DICT|INTERRES
   175   89   90 1    
   176   89  210 1    
   177   90   91 1    
   178   90   92 1    
   179   90  211 1    
   180   91  212 1    
   181   91  213 1    
   182   91  214 1    
   183   92   93 2    
   184   92   94 am   BACKBONE|DICT|INTERRES
   185   94   95 1    
   186   94  215 1    
   187   95   96 1    
   188   95   97 1    
   189   95  216 1    
   190   96  217 1    
   191   96  218 1    
   192   96  219 1    
   193   97   98 2    
   194   97   99 am   BACKBONE|DICT|INTERRES
   195   99  100 1    
   196   99  220 1    
   197  100  101 1    
   198  100  102 1    
   199  100  221 1    
   200  101  222 1    
   201  101  223 1    
   202  101  224 1    
   203  102  103 2    
   204  102  104 am   BACKBONE|DICT|INTERRES
   205  104  105 1    
   206  104  225 1    
   207  105  106 1    
   208  105  107 1    
   209  105  226 1    
   210  106  227 1    
   211  106  228 1    
   212  106  229 1    
   213  107  108 2    
   214  107  109 am   BACKBONE|DICT|INTERRES
   215  109  110 1    
   216  109  230 1    
   217  110  111 1    
   218  110  112 1    
   219  110  231 1    
   220  111  232 1    
   221  111  233 1    
   222  111  234 1    
   223  112  113 2    
   224  112  114 am   BACKBONE|DICT|INTERRES
   225  114  115 1    
   226  114  235 1    
   227  115  116 1    
   228  115  117 1    
   229  115  236 1    
   230  116  237 1    
   231  116  238 1    
   232  116  239 1    
   233  117  118 2    
   234  117  119 am   BACKBONE|DICT|INTERRES
   235  119  120 1    
   236  119  240 1    
   237  120  121 1    
   238  120  124 1    
   239  120  241 1    
   240  121  122 am   BACKBONE|DICT|INTERRES
   241  121  123 2    
   242  122  242 1    
   243  122  243 1    
   244  124  125 1    
   245  124  244 1    
   246  124  245 1    
   247  125  126 1    
   248  126  246 1    
   249  126  247 1    
@<TRIPOS>SUBSTRUCTURE
     1 UNK         1 GROUP             0       ****    0 ROOT    
