@<TRIPOS>MOLECULE
3R540
247   249    1
SMALL
USER_CHARGES


@<TRIPOS>ATOM
      1 CA          6.8410  -17.5386  -48.4065 C.3       0 UNK        -0.1800 
      2 C           5.4015  -17.1703  -48.7312 C.2       0 UNK         0.5000 
      3 O           4.4975  -17.4762  -47.9533 O.2       0 UNK        -0.5000 
      4 N           5.1910  -16.5067  -49.8754 N.am      1 UNK        -0.5000 
      5 CA          3.8890  -16.1504  -50.4622 C.3       1 UNK         0.1400 
      6 C6          4.0525  -15.4261  -51.8223 C.3       23 UNK        -0.0398 
      7 S7          5.0253  -16.4024  -53.0240 S.3       23 UNK        -0.2404 
      8 C8          3.7790  -16.8511  -54.2762 C.3       23 UNK        -0.0205 
      9 C9          2.6648  -17.7147  -53.7033 C.ar      23 UNK        -0.0193 
     10 C10         1.3721  -17.1974  -53.5699 C.ar      23 UNK        -0.1150 
     11 C11         0.3492  -17.9797  -53.0283 C.ar      23 UNK        -0.0193 
     12 C12         0.6273  -19.2847  -52.6167 C.ar      23 UNK        -0.1150 
     13 C13         1.9124  -19.8157  -52.7492 C.ar      23 UNK        -0.0193 
     14 C14         2.9260  -19.0298  -53.3048 C.ar      23 UNK        -0.1150 
     15 C15         2.1996  -21.2273  -52.2579 C.3       23 UNK        -0.0205 
     16 S16         3.3331  -21.2864  -50.8260 S.3       23 UNK        -0.2404 
     17 C17         2.7526  -19.9363  -49.7387 C.3       23 UNK        -0.0398 
     18 CA          1.8097  -20.3751  -48.5965 C.3       11 UNK         0.1400 
     19 N           1.8182  -19.3846  -47.5158 N.am      11 UNK        -0.5000 
     20 C           1.1459  -19.4703  -46.3599 C.2       10 UNK         0.5000 
     21 O           0.4982  -20.4651  -46.0211 O.2       10 UNK        -0.5000 
     22 CA          1.1991  -18.2241  -45.4513 C.3       10 UNK         0.1400 
     23 CB          1.3595  -16.9079  -46.2472 C.3       10 UNK        -0.1800 
     24 N           0.0449  -18.1070  -44.5581 N.am      10 UNK        -0.5000 
     25 C          -1.2416  -17.9655  -44.8970 C.2       9 UNK         0.5000 
     26 O          -1.6595  -18.0558  -46.0521 O.2       9 UNK        -0.5000 
     27 CA         -2.2106  -17.6600  -43.7338 C.3       9 UNK         0.1400 
     28 CB         -3.6460  -17.3736  -44.2105 C.3       9 UNK        -0.1800 
     29 N          -2.2425  -18.7209  -42.7255 N.am      9 UNK        -0.5000 
     30 C          -1.2859  -18.9758  -41.8255 C.2       8 UNK         0.5000 
     31 O          -0.2436  -18.3223  -41.7313 O.2       8 UNK        -0.5000 
     32 CA         -1.5677  -20.1217  -40.8420 C.3       8 UNK         0.1400 
     33 CB         -0.2821  -20.8367  -40.3963 C.3       8 UNK        -0.1800 
     34 N          -2.2511  -19.5772  -39.6736 N.am      8 UNK        -0.5000 
     35 C          -3.5705  -19.3488  -39.6126 C.2       7 UNK         0.5000 
     36 O          -4.3592  -19.6862  -40.4970 O.2       7 UNK        -0.5000 
     37 CA         -4.1049  -18.6073  -38.3715 C.3       7 UNK         0.1400 
     38 CB         -4.6177  -19.6092  -37.3260 C.3       7 UNK        -0.1800 
     39 N          -3.1191  -17.7262  -37.7429 N.am      7 UNK        -0.5000 
     40 C          -2.6082  -16.6176  -38.2960 C.2       6 UNK         0.5000 
     41 O          -2.9310  -16.1957  -39.4074 O.2       6 UNK        -0.5000 
     42 CA         -1.5467  -15.8489  -37.4825 C.3       6 UNK         0.1400 
     43 CB         -1.5266  -16.2007  -35.9771 C.3       6 UNK        -0.1800 
     44 N          -0.2089  -15.9960  -38.0634 N.am      6 UNK        -0.5000 
     45 C           0.4663  -17.1368  -38.2634 C.2       5 UNK         0.5000 
     46 O           0.0247  -18.2578  -38.0010 O.2       5 UNK        -0.5000 
     47 CA          1.8480  -16.9775  -38.9123 C.3       5 UNK         0.1400 
     48 CB          2.7529  -18.2096  -38.7314 C.3       5 UNK        -0.1800 
     49 N           1.6451  -16.7280  -40.3329 N.am      5 UNK        -0.5000 
     50 C           2.2631  -15.7936  -41.0591 C.2       4 UNK         0.5000 
     51 O           3.1116  -15.0163  -40.6145 O.2       4 UNK        -0.5000 
     52 CA          1.8146  -15.6950  -42.5268 C.3       4 UNK         0.1400 
     53 CB          0.5856  -14.7835  -42.6643 C.3       4 UNK        -0.1800 
     54 N           2.8730  -15.2112  -43.4099 N.am      4 UNK        -0.5000 
     55 C           3.9379  -15.9280  -43.7862 C.2       3 UNK         0.5000 
     56 O           4.1259  -17.0963  -43.4416 O.2       3 UNK        -0.5000 
     57 CA          4.9198  -15.2315  -44.7507 C.3       3 UNK         0.1400 
     58 CB          6.1775  -16.0744  -45.0243 C.3       3 UNK        -0.1800 
     59 N           4.2771  -14.9117  -46.0289 N.am      3 UNK        -0.5000 
     60 C           3.5016  -13.8403  -46.2540 C.2       2 UNK         0.5000 
     61 O           3.2449  -13.0080  -45.3824 O.2       2 UNK        -0.5000 
     62 CA          2.9059  -13.6675  -47.6663 C.3       2 UNK         0.1400 
     63 CB          2.9576  -12.2028  -48.1367 C.3       2 UNK        -0.1800 
     64 N           3.5850  -14.5064  -48.6561 N.am      2 UNK        -0.5000 
     65 C           2.9779  -15.3271  -49.5239 C.2       1 UNK         0.5000 
     66 O           1.7572  -15.4690  -49.5961 O.2       1 UNK        -0.5000 
     67 C           0.3850  -20.6684  -49.1200 C.2       11 UNK         0.5000 
     68 O           0.1067  -21.8028  -49.5068 O.2       11 UNK        -0.5000 
     69 N          -0.5039  -19.6617  -49.0763 N.am      12 UNK        -0.5000 
     70 CA         -1.9151  -19.7722  -49.4490 C.3       12 UNK         0.1400 
     71 CB         -2.5888  -18.3926  -49.3566 C.3       12 UNK        -0.1800 
     72 C          -2.6704  -20.8103  -48.5995 C.2       12 UNK         0.5000 
     73 O          -3.4448  -21.5918  -49.1515 O.2       12 UNK        -0.5000 
     74 N          -2.4047  -20.8252  -47.2870 N.am      13 UNK        -0.5000 
     75 CA         -2.9205  -21.8344  -46.3664 C.3       13 UNK         0.1400 
     76 CB         -2.8604  -21.3095  -44.9249 C.3       13 UNK        -0.1800 
     77 C          -2.1563  -23.1616  -46.4861 C.2       13 UNK         0.5000 
     78 O          -2.7894  -24.2149  -46.5496 O.2       13 UNK        -0.5000 
     79 N          -0.8169  -23.0905  -46.5125 N.am      14 UNK        -0.5000 
     80 CA          0.0735  -24.2550  -46.4801 C.3       14 UNK         0.1400 
     81 CB          1.5262  -23.7928  -46.2991 C.3       14 UNK        -0.1800 
     82 C          -0.0546  -25.1773  -47.7069 C.2       14 UNK         0.5000 
     83 O          -0.0722  -26.3980  -47.5445 O.2       14 UNK        -0.5000 
     84 N          -0.1633  -24.5852  -48.9034 N.am      15 UNK        -0.5000 
     85 CA         -0.3654  -25.3056  -50.1635 C.3       15 UNK         0.1400 
     86 CB          0.3081  -24.5152  -51.2975 C.3       15 UNK        -0.1800 
     87 C          -1.8569  -25.5256  -50.4853 C.2       15 UNK         0.5000 
     88 O          -2.1629  -26.2071  -51.4639 O.2       15 UNK        -0.5000 
     89 N          -2.7499  -24.9117  -49.6925 N.am      16 UNK        -0.5000 
     90 CA         -4.2063  -24.8299  -49.8659 C.3       16 UNK         0.1400 
     91 CB         -4.8618  -26.2234  -49.7841 C.3       16 UNK        -0.1800 
     92 C          -4.6342  -24.0435  -51.1253 C.2       16 UNK         0.5000 
     93 O          -5.7817  -24.1518  -51.5607 O.2       16 UNK        -0.5000 
     94 N          -3.7194  -23.2264  -51.6675 N.am      17 UNK        -0.5000 
     95 CA         -3.9215  -22.3727  -52.8372 C.3       17 UNK         0.1400 
     96 CB         -2.5718  -21.7912  -53.2796 C.3       17 UNK        -0.1800 
     97 C          -4.9552  -21.2539  -52.6137 C.2       17 UNK         0.5000 
     98 O          -5.4936  -20.7394  -53.5926 O.2       17 UNK        -0.5000 
     99 N          -5.2546  -20.9217  -51.3482 N.am      18 UNK        -0.5000 
    100 CA        -6.3339  -20.0170  -50.9364 C.3       18 UNK         0.1400 
    101 CB        -6.2977  -19.8522  -49.4088 C.3       18 UNK        -0.1800 
    102 C         -7.7387  -20.4772  -51.3798 C.2       18 UNK         0.5000 
    103 O         -8.6262  -19.6395  -51.5398 O.2       18 UNK        -0.5000 
    104 N         -7.9135  -21.7904  -51.5848 N.am      19 UNK        -0.5000 
    105 CA        -9.1343  -22.3961  -52.1185 C.3       19 UNK         0.1400 
    106 CB        -9.2735  -23.8102  -51.5302 C.3       19 UNK        -0.1800 
    107 C         -9.1533  -22.4408  -53.6620 C.2       19 UNK         0.5000 
    108 O        -10.1371  -22.9149  -54.2328 O.2       19 UNK        -0.5000 
    109 N         -8.0773  -21.9786  -54.3114 N.am      20 UNK        -0.5000 
    110 CA        -7.8751  -22.0072  -55.7540 C.3       20 UNK         0.1400 
    111 CB        -6.9567  -23.1971  -56.1048 C.3       20 UNK        -0.1800 
    112 C         -7.3507  -20.6350  -56.2153 C.2       20 UNK         0.5000 
    113 O         -8.0250  -19.6276  -55.9918 O.2       20 UNK        -0.5000 
    114 N         -6.1722  -20.6134  -56.8534 N.am      21 UNK        -0.5000 
    115 CA        -5.5576  -19.4589  -57.5157 C.3       21 UNK         0.1400 
    116 CB        -4.2384  -19.9094  -58.1625 C.3       21 UNK        -0.1800 
    117 C         -5.3163  -18.2233  -56.6262 C.2       21 UNK         0.5000 
    118 O         -5.3353  -17.1059  -57.1452 O.2       21 UNK        -0.5000 
    119 N         -5.1016  -18.4337  -55.3227 N.am      22 UNK        -0.5000 
    120 CA        -4.9259  -17.3653  -54.3252 C.3       22 UNK         0.1400 
    121 C         -6.2518  -16.9802  -53.6041 C.2       22 UNK         0.5000 
    122 N         -7.3971  -17.5629  -53.9397 N.am      22 UNK        -0.7600 
    123 O         -6.2450  -16.1265  -52.7217 O.2       22 UNK        -0.5000 
    124 C124       -3.8050  -17.6947  -53.3039 C.3       23 UNK        -0.0398 
    125 S125       -2.2042  -18.0984  -54.0842 S.3       23 UNK        -0.2404 
    126 C126       -1.0513  -17.4172  -52.8554 C.3       23 UNK        -0.0205 
    127 H127        7.2758  -16.8056  -47.7285 H         1 UNK         0.0600 
    128 H128        6.8813  -18.5168  -47.9272 H         1 UNK         0.0600 
    129 H129        7.4548  -17.5789  -49.3066 H         1 UNK         0.0600 
    130 H130        5.9857  -16.2933  -50.4619 H         1 UNK         0.3000 
    131 H131        3.3675  -17.0888  -50.6531 H         1 UNK         0.0600 
    132 H132        4.5563  -14.4678  -51.6838 H         1 UNK         0.0800 
    133 H133        3.0779  -15.1919  -52.2539 H         1 UNK         0.0800 
    134 H134        4.2712  -17.3953  -55.0834 H         1 UNK         0.0800 
    135 H135        3.3767  -15.9410  -54.7241 H         1 UNK         0.0800 
    136 H136        1.1628  -16.1834  -53.8803 H         1 UNK         0.1150 
    137 H137       -0.1599  -19.8846  -52.1847 H         1 UNK         0.1150 
    138 H138        3.9251  -19.4319  -53.4001 H         1 UNK         0.1150 
    139 H139        1.2718  -21.7315  -51.9880 H         1 UNK         0.0800 
    140 H140        2.6316  -21.8089  -53.0733 H         1 UNK         0.0800 
    141 H141        2.3193  -19.1140  -50.3051 H         1 UNK         0.0800 
    142 H142        3.6655  -19.5303  -49.3057 H         1 UNK         0.0800 
    143 H143        2.2018  -21.2985  -48.1719 H         1 UNK         0.0600 
    144 H144        2.3724  -18.5546  -47.6837 H         1 UNK         0.3000 
    145 H145        2.0728  -18.3467  -44.8108 H         1 UNK         0.0600 
    146 H146        1.2765  -16.0385  -45.5969 H         1 UNK         0.0600 
    147 H147        2.3332  -16.8494  -46.7276 H         1 UNK         0.0600 
    148 H148        0.6016  -16.8047  -47.0251 H         1 UNK         0.0600 
    149 H149        0.2472  -18.1300  -43.5636 H         1 UNK         0.3000 
    150 H150       -1.8463  -16.7498  -43.2532 H         1 UNK         0.0600 
    151 H151       -3.6625  -16.5395  -44.9132 H         1 UNK         0.0600 
    152 H152       -4.2916  -17.1034  -43.3746 H         1 UNK         0.0600 
    153 H153       -4.0912  -18.2309  -44.7143 H         1 UNK         0.0600 
    154 H154       -3.0838  -19.2798  -42.6959 H         1 UNK         0.3000 
    155 H155       -2.2016  -20.8612  -41.3364 H         1 UNK         0.0600 
    156 H156       -0.5078  -21.6761  -39.7386 H         1 UNK         0.0600 
    157 H157        0.2619  -21.2314  -41.2552 H         1 UNK         0.0600 
    158 H158        0.3901  -20.1677  -39.8613 H         1 UNK         0.0600 
    159 H159       -1.6564  -19.2156  -38.9357 H         1 UNK         0.3000 
    160 H160       -4.9463  -17.9916  -38.6963 H         1 UNK         0.0600 
    161 H161       -3.8135  -20.2406  -36.9458 H         1 UNK         0.0600 
    162 H162       -5.3766  -20.2660  -37.7534 H         1 UNK         0.0600 
    163 H163       -5.0734  -19.0973  -36.4783 H         1 UNK         0.0600 
    164 H164       -2.7718  -18.0104  -36.8384 H         1 UNK         0.3000 
    165 H165       -1.8075  -14.7928  -37.5664 H         1 UNK         0.0600 
    166 H166       -1.2187  -17.2302  -35.7920 H         1 UNK         0.0600 
    167 H167       -0.8357  -15.5521  -35.4383 H         1 UNK         0.0600 
    168 H168       -2.5108  -16.0609  -35.5279 H         1 UNK         0.0600 
    169 H169        0.2210  -15.1355  -38.3727 H         1 UNK         0.3000 
    170 H170        2.3361  -16.1248  -38.4354 H         1 UNK         0.0600 
    171 H171        2.8691  -18.4575  -37.6757 H         1 UNK         0.0600 
    172 H172        2.3504  -19.0878  -39.2353 H         1 UNK         0.0600 
    173 H173        3.7486  -18.0245  -39.1344 H         1 UNK         0.0600 
    174 H174        0.9344  -17.3074  -40.7793 H         1 UNK         0.3000 
    175 H175        1.5410  -16.6958  -42.8572 H         1 UNK         0.0600 
    176 H176        0.8132  -13.7570  -42.3743 H         1 UNK         0.0600 
    177 H177        0.2165  -14.7693  -43.6898 H         1 UNK         0.0600 
    178 H178       -0.2320  -15.1307  -42.0309 H         1 UNK         0.0600 
    179 H179        2.7970  -14.2580  -43.7457 H         1 UNK         0.3000 
    180 H180        5.2450  -14.3061  -44.2704 H         1 UNK         0.0600 
    181 H181        5.9321  -17.0190  -45.5110 H         1 UNK         0.0600 
    182 H182        6.6996  -16.3096  -44.0960 H         1 UNK         0.0600 
    183 H183        6.8793  -15.5366  -45.6615 H         1 UNK         0.0600 
    184 H184        4.3681  -15.6076  -46.7582 H         1 UNK         0.3000 
    185 H185        1.8573  -13.9597  -47.5818 H         1 UNK         0.0600 
    186 H186        2.4128  -11.5481  -47.4554 H         1 UNK         0.0600 
    187 H187        3.9833  -11.8373  -48.1968 H         1 UNK         0.0600 
    188 H188        2.5036  -12.0904  -49.1214 H         1 UNK         0.0600 
    189 H189        4.5944  -14.4579  -48.6666 H         1 UNK         0.3000 
    190 H190       -0.2070  -18.7728  -48.7014 H         1 UNK         0.3000 
    191 H191       -1.9469  -20.0964  -50.4891 H         1 UNK         0.0600 
    192 H192       -3.4712  -18.3528  -49.9952 H         1 UNK         0.0600 
    193 H193       -1.9239  -17.5895  -49.6715 H         1 UNK         0.0600 
    194 H194       -2.9119  -18.1604  -48.3417 H         1 UNK         0.0600 
    195 H195       -1.7644  -20.1368  -46.9080 H         1 UNK         0.3000 
    196 H196       -3.9681  -22.0278  -46.6079 H         1 UNK         0.0600 
    197 H197       -3.2087  -22.0634  -44.2178 H         1 UNK         0.0600 
    198 H198       -3.4997  -20.4374  -44.8055 H         1 UNK         0.0600 
    199 H199       -1.8465  -21.0308  -44.6359 H         1 UNK         0.0600 
    200 H200       -0.3774  -22.1770  -46.4403 H         1 UNK         0.3000 
    201 H201       -0.1995  -24.8415  -45.6003 H         1 UNK         0.0600 
    202 H202        1.6303  -23.1296  -45.4400 H         1 UNK         0.0600 
    203 H203        1.8909  -23.2668  -47.1793 H         1 UNK         0.0600 
    204 H204        2.1861  -24.6455  -46.1350 H         1 UNK         0.0600 
    205 H205       -0.1163  -23.5699  -48.9693 H         1 UNK         0.3000 
    206 H206        0.1110  -26.2864  -50.1067 H         1 UNK         0.0600 
    207 H207        1.3499  -24.2936  -51.0643 H         1 UNK         0.0600 
    208 H208        0.2964  -25.0818  -52.2292 H         1 UNK         0.0600 
    209 H209       -0.2030  -23.5708  -51.4857 H         1 UNK         0.0600 
    210 H210       -2.3874  -24.4031  -48.8973 H         1 UNK         0.3000 
    211 H211       -4.5708  -24.2485  -49.0178 H         1 UNK         0.0600 
    212 H212       -4.6138  -26.8416  -50.6471 H         1 UNK         0.0600 
    213 H213       -5.9486  -26.1416  -49.7456 H         1 UNK         0.0600 
    214 H214       -4.5458  -26.7548  -48.8865 H         1 UNK         0.0600 
    215 H215       -2.8263  -23.1571  -51.2034 H         1 UNK         0.3000 
    216 H216       -4.3005  -23.0029  -53.6440 H         1 UNK         0.0600 
    217 H217       -2.6831  -21.1922  -54.1845 H         1 UNK         0.0600 
    218 H218       -1.8534  -22.5808  -53.5010 H         1 UNK         0.0600 
    219 H219       -2.1397  -21.1496  -52.5140 H         1 UNK         0.0600 
    220 H220       -4.7305  -21.3666  -50.5999 H         1 UNK         0.3000 
    221 H221       -6.1501  -19.0432  -51.3925 H         1 UNK         0.0600 
    222 H222       -6.4112  -20.8101  -48.8996 H         1 UNK         0.0600 
    223 H223       -5.3620  -19.4073  -49.0760 H         1 UNK         0.0600 
    224 H224       -7.1014  -19.1996  -49.0652 H         1 UNK         0.0600 
    225 H225       -7.1306  -22.4190  -51.4457 H         1 UNK         0.3000 
    226 H226       -9.9999  -21.8124  -51.7989 H         1 UNK         0.0600 
    227 H227       -9.2643  -23.7878  -50.4403 H         1 UNK         0.0600 
    228 H228      -10.2132  -24.2716  -51.8361 H         1 UNK         0.0600 
    229 H229       -8.4656  -24.4644  -51.8595 H         1 UNK         0.0600 
    230 H230       -7.3297  -21.5421  -53.7830 H         1 UNK         0.3000 
    231 H231       -8.8284  -22.1510  -56.2662 H         1 UNK         0.0600 
    232 H232       -7.4029  -24.1379  -55.7818 H         1 UNK         0.0600 
    233 H233       -5.9823  -23.1154  -55.6216 H         1 UNK         0.0600 
    234 H234       -6.7986  -23.2751  -57.1812 H         1 UNK         0.0600 
    235 H235       -5.6814  -21.4891  -56.9564 H         1 UNK         0.3000 
    236 H236       -6.2373  -19.1495  -58.3121 H         1 UNK         0.0600 
    237 H237       -3.7620  -19.0858  -58.6962 H         1 UNK         0.0600 
    238 H238       -3.5294  -20.2694  -57.4156 H         1 UNK         0.0600 
    239 H239       -4.4034  -20.7092  -58.8847 H         1 UNK         0.0600 
    240 H240       -5.1547  -19.3774  -54.9516 H         1 UNK         0.3000 
    241 H241       -4.6112  -16.4554  -54.8391 H         1 UNK         0.0600 
    242 H242       -8.2400  -17.3106  -53.4493 H         1 UNK         0.3800 
    243 H243       -7.4408  -18.2615  -54.6745 H         1 UNK         0.3800 
    244 H244       -4.0923  -18.5301  -52.6682 H         1 UNK         0.0800 
    245 H245       -3.6577  -16.8459  -52.6337 H         1 UNK         0.0800 
    246 H246       -1.0470  -16.3282  -52.9244 H         1 UNK         0.0800 
    247 H247       -1.4035  -17.6641  -51.8563 H         1 UNK         0.0800 
@<TRIPOS>BOND
     1    1    2 1    
     2    1  127 1    
     3    1  128 1    
     4    1  129 1    
     5    2    3 2    
     6    2    4 am   BACKBONE|DICT|INTERRES
     7    4    5 1    
     8    4  130 1    
     9    5    6 1    
    10    5   65 1    
    11    5  131 1    
    12    6    7 1    
    13    6  132 1    
    14    6  133 1    
    15    7    8 1    
    16    8    9 1    
    17    8  134 1    
    18    8  135 1    
    19    9   10 ar   
    20    9   14 ar   
    21   10   11 ar   
    22   10  136 1    
    23   11   12 ar   
    24   11  126 1    
    25   12   13 ar   
    26   12  137 1    
    27   13   14 ar   
    28   13   15 1    
    29   14  138 1    
    30   15   16 1    
    31   15  139 1    
    32   15  140 1    
    33   16   17 1    
    34   17   18 1    
    35   17  141 1    
    36   17  142 1    
    37   18   19 1    
    38   18   67 1    
    39   18  143 1    
    40   19   20 am   BACKBONE|DICT|INTERRES
    41   19  144 1    
    42   20   21 2    
    43   20   22 1    
    44   22   23 1    
    45   22   24 1    
    46   22  145 1    
    47   23  146 1    
    48   23  147 1    
    49   23  148 1    
    50   24   25 am   BACKBONE|DICT|INTERRES
    51   24  149 1    
    52   25   26 2    
    53   25   27 1    
    54   27   28 1    
    55   27   29 1    
    56   27  150 1    
    57   28  151 1    
    58   28  152 1    
    59   28  153 1    
    60   29   30 am   BACKBONE|DICT|INTERRES
    61   29  154 1    
    62   30   31 2    
    63   30   32 1    
    64   32   33 1    
    65   32   34 1    
    66   32  155 1    
    67   33  156 1    
    68   33  157 1    
    69   33  158 1    
    70   34   35 am   BACKBONE|DICT|INTERRES
    71   34  159 1    
    72   35   36 2    
    73   35   37 1    
    74   37   38 1    
    75   37   39 1    
    76   37  160 1    
    77   38  161 1    
    78   38  162 1    
    79   38  163 1    
    80   39   40 am   BACKBONE|DICT|INTERRES
    81   39  164 1    
    82   40   41 2    
    83   40   42 1    
    84   42   43 1    
    85   42   44 1    
    86   42  165 1    
    87   43  166 1    
    88   43  167 1    
    89   43  168 1    
    90   44   45 am   BACKBONE|DICT|INTERRES
    91   44  169 1    
    92   45   46 2    
    93   45   47 1    
    94   47   48 1    
    95   47   49 1    
    96   47  170 1    
    97   48  171 1    
    98   48  172 1    
    99   48  173 1    
   100   49   50 am   BACKBONE|DICT|INTERRES
   101   49  174 1    
   102   50   51 2    
   103   50   52 1    
   104   52   53 1    
   105   52   54 1    
   106   52  175 1    
   107   53  176 1    
   108   53  177 1    
   109   53  178 1    
   110   54   55 am   BACKBONE|DICT|INTERRES
   111   54  179 1    
   112   55   56 2    
   113   55   57 1    
   114   57   58 1    
   115   57   59 1    
   116   57  180 1    
   117   58  181 1    
   118   58  182 1    
   119   58  183 1    
   120   59   60 am   BACKBONE|DICT|INTERRES
   121   59  184 1    
   122   60   61 2    
   123   60   62 1    
   124   62   63 1    
   125   62   64 1    
   126   62  185 1    
   127   63  186 1    
   128   63  187 1    
   129   63  188 1    
   130   64   65 am   BACKBONE|DICT|INTERRES
   131   64  189 1    
   132   65   66 2    
   133   67   68 2    
   134   67   69 am   BACKBONE|DICT|INTERRES
   135   69   70 1    
   136   69  190 1    
   137   70   71 1    
   138   70   72 1    
   139   70  191 1    
   140   71  192 1    
   141   71  193 1    
   142   71  194 1    
   143   72   73 2    
   144   72   74 am   BACKBONE|DICT|INTERRES
   145   74   75 1    
   146   74  195 1    
   147   75   76 1    
   148   75   77 1    
   149   75  196 1    
   150   76  197 1    
   151   76  198 1    
   152   76  199 1    
   153   77   78 2    
   154   77   79 am   BACKBONE|DICT|INTERRES
   155   79   80 1    
   156   79  200 1    
   157   80   81 1    
   158   80   82 1    
   159   80  201 1    
   160   81  202 1    
   161   81  203 1    
   162   81  204 1    
   163   82   83 2    
   164   82   84 am   BACKBONE|DICT|INTERRES
   165   84   85 1    
   166   84  205 1    
   167   85   86 1    
   168   85   87 1    
   169   85  206 1    
   170   86  207 1    
   171   86  208 1    
   172   86  209 1    
   173   87   88 2    
   174   87   89 am   BACKBONE|DICT|INTERRES
   175   89   90 1    
   176   89  210 1    
   177   90   91 1    
   178   90   92 1    
   179   90  211 1    
   180   91  212 1    
   181   91  213 1    
   182   91  214 1    
   183   92   93 2    
   184   92   94 am   BACKBONE|DICT|INTERRES
   185   94   95 1    
   186   94  215 1    
   187   95   96 1    
   188   95   97 1    
   189   95  216 1    
   190   96  217 1    
   191   96  218 1    
   192   96  219 1    
   193   97   98 2    
   194   97   99 am   BACKBONE|DICT|INTERRES
   195   99  100 1    
   196   99  220 1    
   197  100  101 1    
   198  100  102 1    
   199  100  221 1    
   200  101  222 1    
   201  101  223 1    
   202  101  224 1    
   203  102  103 2    
   204  102  104 am   BACKBONE|DICT|INTERRES
   205  104  105 1    
   206  104  225 1    
   207  105  106 1    
   208  105  107 1    
   209  105  226 1    
   210  106  227 1    
   211  106  228 1    
   212  106  229 1    
   213  107  108 2    
   214  107  109 am   BACKBONE|DICT|INTERRES
   215  109  110 1    
   216  109  230 1    
   217  110  111 1    
   218  110  112 1    
   219  110  231 1    
   220  111  232 1    
   221  111  233 1    
   222  111  234 1    
   223  112  113 2    
   224  112  114 am   BACKBONE|DICT|INTERRES
   225  114  115 1    
   226  114  235 1    
   227  115  116 1    
   228  115  117 1    
   229  115  236 1    
   230  116  237 1    
   231  116  238 1    
   232  116  239 1    
   233  117  118 2    
   234  117  119 am   BACKBONE|DICT|INTERRES
   235  119  120 1    
   236  119  240 1    
   237  120  121 1    
   238  120  124 1    
   239  120  241 1    
   240  121  122 am   BACKBONE|DICT|INTERRES
   241  121  123 2    
   242  122  242 1    
   243  122  243 1    
   244  124  125 1    
   245  124  244 1    
   246  124  245 1    
   247  125  126 1    
   248  126  246 1    
   249  126  247 1    
@<TRIPOS>SUBSTRUCTURE
     1 UNK         1 GROUP             0       ****    0 ROOT    
