@<TRIPOS>MOLECULE
3R540
247   249    1
SMALL
USER_CHARGES


@<TRIPOS>ATOM
      1 CA         -3.3893  -13.0992  -45.2724 C.3       0 UNK        -0.1800 
      2 C          -2.5854  -11.8118  -45.1479 C.2       0 UNK         0.5000 
      3 O          -3.0153  -10.8826  -44.4641 O.2       0 UNK        -0.5000 
      4 N          -1.4264  -11.7523  -45.8124 N.am      1 UNK        -0.5000 
      5 CA         -0.4602  -10.6517  -45.7466 C.3       1 UNK         0.1400 
      6 C6          0.5525  -10.6708  -46.9289 C.3       23 UNK        -0.0398 
      7 S7          1.0560  -12.3395  -47.4926 S.3       23 UNK        -0.2404 
      8 C8          0.0764  -12.4796  -49.0238 C.3       23 UNK        -0.0205 
      9 C9         -0.2690  -13.9269  -49.3272 C.ar      23 UNK        -0.0193 
     10 C10         0.5308  -14.6870  -50.1865 C.ar      23 UNK        -0.1150 
     11 C11         0.2182  -16.0263  -50.4392 C.ar      23 UNK        -0.0193 
     12 C12        -0.9024  -16.5979  -49.8341 C.ar      23 UNK        -0.1150 
     13 C13        -1.7015  -15.8509  -48.9670 C.ar      23 UNK        -0.0193 
     14 C14        -1.3897  -14.5107  -48.7294 C.ar      23 UNK        -0.1150 
     15 C15        -2.8318  -16.5250  -48.2102 C.3       23 UNK        -0.0205 
     16 S16        -4.1038  -17.2267  -49.2996 S.3       23 UNK        -0.2404 
     17 C17        -4.9953  -18.2710  -48.0965 C.3       23 UNK        -0.0398 
     18 CA         -4.5711  -19.7594  -48.1792 C.3       11 UNK         0.1400 
     19 N          -3.1577  -19.9543  -47.8366 N.am      11 UNK        -0.5000 
     20 C          -2.3776  -20.9225  -48.3325 C.2       10 UNK         0.5000 
     21 O          -2.7469  -21.7075  -49.2010 O.2       10 UNK        -0.5000 
     22 CA         -0.9615  -21.0705  -47.7464 C.3       10 UNK         0.1400 
     23 CB          0.0939  -20.6593  -48.7853 C.3       10 UNK        -0.1800 
     24 N          -0.7457  -20.3330  -46.4948 N.am      10 UNK        -0.5000 
     25 C          -1.3166  -20.6437  -45.3200 C.2       9 UNK         0.5000 
     26 O          -2.1682  -21.5251  -45.2026 O.2       9 UNK        -0.5000 
     27 CA         -0.8981  -19.8443  -44.0696 C.3       9 UNK         0.1400 
     28 CB          0.2067  -20.5946  -43.3114 C.3       9 UNK        -0.1800 
     29 N          -0.4413  -18.4853  -44.3543 N.am      9 UNK        -0.5000 
     30 C          -1.2084  -17.5063  -44.8510 C.2       8 UNK         0.5000 
     31 O          -2.4160  -17.6280  -45.0601 O.2       8 UNK        -0.5000 
     32 CA         -0.5010  -16.1864  -45.2215 C.3       8 UNK         0.1400 
     33 CB         -0.5294  -15.2097  -44.0392 C.3       8 UNK        -0.1800 
     34 N           0.8817  -16.3495  -45.6823 N.am      8 UNK        -0.5000 
     35 C           1.2712  -17.1178  -46.7113 C.2       7 UNK         0.5000 
     36 O           0.5099  -17.8332  -47.3563 O.2       7 UNK        -0.5000 
     37 CA          2.7735  -17.1541  -47.0221 C.3       7 UNK         0.1400 
     38 CB          3.2366  -15.8580  -47.7056 C.3       7 UNK        -0.1800 
     39 N           3.5356  -17.3825  -45.7968 N.am      7 UNK        -0.5000 
     40 C           3.6902  -18.5865  -45.2262 C.2       6 UNK         0.5000 
     41 O           3.2958  -19.6380  -45.7305 O.2       6 UNK        -0.5000 
     42 CA          4.3847  -18.6276  -43.8510 C.3       6 UNK         0.1400 
     43 CB          5.8969  -18.8399  -44.0171 C.3       6 UNK        -0.1800 
     44 N           4.1552  -17.4228  -43.0528 N.am      6 UNK        -0.5000 
     45 C           2.9688  -17.0552  -42.5491 C.2       5 UNK         0.5000 
     46 O           1.9375  -17.7154  -42.6739 O.2       5 UNK        -0.5000 
     47 CA          2.9218  -15.6945  -41.8278 C.3       5 UNK         0.1400 
     48 CB          3.2734  -15.8578  -40.3421 C.3       5 UNK        -0.1800 
     49 N           3.7985  -14.6809  -42.4218 N.am      5 UNK        -0.5000 
     50 C           3.7399  -14.2427  -43.6863 C.2       4 UNK         0.5000 
     51 O           2.9495  -14.6912  -44.5178 O.2       4 UNK        -0.5000 
     52 CA          4.7382  -13.1324  -44.0758 C.3       4 UNK         0.1400 
     53 CB          4.6224  -12.7259  -45.5553 C.3       4 UNK        -0.1800 
     54 N           4.5686  -11.9362  -43.2537 N.am      4 UNK        -0.5000 
     55 C           4.9751  -11.7663  -41.9914 C.2       3 UNK         0.5000 
     56 O           5.5844  -12.6296  -41.3577 O.2       3 UNK        -0.5000 
     57 CA          4.6161  -10.4330  -41.3033 C.3       3 UNK         0.1400 
     58 CB          5.6587   -9.3445  -41.6218 C.3       3 UNK        -0.1800 
     59 N           3.2451   -9.9599  -41.5558 N.am      3 UNK        -0.5000 
     60 C           2.6953   -9.5376  -42.7028 C.2       2 UNK         0.5000 
     61 O           3.3006   -9.4604  -43.7752 O.2       2 UNK        -0.5000 
     62 CA          1.2133   -9.1278  -42.6312 C.3       2 UNK         0.1400 
     63 CB          1.0854   -7.6345  -42.2930 C.3       2 UNK        -0.1800 
     64 N           0.5128   -9.3907  -43.8884 N.am      2 UNK        -0.5000 
     65 C           0.2463  -10.6103  -44.3745 C.2       1 UNK         0.5000 
     66 O           0.5319  -11.6575  -43.7889 O.2       1 UNK        -0.5000 
     67 C          -5.4994  -20.6560  -47.3248 C.2       11 UNK         0.5000 
     68 O          -6.7151  -20.5931  -47.5092 O.2       11 UNK        -0.5000 
     69 N          -4.9378  -21.4720  -46.4198 N.am      12 UNK        -0.5000 
     70 CA         -5.6684  -22.4228  -45.5841 C.3       12 UNK         0.1400 
     71 CB         -5.7524  -21.8849  -44.1464 C.3       12 UNK        -0.1800 
     72 C          -5.0106  -23.8105  -45.6195 C.2       12 UNK         0.5000 
     73 O          -5.6994  -24.7978  -45.8841 O.2       12 UNK        -0.5000 
     74 N          -3.6950  -23.8660  -45.3677 N.am      13 UNK        -0.5000 
     75 CA         -2.8956  -25.0895  -45.2729 C.3       13 UNK         0.1400 
     76 CB         -1.4506  -24.7150  -44.9099 C.3       13 UNK        -0.1800 
     77 C          -2.9198  -25.9260  -46.5637 C.2       13 UNK         0.5000 
     78 O          -2.8542  -25.3589  -47.6553 O.2       13 UNK        -0.5000 
     79 N          -3.0140  -27.2550  -46.4083 N.am      14 UNK        -0.5000 
     80 CA         -3.0792  -28.2623  -47.4767 C.3       14 UNK         0.1400 
     81 CB         -1.7176  -28.3740  -48.1943 C.3       14 UNK        -0.1800 
     82 C          -4.2579  -28.0319  -48.4482 C.2       14 UNK         0.5000 
     83 O          -4.0883  -28.1377  -49.6644 O.2       14 UNK        -0.5000 
     84 N          -5.4232  -27.6774  -47.8823 N.am      15 UNK        -0.5000 
     85 CA         -6.6554  -27.2811  -48.5759 C.3       15 UNK         0.1400 
     86 CB         -7.2720  -28.4784  -49.3298 C.3       15 UNK        -0.1800 
     87 C          -6.4259  -26.0517  -49.4779 C.2       15 UNK         0.5000 
     88 O          -6.7568  -26.0772  -50.6640 O.2       15 UNK        -0.5000 
     89 N          -5.8019  -25.0187  -48.8944 N.am      16 UNK        -0.5000 
     90 CA         -5.3194  -23.7962  -49.5448 C.3       16 UNK         0.1400 
     91 CB         -6.5046  -22.9153  -49.9886 C.3       16 UNK        -0.1800 
     92 C          -4.3272  -24.0960  -50.6888 C.2       16 UNK         0.5000 
     93 O          -4.4780  -23.5714  -51.7931 O.2       16 UNK        -0.5000 
     94 N          -3.3641  -24.9853  -50.4056 N.am      17 UNK        -0.5000 
     95 CA         -2.3756  -25.5601  -51.3219 C.3       17 UNK         0.1400 
     96 CB         -1.2952  -24.5160  -51.6605 C.3       17 UNK        -0.1800 
     97 C          -3.0365  -26.1756  -52.5724 C.2       17 UNK         0.5000 
     98 O          -2.7264  -25.7797  -53.6966 O.2       17 UNK        -0.5000 
     99 N          -3.9905  -27.0892  -52.3391 N.am      18 UNK        -0.5000 
    100 CA        -4.8718  -27.7169  -53.3321 C.3       18 UNK         0.1400 
    101 CB        -4.0775  -28.7049  -54.2108 C.3       18 UNK        -0.1800 
    102 C         -5.6703  -26.6793  -54.1548 C.2       18 UNK         0.5000 
    103 O         -5.7653  -26.7884  -55.3785 O.2       18 UNK        -0.5000 
    104 N         -6.1975  -25.6705  -53.4482 N.am      19 UNK        -0.5000 
    105 CA        -6.9428  -24.5017  -53.9252 C.3       19 UNK         0.1400 
    106 CB        -8.2606  -24.9344  -54.6005 C.3       19 UNK        -0.1800 
    107 C         -6.1395  -23.5092  -54.7972 C.2       19 UNK         0.5000 
    108 O         -6.7397  -22.5759  -55.3341 O.2       19 UNK        -0.5000 
    109 N         -4.8184  -23.6936  -54.9308 N.am      20 UNK        -0.5000 
    110 CA        -3.9557  -22.8429  -55.7526 C.3       20 UNK         0.1400 
    111 CB        -2.8276  -23.6968  -56.3511 C.3       20 UNK        -0.1800 
    112 C         -3.3599  -21.6521  -54.9806 C.2       20 UNK         0.5000 
    113 O         -3.0007  -20.6596  -55.6174 O.2       20 UNK        -0.5000 
    114 N         -3.2423  -21.7710  -53.6480 N.am      21 UNK        -0.5000 
    115 CA        -2.5538  -20.8668  -52.7183 C.3       21 UNK         0.1400 
    116 CB        -3.3643  -19.5709  -52.5054 C.3       21 UNK        -0.1800 
    117 C         -1.0863  -20.6203  -53.1304 C.2       21 UNK         0.5000 
    118 O         -0.2102  -21.4073  -52.7719 O.2       21 UNK        -0.5000 
    119 N         -0.8570  -19.5611  -53.9091 N.am      22 UNK        -0.5000 
    120 CA         0.4085  -19.2325  -54.5790 C.3       22 UNK         0.1400 
    121 C          0.1945  -18.6939  -56.0248 C.2       22 UNK         0.5000 
    122 N         -0.9585  -18.9124  -56.6488 N.am      22 UNK        -0.7600 
    123 O          1.0901  -18.0885  -56.6079 O.2       22 UNK        -0.5000 
    124 C124        1.3452  -18.3537  -53.7051 C.3       23 UNK        -0.0398 
    125 S125        0.5512  -16.8398  -53.0553 S.3       23 UNK        -0.2404 
    126 C126        1.1058  -16.8818  -51.3244 C.3       23 UNK        -0.0205 
    127 H127       -4.3073  -12.9165  -45.8307 H         1 UNK         0.0600 
    128 H128       -3.6584  -13.4709  -44.2837 H         1 UNK         0.0600 
    129 H129       -2.8280  -13.8807  -45.7836 H         1 UNK         0.0600 
    130 H130       -1.0963  -12.5589  -46.3220 H         1 UNK         0.3000 
    131 H131       -1.0322   -9.7251  -45.8343 H         1 UNK         0.0600 
    132 H132        0.1175  -10.1354  -47.7735 H         1 UNK         0.0800 
    133 H133        1.4556  -10.1074  -46.6854 H         1 UNK         0.0800 
    134 H134       -0.8492  -11.9088  -48.9343 H         1 UNK         0.0800 
    135 H135        0.6327  -12.0352  -49.8505 H         1 UNK         0.0800 
    136 H136        1.4038  -14.2431  -50.6437 H         1 UNK         0.1150 
    137 H137       -1.1329  -17.6398  -50.0050 H         1 UNK         0.1150 
    138 H138       -1.9996  -13.9282  -48.0548 H         1 UNK         0.1150 
    139 H139       -2.3888  -17.3275  -47.6239 H         1 UNK         0.0800 
    140 H140       -3.3008  -15.8393  -47.5030 H         1 UNK         0.0800 
    141 H141       -6.0589  -18.1622  -48.3163 H         1 UNK         0.0800 
    142 H142       -4.8558  -17.8828  -47.0857 H         1 UNK         0.0800 
    143 H143       -4.7225  -20.0775  -49.2132 H         1 UNK         0.0600 
    144 H144       -2.7789  -19.3552  -47.1167 H         1 UNK         0.3000 
    145 H145       -0.8182  -22.1311  -47.5289 H         1 UNK         0.0600 
    146 H146        1.1031  -20.7349  -48.3800 H         1 UNK         0.0600 
    147 H147        0.0453  -21.3039  -49.6642 H         1 UNK         0.0600 
    148 H148       -0.0560  -19.6363  -49.1293 H         1 UNK         0.0600 
    149 H149       -0.1192  -19.5354  -46.5503 H         1 UNK         0.3000 
    150 H150       -1.7726  -19.7751  -43.4196 H         1 UNK         0.0600 
    151 H151       -0.1003  -21.6149  -43.0774 H         1 UNK         0.0600 
    152 H152        0.4410  -20.1019  -42.3675 H         1 UNK         0.0600 
    153 H153        1.1260  -20.6521  -43.8960 H         1 UNK         0.0600 
    154 H154        0.5281  -18.2765  -44.1429 H         1 UNK         0.3000 
    155 H155       -1.0576  -15.7353  -46.0429 H         1 UNK         0.0600 
    156 H156       -1.5531  -15.0013  -43.7271 H         1 UNK         0.0600 
    157 H157       -0.0667  -14.2582  -44.3016 H         1 UNK         0.0600 
    158 H158       -0.0020  -15.6145  -43.1765 H         1 UNK         0.0600 
    159 H159        1.5852  -15.7851  -45.2118 H         1 UNK         0.3000 
    160 H160        2.9589  -17.9783  -47.7146 H         1 UNK         0.0600 
    161 H161        2.9827  -14.9720  -47.1243 H         1 UNK         0.0600 
    162 H162        2.7614  -15.7486  -48.6802 H         1 UNK         0.0600 
    163 H163        4.3143  -15.8578  -47.8683 H         1 UNK         0.0600 
    164 H164        3.8171  -16.5580  -45.2838 H         1 UNK         0.3000 
    165 H165        3.9774  -19.4792  -43.3017 H         1 UNK         0.0600 
    166 H166        6.3890  -18.9477  -43.0503 H         1 UNK         0.0600 
    167 H167        6.1033  -19.7460  -44.5882 H         1 UNK         0.0600 
    168 H168        6.3655  -18.0068  -44.5426 H         1 UNK         0.0600 
    169 H169        4.9479  -16.8163  -42.9023 H         1 UNK         0.3000 
    170 H170        1.8998  -15.3193  -41.8937 H         1 UNK         0.0600 
    171 H171        2.6210  -16.5899  -39.8642 H         1 UNK         0.0600 
    172 H172        4.3018  -16.1949  -40.2064 H         1 UNK         0.0600 
    173 H173        3.1549  -14.9174  -39.8033 H         1 UNK         0.0600 
    174 H174        4.4701  -14.2344  -41.8055 H         1 UNK         0.3000 
    175 H175        5.7432  -13.5278  -43.9158 H         1 UNK         0.0600 
    176 H176        3.6328  -12.3290  -45.7850 H         1 UNK         0.0600 
    177 H177        5.3565  -11.9628  -45.8138 H         1 UNK         0.0600 
    178 H178        4.7984  -13.5786  -46.2117 H         1 UNK         0.0600 
    179 H179        4.0621  -11.1636  -43.6781 H         1 UNK         0.3000 
    180 H180        4.6646  -10.6200  -40.2293 H         1 UNK         0.0600 
    181 H181        5.7009   -9.1155  -42.6869 H         1 UNK         0.0600 
    182 H182        6.6569   -9.6645  -41.3203 H         1 UNK         0.0600 
    183 H183        5.4391   -8.4199  -41.0881 H         1 UNK         0.0600 
    184 H184        2.6426   -9.9980  -40.7450 H         1 UNK         0.3000 
    185 H185        0.7255   -9.7071  -41.8443 H         1 UNK         0.0600 
    186 H186        1.5722   -7.4046  -41.3443 H         1 UNK         0.0600 
    187 H187        1.5463   -7.0077  -43.0578 H         1 UNK         0.0600 
    188 H188        0.0404   -7.3382  -42.2001 H         1 UNK         0.0600 
    189 H189        0.2717   -8.5791  -44.4380 H         1 UNK         0.3000 
    190 H190       -3.9304  -21.4632  -46.3110 H         1 UNK         0.3000 
    191 H191       -6.6868  -22.5510  -45.9571 H         1 UNK         0.0600 
    192 H192       -6.3052  -20.9459  -44.1121 H         1 UNK         0.0600 
    193 H193       -6.2681  -22.5902  -43.4935 H         1 UNK         0.0600 
    194 H194       -4.7634  -21.7045  -43.7231 H         1 UNK         0.0600 
    195 H195       -3.1857  -23.0005  -45.2026 H         1 UNK         0.3000 
    196 H196       -3.3126  -25.6869  -44.4597 H         1 UNK         0.0600 
    197 H197       -0.8322  -25.6054  -44.7898 H         1 UNK         0.0600 
    198 H198       -1.4091  -24.1607  -43.9719 H         1 UNK         0.0600 
    199 H199       -0.9914  -24.0975  -45.6831 H         1 UNK         0.0600 
    200 H200       -3.0654  -27.6226  -45.4682 H         1 UNK         0.3000 
    201 H201       -3.2733  -29.2199  -46.9915 H         1 UNK         0.0600 
    202 H202       -0.9203  -28.6043  -47.4877 H         1 UNK         0.0600 
    203 H203       -1.4506  -27.4498  -48.7060 H         1 UNK         0.0600 
    204 H204       -1.7288  -29.1708  -48.9389 H         1 UNK         0.0600 
    205 H205       -5.4440  -27.5835  -46.8763 H         1 UNK         0.3000 
    206 H206       -7.3640  -26.9724  -47.8058 H         1 UNK         0.0600 
    207 H207       -7.4350  -29.3233  -48.6609 H         1 UNK         0.0600 
    208 H208       -8.2390  -28.2116  -49.7575 H         1 UNK         0.0600 
    209 H209       -6.6370  -28.8171  -50.1490 H         1 UNK         0.0600 
    210 H210       -5.5663  -25.1102  -47.9120 H         1 UNK         0.3000 
    211 H211       -4.7625  -23.2520  -48.7837 H         1 UNK         0.0600 
    212 H212       -7.0950  -23.3906  -50.7705 H         1 UNK         0.0600 
    213 H213       -6.1553  -21.9576  -50.3762 H         1 UNK         0.0600 
    214 H214       -7.1726  -22.7066  -49.1536 H         1 UNK         0.0600 
    215 H215       -3.2969  -25.3028  -49.4407 H         1 UNK         0.3000 
    216 H216       -1.8925  -26.3788  -50.7885 H         1 UNK         0.0600 
    217 H217       -0.4895  -24.9618  -52.2445 H         1 UNK         0.0600 
    218 H218       -0.8528  -24.0958  -50.7572 H         1 UNK         0.0600 
    219 H219       -1.7032  -23.6930  -52.2447 H         1 UNK         0.0600 
    220 H220       -4.1598  -27.3582  -51.3714 H         1 UNK         0.3000 
    221 H221       -5.6075  -28.2913  -52.7673 H         1 UNK         0.0600 
    222 H222       -3.3448  -28.1931  -54.8356 H         1 UNK         0.0600 
    223 H223       -3.5460  -29.4347  -53.6000 H         1 UNK         0.0600 
    224 H224       -4.7424  -29.2598  -54.8736 H         1 UNK         0.0600 
    225 H225       -6.0902  -25.7098  -52.4376 H         1 UNK         0.3000 
    226 H226       -7.2093  -23.9453  -53.0271 H         1 UNK         0.0600 
    227 H227       -8.8285  -25.6091  -53.9597 H         1 UNK         0.0600 
    228 H228       -8.8980  -24.0737  -54.8059 H         1 UNK         0.0600 
    229 H229       -8.0830  -25.4408  -55.5494 H         1 UNK         0.0600 
    230 H230       -4.3739  -24.4610  -54.4403 H         1 UNK         0.3000 
    231 H231       -4.5338  -22.4377  -56.5857 H         1 UNK         0.0600 
    232 H232       -2.1445  -24.0597  -55.5829 H         1 UNK         0.0600 
    233 H233       -2.2372  -23.1168  -57.0615 H         1 UNK         0.0600 
    234 H234       -3.2240  -24.5608  -56.8849 H         1 UNK         0.0600 
    235 H235       -3.6241  -22.6057  -53.2094 H         1 UNK         0.3000 
    236 H236       -2.5175  -21.3871  -51.7617 H         1 UNK         0.0600 
    237 H237       -4.3304  -19.7917  -52.0511 H         1 UNK         0.0600 
    238 H238       -2.8420  -18.8899  -51.8317 H         1 UNK         0.0600 
    239 H239       -3.5527  -19.0379  -53.4374 H         1 UNK         0.0600 
    240 H240       -1.6405  -18.9808  -54.1726 H         1 UNK         0.3000 
    241 H241        0.9390  -20.1711  -54.7490 H         1 UNK         0.0600 
    242 H242       -1.0819  -18.5639  -57.5861 H         1 UNK         0.3800 
    243 H243       -1.6862  -19.4910  -56.2337 H         1 UNK         0.3800 
    244 H244        2.2442  -18.0695  -54.2540 H         1 UNK         0.0800 
    245 H245        1.7019  -18.9604  -52.8725 H         1 UNK         0.0800 
    246 H246        2.1416  -16.5442  -51.2664 H         1 UNK         0.0800 
    247 H247        1.0945  -17.9069  -50.9502 H         1 UNK         0.0800 
@<TRIPOS>BOND
     1    1    2 1    
     2    1  127 1    
     3    1  128 1    
     4    1  129 1    
     5    2    3 2    
     6    2    4 am   BACKBONE|DICT|INTERRES
     7    4    5 1    
     8    4  130 1    
     9    5    6 1    
    10    5   65 1    
    11    5  131 1    
    12    6    7 1    
    13    6  132 1    
    14    6  133 1    
    15    7    8 1    
    16    8    9 1    
    17    8  134 1    
    18    8  135 1    
    19    9   10 ar   
    20    9   14 ar   
    21   10   11 ar   
    22   10  136 1    
    23   11   12 ar   
    24   11  126 1    
    25   12   13 ar   
    26   12  137 1    
    27   13   14 ar   
    28   13   15 1    
    29   14  138 1    
    30   15   16 1    
    31   15  139 1    
    32   15  140 1    
    33   16   17 1    
    34   17   18 1    
    35   17  141 1    
    36   17  142 1    
    37   18   19 1    
    38   18   67 1    
    39   18  143 1    
    40   19   20 am   BACKBONE|DICT|INTERRES
    41   19  144 1    
    42   20   21 2    
    43   20   22 1    
    44   22   23 1    
    45   22   24 1    
    46   22  145 1    
    47   23  146 1    
    48   23  147 1    
    49   23  148 1    
    50   24   25 am   BACKBONE|DICT|INTERRES
    51   24  149 1    
    52   25   26 2    
    53   25   27 1    
    54   27   28 1    
    55   27   29 1    
    56   27  150 1    
    57   28  151 1    
    58   28  152 1    
    59   28  153 1    
    60   29   30 am   BACKBONE|DICT|INTERRES
    61   29  154 1    
    62   30   31 2    
    63   30   32 1    
    64   32   33 1    
    65   32   34 1    
    66   32  155 1    
    67   33  156 1    
    68   33  157 1    
    69   33  158 1    
    70   34   35 am   BACKBONE|DICT|INTERRES
    71   34  159 1    
    72   35   36 2    
    73   35   37 1    
    74   37   38 1    
    75   37   39 1    
    76   37  160 1    
    77   38  161 1    
    78   38  162 1    
    79   38  163 1    
    80   39   40 am   BACKBONE|DICT|INTERRES
    81   39  164 1    
    82   40   41 2    
    83   40   42 1    
    84   42   43 1    
    85   42   44 1    
    86   42  165 1    
    87   43  166 1    
    88   43  167 1    
    89   43  168 1    
    90   44   45 am   BACKBONE|DICT|INTERRES
    91   44  169 1    
    92   45   46 2    
    93   45   47 1    
    94   47   48 1    
    95   47   49 1    
    96   47  170 1    
    97   48  171 1    
    98   48  172 1    
    99   48  173 1    
   100   49   50 am   BACKBONE|DICT|INTERRES
   101   49  174 1    
   102   50   51 2    
   103   50   52 1    
   104   52   53 1    
   105   52   54 1    
   106   52  175 1    
   107   53  176 1    
   108   53  177 1    
   109   53  178 1    
   110   54   55 am   BACKBONE|DICT|INTERRES
   111   54  179 1    
   112   55   56 2    
   113   55   57 1    
   114   57   58 1    
   115   57   59 1    
   116   57  180 1    
   117   58  181 1    
   118   58  182 1    
   119   58  183 1    
   120   59   60 am   BACKBONE|DICT|INTERRES
   121   59  184 1    
   122   60   61 2    
   123   60   62 1    
   124   62   63 1    
   125   62   64 1    
   126   62  185 1    
   127   63  186 1    
   128   63  187 1    
   129   63  188 1    
   130   64   65 am   BACKBONE|DICT|INTERRES
   131   64  189 1    
   132   65   66 2    
   133   67   68 2    
   134   67   69 am   BACKBONE|DICT|INTERRES
   135   69   70 1    
   136   69  190 1    
   137   70   71 1    
   138   70   72 1    
   139   70  191 1    
   140   71  192 1    
   141   71  193 1    
   142   71  194 1    
   143   72   73 2    
   144   72   74 am   BACKBONE|DICT|INTERRES
   145   74   75 1    
   146   74  195 1    
   147   75   76 1    
   148   75   77 1    
   149   75  196 1    
   150   76  197 1    
   151   76  198 1    
   152   76  199 1    
   153   77   78 2    
   154   77   79 am   BACKBONE|DICT|INTERRES
   155   79   80 1    
   156   79  200 1    
   157   80   81 1    
   158   80   82 1    
   159   80  201 1    
   160   81  202 1    
   161   81  203 1    
   162   81  204 1    
   163   82   83 2    
   164   82   84 am   BACKBONE|DICT|INTERRES
   165   84   85 1    
   166   84  205 1    
   167   85   86 1    
   168   85   87 1    
   169   85  206 1    
   170   86  207 1    
   171   86  208 1    
   172   86  209 1    
   173   87   88 2    
   174   87   89 am   BACKBONE|DICT|INTERRES
   175   89   90 1    
   176   89  210 1    
   177   90   91 1    
   178   90   92 1    
   179   90  211 1    
   180   91  212 1    
   181   91  213 1    
   182   91  214 1    
   183   92   93 2    
   184   92   94 am   BACKBONE|DICT|INTERRES
   185   94   95 1    
   186   94  215 1    
   187   95   96 1    
   188   95   97 1    
   189   95  216 1    
   190   96  217 1    
   191   96  218 1    
   192   96  219 1    
   193   97   98 2    
   194   97   99 am   BACKBONE|DICT|INTERRES
   195   99  100 1    
   196   99  220 1    
   197  100  101 1    
   198  100  102 1    
   199  100  221 1    
   200  101  222 1    
   201  101  223 1    
   202  101  224 1    
   203  102  103 2    
   204  102  104 am   BACKBONE|DICT|INTERRES
   205  104  105 1    
   206  104  225 1    
   207  105  106 1    
   208  105  107 1    
   209  105  226 1    
   210  106  227 1    
   211  106  228 1    
   212  106  229 1    
   213  107  108 2    
   214  107  109 am   BACKBONE|DICT|INTERRES
   215  109  110 1    
   216  109  230 1    
   217  110  111 1    
   218  110  112 1    
   219  110  231 1    
   220  111  232 1    
   221  111  233 1    
   222  111  234 1    
   223  112  113 2    
   224  112  114 am   BACKBONE|DICT|INTERRES
   225  114  115 1    
   226  114  235 1    
   227  115  116 1    
   228  115  117 1    
   229  115  236 1    
   230  116  237 1    
   231  116  238 1    
   232  116  239 1    
   233  117  118 2    
   234  117  119 am   BACKBONE|DICT|INTERRES
   235  119  120 1    
   236  119  240 1    
   237  120  121 1    
   238  120  124 1    
   239  120  241 1    
   240  121  122 am   BACKBONE|DICT|INTERRES
   241  121  123 2    
   242  122  242 1    
   243  122  243 1    
   244  124  125 1    
   245  124  244 1    
   246  124  245 1    
   247  125  126 1    
   248  126  246 1    
   249  126  247 1    
@<TRIPOS>SUBSTRUCTURE
     1 UNK         1 GROUP             0       ****    0 ROOT    
