@<TRIPOS>MOLECULE
3R540
247   249    1
SMALL
USER_CHARGES


@<TRIPOS>ATOM
      1 CA          8.1545   -9.9745  -49.0860 C.3       0 UNK        -0.1800 
      2 C           7.5460  -11.3684  -49.0218 C.2       0 UNK         0.5000 
      3 O           8.1899  -12.2951  -48.5299 O.2       0 UNK        -0.5000 
      4 N           6.3107  -11.5195  -49.5182 N.am      1 UNK        -0.5000 
      5 CA          5.5593  -12.7814  -49.5305 C.3       1 UNK         0.1400 
      6 C6          4.3644  -12.7061  -50.5179 C.3       23 UNK        -0.0398 
      7 S7          3.6821  -14.3332  -51.0029 S.3       23 UNK        -0.2404 
      8 C8          2.1749  -14.3777  -49.9738 C.3       23 UNK        -0.0205 
      9 C9          1.2779  -15.5972  -50.1735 C.ar      23 UNK        -0.0193 
     10 C10        -0.1008  -15.4506  -49.9935 C.ar      23 UNK        -0.1150 
     11 C11        -0.9641  -16.5373  -50.1494 C.ar      23 UNK        -0.0193 
     12 C12        -0.4428  -17.7860  -50.5004 C.ar      23 UNK        -0.1150 
     13 C13         0.9355  -17.9550  -50.6686 C.ar      23 UNK        -0.0193 
     14 C14         1.7896  -16.8606  -50.4936 C.ar      23 UNK        -0.1150 
     15 C15         1.5079  -19.3097  -51.0626 C.3       23 UNK        -0.0205 
     16 S16         1.8852  -20.3490  -49.6140 S.3       23 UNK        -0.2404 
     17 C17         0.2454  -21.0604  -49.2585 C.3       23 UNK        -0.0398 
     18 CA          0.3121  -22.2732  -48.2983 C.3       11 UNK         0.1400 
     19 N           0.6478  -21.8846  -46.9273 N.am      11 UNK        -0.5000 
     20 C           0.8762  -22.7349  -45.9169 C.2       10 UNK         0.5000 
     21 O           0.8787  -23.9605  -46.0372 O.2       10 UNK        -0.5000 
     22 CA          1.0800  -22.1111  -44.5249 C.3       10 UNK         0.1400 
     23 CB          2.4826  -21.4997  -44.3894 C.3       10 UNK        -0.1800 
     24 N           0.0655  -21.1031  -44.2121 N.am      10 UNK        -0.5000 
     25 C          -1.2420  -21.3664  -44.0707 C.2       9 UNK         0.5000 
     26 O          -1.7292  -22.4905  -44.1766 O.2       9 UNK        -0.5000 
     27 CA         -2.1708  -20.1729  -43.7944 C.3       9 UNK         0.1400 
     28 CB         -2.1673  -19.8189  -42.3001 C.3       9 UNK        -0.1800 
     29 N          -1.8151  -18.9931  -44.5785 N.am      9 UNK        -0.5000 
     30 C          -1.9019  -18.9172  -45.9138 C.2       8 UNK         0.5000 
     31 O          -2.3137  -19.8289  -46.6316 O.2       8 UNK        -0.5000 
     32 CA         -1.3769  -17.6247  -46.5595 C.3       8 UNK         0.1400 
     33 CB         -2.3650  -16.4648  -46.3658 C.3       8 UNK        -0.1800 
     34 N          -0.0588  -17.2363  -46.0593 N.am      8 UNK        -0.5000 
     35 C           1.0432  -17.9931  -46.1573 C.2       7 UNK         0.5000 
     36 O           1.0576  -19.1229  -46.6380 O.2       7 UNK        -0.5000 
     37 CA          2.3452  -17.4066  -45.5981 C.3       7 UNK         0.1400 
     38 CB          3.0876  -16.6338  -46.6900 C.3       7 UNK        -0.1800 
     39 N           2.1131  -16.5457  -44.4380 N.am      7 UNK        -0.5000 
     40 C           1.8226  -17.0317  -43.2237 C.2       6 UNK         0.5000 
     41 O           1.7511  -18.2359  -42.9702 O.2       6 UNK        -0.5000 
     42 CA          1.5365  -16.0072  -42.1117 C.3       6 UNK         0.1400 
     43 CB          2.7503  -15.0985  -41.8561 C.3       6 UNK        -0.1800 
     44 N           0.3527  -15.1779  -42.3455 N.am      6 UNK        -0.5000 
     45 C          -0.8833  -15.6015  -42.6395 C.2       5 UNK         0.5000 
     46 O          -1.1698  -16.7729  -42.8807 O.2       5 UNK        -0.5000 
     47 CA         -2.0078  -14.5488  -42.6743 C.3       5 UNK         0.1400 
     48 CB         -2.6259  -14.3561  -41.2768 C.3       5 UNK        -0.1800 
     49 N          -1.6382  -13.2655  -43.2816 N.am      5 UNK        -0.5000 
     50 C          -0.7983  -12.3183  -42.8467 C.2       4 UNK         0.5000 
     51 O          -0.1329  -12.4101  -41.8136 O.2       4 UNK        -0.5000 
     52 CA         -0.6535  -11.0852  -43.7623 C.3       4 UNK         0.1400 
     53 CB          0.0551   -9.9122  -43.0617 C.3       4 UNK        -0.1800 
     54 N           0.0764  -11.4043  -44.9889 N.am      4 UNK        -0.5000 
     55 C          -0.3640  -12.1591  -46.0050 C.2       3 UNK         0.5000 
     56 O          -1.4930  -12.6498  -46.0512 O.2       3 UNK        -0.5000 
     57 CA          0.6073  -12.3981  -47.1775 C.3       3 UNK         0.1400 
     58 CB          0.2024  -11.5082  -48.3640 C.3       3 UNK        -0.1800 
     59 N           2.0181  -12.1447  -46.8652 N.am      3 UNK        -0.5000 
     60 C           2.7705  -12.8253  -45.9872 C.2       2 UNK         0.5000 
     61 O           2.3442  -13.7485  -45.2897 O.2       2 UNK        -0.5000 
     62 CA          4.2440  -12.3734  -45.8968 C.3       2 UNK         0.1400 
     63 CB          5.1019  -13.2559  -44.9653 C.3       2 UNK        -0.1800 
     64 N           4.8487  -12.2272  -47.2302 N.am      2 UNK        -0.5000 
     65 C           5.0996  -13.2062  -48.1166 C.2       1 UNK         0.5000 
     66 O           4.9806  -14.4032  -47.8679 O.2       1 UNK        -0.5000 
     67 C          -1.0025  -23.0746  -48.3483 C.2       11 UNK         0.5000 
     68 O          -1.0404  -24.1296  -48.9831 O.2       11 UNK        -0.5000 
     69 N          -2.0446  -22.5828  -47.6611 N.am      12 UNK        -0.5000 
     70 CA         -3.3518  -23.2341  -47.5952 C.3       12 UNK         0.1400 
     71 CB         -4.3710  -22.3096  -46.9157 C.3       12 UNK        -0.1800 
     72 C          -3.3104  -24.6092  -46.9075 C.2       12 UNK         0.5000 
     73 O          -3.9342  -25.5477  -47.4017 O.2       12 UNK        -0.5000 
     74 N          -2.5491  -24.7207  -45.8099 N.am      13 UNK        -0.5000 
     75 CA         -2.3195  -25.9724  -45.0875 C.3       13 UNK         0.1400 
     76 CB         -1.5979  -25.6827  -43.7628 C.3       13 UNK        -0.1800 
     77 C          -1.5352  -27.0053  -45.9159 C.2       13 UNK         0.5000 
     78 O          -1.8600  -28.1918  -45.8617 O.2       13 UNK        -0.5000 
     79 N          -0.5352  -26.5390  -46.6777 N.am      14 UNK        -0.5000 
     80 CA          0.2669  -27.3636  -47.5812 C.3       14 UNK         0.1400 
     81 CB          1.4910  -26.5667  -48.0581 C.3       14 UNK        -0.1800 
     82 C          -0.5445  -27.8921  -48.7782 C.2       14 UNK         0.5000 
     83 O          -0.4148  -29.0664  -49.1271 O.2       14 UNK        -0.5000 
     84 N          -1.3696  -27.0236  -49.3783 N.am      15 UNK        -0.5000 
     85 CA         -2.2357  -27.3612  -50.5090 C.3       15 UNK         0.1400 
     86 CB         -2.6897  -26.0651  -51.1944 C.3       15 UNK        -0.1800 
     87 C          -3.4677  -28.1930  -50.1096 C.2       15 UNK         0.5000 
     88 O          -3.9559  -28.9712  -50.9297 O.2       15 UNK        -0.5000 
     89 N          -3.9633  -27.9796  -48.8811 N.am      16 UNK        -0.5000 
     90 CA         -5.2447  -28.4505  -48.3428 C.3       16 UNK         0.1400 
     91 CB         -5.2724  -29.9882  -48.2189 C.3       16 UNK        -0.1800 
     92 C          -6.4405  -27.8709  -49.1316 C.2       16 UNK         0.5000 
     93 O          -7.4252  -28.5695  -49.3802 O.2       16 UNK        -0.5000 
     94 N          -6.3132  -26.5998  -49.5299 N.am      17 UNK        -0.5000 
     95 CA         -7.2226  -25.8524  -50.3927 C.3       17 UNK         0.1400 
     96 CB         -7.1140  -26.3715  -51.8413 C.3       17 UNK        -0.1800 
     97 C          -6.8505  -24.3627  -50.3164 C.2       17 UNK         0.5000 
     98 O          -5.8477  -24.0132  -49.6894 O.2       17 UNK        -0.5000 
     99 N          -7.6405  -23.5042  -50.9735 N.am      18 UNK        -0.5000 
    100 CA        -7.3952  -22.0649  -51.1020 C.3       18 UNK         0.1400 
    101 CB        -8.7055  -21.3661  -51.5065 C.3       18 UNK        -0.1800 
    102 C         -6.2459  -21.7722  -52.0898 C.2       18 UNK         0.5000 
    103 O         -6.4869  -21.3176  -53.2107 O.2       18 UNK        -0.5000 
    104 N         -5.0142  -22.0697  -51.6566 N.am      19 UNK        -0.5000 
    105 CA        -3.7596  -21.8689  -52.3835 C.3       19 UNK         0.1400 
    106 CB        -2.5950  -22.2449  -51.4618 C.3       19 UNK        -0.1800 
    107 C         -3.5923  -20.4167  -52.8551 C.2       19 UNK         0.5000 
    108 O         -3.7949  -19.5027  -52.0537 O.2       19 UNK        -0.5000 
    109 N         -3.2781  -20.2320  -54.1445 N.am      20 UNK        -0.5000 
    110 CA        -3.1381  -18.9391  -54.8326 C.3       20 UNK         0.1400 
    111 CB        -1.8818  -18.1993  -54.3250 C.3       20 UNK        -0.1800 
    112 C         -4.4094  -18.0549  -54.7841 C.2       20 UNK         0.5000 
    113 O         -4.3158  -16.8410  -54.9699 O.2       20 UNK        -0.5000 
    114 N         -5.5699  -18.6837  -54.5332 N.am      21 UNK        -0.5000 
    115 CA        -6.8818  -18.0829  -54.2773 C.3       21 UNK         0.1400 
    116 CB        -7.3952  -17.3077  -55.5094 C.3       21 UNK        -0.1800 
    117 C         -6.9347  -17.2557  -52.9727 C.2       21 UNK         0.5000 
    118 O         -7.7655  -16.3516  -52.8626 O.2       21 UNK        -0.5000 
    119 N         -6.0714  -17.5805  -52.0009 N.am      22 UNK        -0.5000 
    120 CA        -5.9779  -16.8932  -50.7034 C.3       22 UNK         0.1400 
    121 C         -5.6745  -17.8235  -49.4964 C.2       22 UNK         0.5000 
    122 N         -5.0931  -19.0015  -49.6792 N.am      22 UNK        -0.7600 
    123 O         -5.9911  -17.4731  -48.3633 O.2       22 UNK        -0.5000 
    124 C124       -5.0384  -15.6571  -50.7485 C.3       23 UNK        -0.0398 
    125 S125       -3.3662  -15.9829  -51.4176 S.3       23 UNK        -0.2404 
    126 C126       -2.4528  -16.3643  -49.8962 C.3       23 UNK        -0.0205 
    127 H127        7.4769   -9.2564  -49.5484 H         1 UNK         0.0600 
    128 H128        9.0766   -9.9942  -49.6669 H         1 UNK         0.0600 
    129 H129        8.3903   -9.6216  -48.0820 H         1 UNK         0.0600 
    130 H130        5.8421  -10.7197  -49.9205 H         1 UNK         0.3000 
    131 H131        6.2404  -13.5554  -49.8917 H         1 UNK         0.0600 
    132 H132        3.5728  -12.0638  -50.1281 H         1 UNK         0.0800 
    133 H133        4.6928  -12.2313  -51.4437 H         1 UNK         0.0800 
    134 H134        2.4509  -14.3195  -48.9220 H         1 UNK         0.0800 
    135 H135        1.6016  -13.4809  -50.2034 H         1 UNK         0.0800 
    136 H136       -0.5074  -14.4859  -49.7238 H         1 UNK         0.1150 
    137 H137       -1.1112  -18.6254  -50.6342 H         1 UNK         0.1150 
    138 H138        2.8548  -16.9965  -50.6134 H         1 UNK         0.1150 
    139 H139        0.8228  -19.8292  -51.7341 H         1 UNK         0.0800 
    140 H140        2.4277  -19.1650  -51.6310 H         1 UNK         0.0800 
    141 H141       -0.1836  -21.3589  -50.2148 H         1 UNK         0.0800 
    142 H142       -0.4030  -20.2812  -48.8537 H         1 UNK         0.0800 
    143 H143        1.1015  -22.9421  -48.6481 H         1 UNK         0.0600 
    144 H144        0.7056  -20.8821  -46.7513 H         1 UNK         0.3000 
    145 H145        0.9897  -22.9113  -43.7873 H         1 UNK         0.0600 
    146 H146        2.6422  -21.0956  -43.3895 H         1 UNK         0.0600 
    147 H147        3.2526  -22.2519  -44.5642 H         1 UNK         0.0600 
    148 H148        2.6450  -20.6939  -45.1048 H         1 UNK         0.0600 
    149 H149        0.3815  -20.1468  -44.1265 H         1 UNK         0.3000 
    150 H150       -3.1848  -20.4676  -44.0722 H         1 UNK         0.0600 
    151 H151       -2.4478  -20.6805  -41.6930 H         1 UNK         0.0600 
    152 H152       -2.8782  -19.0215  -42.0829 H         1 UNK         0.0600 
    153 H153       -1.1824  -19.4873  -41.9682 H         1 UNK         0.0600 
    154 H154       -1.4655  -18.1924  -44.0560 H         1 UNK         0.3000 
    155 H155       -1.2714  -17.8158  -47.6277 H         1 UNK         0.0600 
    156 H156       -1.9980  -15.5481  -46.8277 H         1 UNK         0.0600 
    157 H157       -3.3299  -16.6976  -46.8185 H         1 UNK         0.0600 
    158 H158       -2.5418  -16.2576  -45.3112 H         1 UNK         0.0600 
    159 H159        0.0180  -16.3368  -45.6101 H         1 UNK         0.3000 
    160 H160        2.9825  -18.2393  -45.2932 H         1 UNK         0.0600 
    161 H161        2.5110  -15.7791  -47.0421 H         1 UNK         0.0600 
    162 H162        3.2897  -17.2684  -47.5540 H         1 UNK         0.0600 
    163 H163        4.0457  -16.2714  -46.3204 H         1 UNK         0.0600 
    164 H164        2.1577  -15.5407  -44.5903 H         1 UNK         0.3000 
    165 H165        1.3490  -16.5739  -41.1977 H         1 UNK         0.0600 
    166 H166        2.9306  -14.4205  -42.6903 H         1 UNK         0.0600 
    167 H167        2.6043  -14.4917  -40.9622 H         1 UNK         0.0600 
    168 H168        3.6570  -15.6857  -41.7056 H         1 UNK         0.0600 
    169 H169        0.4540  -14.1854  -42.1543 H         1 UNK         0.3000 
    170 H170       -2.7911  -14.9546  -43.3156 H         1 UNK         0.0600 
    171 H171       -3.0005  -15.3028  -40.8855 H         1 UNK         0.0600 
    172 H172       -1.9015  -13.9729  -40.5577 H         1 UNK         0.0600 
    173 H173       -3.4664  -13.6628  -41.3094 H         1 UNK         0.0600 
    174 H174       -2.0188  -13.1142  -44.2117 H         1 UNK         0.3000 
    175 H175       -1.6586  -10.7543  -44.0321 H         1 UNK         0.0600 
    176 H176       -0.4636   -9.6354  -42.1430 H         1 UNK         0.0600 
    177 H177        1.0836  -10.1607  -42.7966 H         1 UNK         0.0600 
    178 H178        0.0777   -9.0281  -43.6991 H         1 UNK         0.0600 
    179 H179        1.0234  -11.0616  -45.0419 H         1 UNK         0.3000 
    180 H180        0.5136  -13.4449  -47.4735 H         1 UNK         0.0600 
    181 H181       -0.7928  -11.7705  -48.7257 H         1 UNK         0.0600 
    182 H182        0.8896  -11.6070  -49.2023 H         1 UNK         0.0600 
    183 H183        0.1808  -10.4542  -48.0835 H         1 UNK         0.0600 
    184 H184        2.4542  -11.3940  -47.3796 H         1 UNK         0.3000 
    185 H185        4.2267  -11.3734  -45.4613 H         1 UNK         0.0600 
    186 H186        4.7314  -13.2099  -43.9409 H         1 UNK         0.0600 
    187 H187        5.0914  -14.3038  -45.2643 H         1 UNK         0.0600 
    188 H188        6.1391  -12.9214  -44.9504 H         1 UNK         0.0600 
    189 H189        5.0241  -11.2780  -47.5279 H         1 UNK         0.3000 
    190 H190       -1.9553  -21.6943  -47.1763 H         1 UNK         0.3000 
    191 H191       -3.6718  -23.3943  -48.6243 H         1 UNK         0.0600 
    192 H192       -4.0787  -22.0717  -45.8925 H         1 UNK         0.0600 
    193 H193       -5.3561  -22.7767  -46.8799 H         1 UNK         0.0600 
    194 H194       -4.4771  -21.3728  -47.4619 H         1 UNK         0.0600 
    195 H195       -2.1042  -23.8897  -45.4287 H         1 UNK         0.3000 
    196 H196       -3.2939  -26.4068  -44.8542 H         1 UNK         0.0600 
    197 H197       -1.4132  -26.6029  -43.2073 H         1 UNK         0.0600 
    198 H198       -2.1952  -25.0323  -43.1238 H         1 UNK         0.0600 
    199 H199       -0.6350  -25.1975  -43.9274 H         1 UNK         0.0600 
    200 H200       -0.2982  -25.5534  -46.6284 H         1 UNK         0.3000 
    201 H201        0.6272  -28.2268  -47.0176 H         1 UNK         0.0600 
    202 H202        2.1146  -26.2636  -47.2169 H         1 UNK         0.0600 
    203 H203        1.2013  -25.6658  -48.5995 H         1 UNK         0.0600 
    204 H204        2.1123  -27.1659  -48.7247 H         1 UNK         0.0600 
    205 H205       -1.3745  -26.0553  -49.0688 H         1 UNK         0.3000 
    206 H206       -1.6567  -27.9432  -51.2291 H         1 UNK         0.0600 
    207 H207       -1.8347  -25.4808  -51.5348 H         1 UNK         0.0600 
    208 H208       -3.3090  -26.2768  -52.0670 H         1 UNK         0.0600 
    209 H209       -3.2785  -25.4447  -50.5172 H         1 UNK         0.0600 
    210 H210       -3.5166  -27.2634  -48.3174 H         1 UNK         0.3000 
    211 H211       -5.3181  -28.0400  -47.3348 H         1 UNK         0.0600 
    212 H212       -5.2800  -30.4770  -49.1933 H         1 UNK         0.0600 
    213 H213       -6.1627  -30.3185  -47.6828 H         1 UNK         0.0600 
    214 H214       -4.4067  -30.3532  -47.6662 H         1 UNK         0.0600 
    215 H215       -5.5122  -26.0608  -49.2169 H         1 UNK         0.3000 
    216 H216       -8.2439  -25.9723  -50.0266 H         1 UNK         0.0600 
    217 H217       -6.1002  -26.2614  -52.2287 H         1 UNK         0.0600 
    218 H218       -7.7832  -25.8308  -52.5111 H         1 UNK         0.0600 
    219 H219       -7.3820  -27.4258  -51.9100 H         1 UNK         0.0600 
    220 H220       -8.4310  -23.8659  -51.4871 H         1 UNK         0.3000 
    221 H221       -7.0991  -21.6690  -50.1278 H         1 UNK         0.0600 
    222 H222       -9.4814  -21.5200  -50.7564 H         1 UNK         0.0600 
    223 H223       -9.0836  -21.7345  -52.4610 H         1 UNK         0.0600 
    224 H224       -8.5582  -20.2895  -51.6039 H         1 UNK         0.0600 
    225 H225       -4.9442  -22.5133  -50.7481 H         1 UNK         0.3000 
    226 H226       -3.7621  -22.5375  -53.2462 H         1 UNK         0.0600 
    227 H227       -2.6920  -23.2647  -51.0983 H         1 UNK         0.0600 
    228 H228       -1.6413  -22.1735  -51.9857 H         1 UNK         0.0600 
    229 H229       -2.5513  -21.5878  -50.5922 H         1 UNK         0.0600 
    230 H230       -3.1568  -21.0461  -54.7310 H         1 UNK         0.3000 
    231 H231       -2.9789  -19.1706  -55.8866 H         1 UNK         0.0600 
    232 H232       -1.9802  -17.9032  -53.2807 H         1 UNK         0.0600 
    233 H233       -1.6946  -17.2943  -54.9037 H         1 UNK         0.0600 
    234 H234       -0.9940  -18.8257  -54.4100 H         1 UNK         0.0600 
    235 H235       -5.5357  -19.6840  -54.3750 H         1 UNK         0.3000 
    236 H236       -7.5626  -18.9203  -54.1190 H         1 UNK         0.0600 
    237 H237       -8.4393  -17.0198  -55.3818 H         1 UNK         0.0600 
    238 H238       -6.8261  -16.3941  -55.6821 H         1 UNK         0.0600 
    239 H239       -7.3368  -17.9166  -56.4115 H         1 UNK         0.0600 
    240 H240       -5.3797  -18.3027  -52.1680 H         1 UNK         0.3000 
    241 H241       -6.9741  -16.5107  -50.4723 H         1 UNK         0.0600 
    242 H242       -4.9087  -19.5741  -48.8730 H         1 UNK         0.3800 
    243 H243       -4.6809  -19.2481  -50.5775 H         1 UNK         0.3800 
    244 H244       -4.9597  -15.1891  -49.7657 H         1 UNK         0.0800 
    245 H245       -5.4910  -14.8993  -51.3890 H         1 UNK         0.0800 
    246 H246       -2.8520  -17.2749  -49.4502 H         1 UNK         0.0800 
    247 H247       -2.6160  -15.5648  -49.1729 H         1 UNK         0.0800 
@<TRIPOS>BOND
     1    1    2 1    
     2    1  127 1    
     3    1  128 1    
     4    1  129 1    
     5    2    3 2    
     6    2    4 am   BACKBONE|DICT|INTERRES
     7    4    5 1    
     8    4  130 1    
     9    5    6 1    
    10    5   65 1    
    11    5  131 1    
    12    6    7 1    
    13    6  132 1    
    14    6  133 1    
    15    7    8 1    
    16    8    9 1    
    17    8  134 1    
    18    8  135 1    
    19    9   10 ar   
    20    9   14 ar   
    21   10   11 ar   
    22   10  136 1    
    23   11   12 ar   
    24   11  126 1    
    25   12   13 ar   
    26   12  137 1    
    27   13   14 ar   
    28   13   15 1    
    29   14  138 1    
    30   15   16 1    
    31   15  139 1    
    32   15  140 1    
    33   16   17 1    
    34   17   18 1    
    35   17  141 1    
    36   17  142 1    
    37   18   19 1    
    38   18   67 1    
    39   18  143 1    
    40   19   20 am   BACKBONE|DICT|INTERRES
    41   19  144 1    
    42   20   21 2    
    43   20   22 1    
    44   22   23 1    
    45   22   24 1    
    46   22  145 1    
    47   23  146 1    
    48   23  147 1    
    49   23  148 1    
    50   24   25 am   BACKBONE|DICT|INTERRES
    51   24  149 1    
    52   25   26 2    
    53   25   27 1    
    54   27   28 1    
    55   27   29 1    
    56   27  150 1    
    57   28  151 1    
    58   28  152 1    
    59   28  153 1    
    60   29   30 am   BACKBONE|DICT|INTERRES
    61   29  154 1    
    62   30   31 2    
    63   30   32 1    
    64   32   33 1    
    65   32   34 1    
    66   32  155 1    
    67   33  156 1    
    68   33  157 1    
    69   33  158 1    
    70   34   35 am   BACKBONE|DICT|INTERRES
    71   34  159 1    
    72   35   36 2    
    73   35   37 1    
    74   37   38 1    
    75   37   39 1    
    76   37  160 1    
    77   38  161 1    
    78   38  162 1    
    79   38  163 1    
    80   39   40 am   BACKBONE|DICT|INTERRES
    81   39  164 1    
    82   40   41 2    
    83   40   42 1    
    84   42   43 1    
    85   42   44 1    
    86   42  165 1    
    87   43  166 1    
    88   43  167 1    
    89   43  168 1    
    90   44   45 am   BACKBONE|DICT|INTERRES
    91   44  169 1    
    92   45   46 2    
    93   45   47 1    
    94   47   48 1    
    95   47   49 1    
    96   47  170 1    
    97   48  171 1    
    98   48  172 1    
    99   48  173 1    
   100   49   50 am   BACKBONE|DICT|INTERRES
   101   49  174 1    
   102   50   51 2    
   103   50   52 1    
   104   52   53 1    
   105   52   54 1    
   106   52  175 1    
   107   53  176 1    
   108   53  177 1    
   109   53  178 1    
   110   54   55 am   BACKBONE|DICT|INTERRES
   111   54  179 1    
   112   55   56 2    
   113   55   57 1    
   114   57   58 1    
   115   57   59 1    
   116   57  180 1    
   117   58  181 1    
   118   58  182 1    
   119   58  183 1    
   120   59   60 am   BACKBONE|DICT|INTERRES
   121   59  184 1    
   122   60   61 2    
   123   60   62 1    
   124   62   63 1    
   125   62   64 1    
   126   62  185 1    
   127   63  186 1    
   128   63  187 1    
   129   63  188 1    
   130   64   65 am   BACKBONE|DICT|INTERRES
   131   64  189 1    
   132   65   66 2    
   133   67   68 2    
   134   67   69 am   BACKBONE|DICT|INTERRES
   135   69   70 1    
   136   69  190 1    
   137   70   71 1    
   138   70   72 1    
   139   70  191 1    
   140   71  192 1    
   141   71  193 1    
   142   71  194 1    
   143   72   73 2    
   144   72   74 am   BACKBONE|DICT|INTERRES
   145   74   75 1    
   146   74  195 1    
   147   75   76 1    
   148   75   77 1    
   149   75  196 1    
   150   76  197 1    
   151   76  198 1    
   152   76  199 1    
   153   77   78 2    
   154   77   79 am   BACKBONE|DICT|INTERRES
   155   79   80 1    
   156   79  200 1    
   157   80   81 1    
   158   80   82 1    
   159   80  201 1    
   160   81  202 1    
   161   81  203 1    
   162   81  204 1    
   163   82   83 2    
   164   82   84 am   BACKBONE|DICT|INTERRES
   165   84   85 1    
   166   84  205 1    
   167   85   86 1    
   168   85   87 1    
   169   85  206 1    
   170   86  207 1    
   171   86  208 1    
   172   86  209 1    
   173   87   88 2    
   174   87   89 am   BACKBONE|DICT|INTERRES
   175   89   90 1    
   176   89  210 1    
   177   90   91 1    
   178   90   92 1    
   179   90  211 1    
   180   91  212 1    
   181   91  213 1    
   182   91  214 1    
   183   92   93 2    
   184   92   94 am   BACKBONE|DICT|INTERRES
   185   94   95 1    
   186   94  215 1    
   187   95   96 1    
   188   95   97 1    
   189   95  216 1    
   190   96  217 1    
   191   96  218 1    
   192   96  219 1    
   193   97   98 2    
   194   97   99 am   BACKBONE|DICT|INTERRES
   195   99  100 1    
   196   99  220 1    
   197  100  101 1    
   198  100  102 1    
   199  100  221 1    
   200  101  222 1    
   201  101  223 1    
   202  101  224 1    
   203  102  103 2    
   204  102  104 am   BACKBONE|DICT|INTERRES
   205  104  105 1    
   206  104  225 1    
   207  105  106 1    
   208  105  107 1    
   209  105  226 1    
   210  106  227 1    
   211  106  228 1    
   212  106  229 1    
   213  107  108 2    
   214  107  109 am   BACKBONE|DICT|INTERRES
   215  109  110 1    
   216  109  230 1    
   217  110  111 1    
   218  110  112 1    
   219  110  231 1    
   220  111  232 1    
   221  111  233 1    
   222  111  234 1    
   223  112  113 2    
   224  112  114 am   BACKBONE|DICT|INTERRES
   225  114  115 1    
   226  114  235 1    
   227  115  116 1    
   228  115  117 1    
   229  115  236 1    
   230  116  237 1    
   231  116  238 1    
   232  116  239 1    
   233  117  118 2    
   234  117  119 am   BACKBONE|DICT|INTERRES
   235  119  120 1    
   236  119  240 1    
   237  120  121 1    
   238  120  124 1    
   239  120  241 1    
   240  121  122 am   BACKBONE|DICT|INTERRES
   241  121  123 2    
   242  122  242 1    
   243  122  243 1    
   244  124  125 1    
   245  124  244 1    
   246  124  245 1    
   247  125  126 1    
   248  126  246 1    
   249  126  247 1    
@<TRIPOS>SUBSTRUCTURE
     1 UNK         1 GROUP             0       ****    0 ROOT    
