@<TRIPOS>MOLECULE
3R540
247   249    1
SMALL
USER_CHARGES


@<TRIPOS>ATOM
      1 CA         -1.8403   -9.1694  -42.6239 C.3       0 UNK        -0.1800 
      2 C          -2.2074   -9.4156  -44.0805 C.2       0 UNK         0.5000 
      3 O          -1.5990   -8.8254  -44.9731 O.2       0 UNK        -0.5000 
      4 N          -3.2046  -10.2769  -44.3215 N.am      1 UNK        -0.5000 
      5 CA         -3.6617  -10.6748  -45.6589 C.3       1 UNK         0.1400 
      6 C6         -5.0642  -11.3281  -45.5921 C.3       23 UNK        -0.0398 
      7 S7         -5.9252  -11.3287  -47.2003 S.3       23 UNK        -0.2404 
      8 C8         -6.4336  -13.0713  -47.3514 C.3       23 UNK        -0.0205 
      9 C9         -5.2639  -14.0220  -47.5743 C.ar      23 UNK        -0.0193 
     10 C10        -4.5277  -13.9645  -48.7623 C.ar      23 UNK        -0.1150 
     11 C11        -3.5007  -14.8804  -49.0089 C.ar      23 UNK        -0.0193 
     12 C12        -3.2077  -15.8536  -48.0504 C.ar      23 UNK        -0.1150 
     13 C13        -3.9457  -15.9348  -46.8681 C.ar      23 UNK        -0.0193 
     14 C14        -4.9642  -15.0077  -46.6275 C.ar      23 UNK        -0.1150 
     15 C15        -3.6838  -17.0716  -45.8946 C.3       23 UNK        -0.0205 
     16 S16        -4.4802  -18.5919  -46.4975 S.3       23 UNK        -0.2404 
     17 C17        -4.0928  -19.8004  -45.1933 C.3       23 UNK        -0.0398 
     18 CA         -3.6706  -21.1667  -45.7934 C.3       11 UNK         0.1400 
     19 N          -2.2400  -21.2397  -46.1231 N.am      11 UNK        -0.5000 
     20 C          -1.6411  -22.2722  -46.7373 C.2       10 UNK         0.5000 
     21 O          -2.2567  -23.2271  -47.2086 O.2       10 UNK        -0.5000 
     22 CA         -0.1025  -22.2897  -46.7709 C.3       10 UNK         0.1400 
     23 CB          0.4540  -21.5330  -47.9815 C.3       10 UNK        -0.1800 
     24 N           0.4728  -21.7508  -45.5415 N.am      10 UNK        -0.5000 
     25 C           0.5322  -22.4199  -44.3823 C.2       9 UNK         0.5000 
     26 O           0.1649  -23.5866  -44.2517 O.2       9 UNK        -0.5000 
     27 CA          1.0630  -21.6491  -43.1589 C.3       9 UNK         0.1400 
     28 CB          2.5795  -21.8432  -43.0149 C.3       9 UNK        -0.1800 
     29 N           0.7622  -20.2182  -43.2263 N.am      9 UNK        -0.5000 
     30 C          -0.4667  -19.6999  -43.0782 C.2       8 UNK         0.5000 
     31 O          -1.4648  -20.3756  -42.8242 O.2       8 UNK        -0.5000 
     32 CA         -0.6150  -18.1839  -43.3285 C.3       8 UNK         0.1400 
     33 CB         -0.3219  -17.3894  -42.0483 C.3       8 UNK        -0.1800 
     34 N           0.2507  -17.6977  -44.4059 N.am      8 UNK        -0.5000 
     35 C           0.2189  -18.1420  -45.6701 C.2       7 UNK         0.5000 
     36 O          -0.6315  -18.9302  -46.0738 O.2       7 UNK        -0.5000 
     37 CA          1.3378  -17.6940  -46.6319 C.3       7 UNK         0.1400 
     38 CB          0.7853  -16.7600  -47.7157 C.3       7 UNK        -0.1800 
     39 N           2.4899  -17.0618  -45.9820 N.am      7 UNK        -0.5000 
     40 C           3.3068  -17.6602  -45.1017 C.2       6 UNK         0.5000 
     41 O           3.1382  -18.8068  -44.6813 O.2       6 UNK        -0.5000 
     42 CA          4.4854  -16.8049  -44.6099 C.3       6 UNK         0.1400 
     43 CB          5.4508  -17.5556  -43.6681 C.3       6 UNK        -0.1800 
     44 N           5.1796  -16.1749  -45.7355 N.am      6 UNK        -0.5000 
     45 C           5.9672  -16.7504  -46.6586 C.2       5 UNK         0.5000 
     46 O           6.2750  -17.9426  -46.6500 O.2       5 UNK        -0.5000 
     47 CA          6.4947  -15.8524  -47.8043 C.3       5 UNK         0.1400 
     48 CB          6.0308  -16.3881  -49.1695 C.3       5 UNK        -0.1800 
     49 N           6.0776  -14.4520  -47.7003 N.am      5 UNK        -0.5000 
     50 C           6.5053  -13.5646  -46.7928 C.2       4 UNK         0.5000 
     51 O           7.4314  -13.7852  -46.0122 O.2       4 UNK        -0.5000 
     52 CA          5.7410  -12.2255  -46.7049 C.3       4 UNK         0.1400 
     53 CB          6.6272  -11.0686  -47.1931 C.3       4 UNK        -0.1800 
     54 N           4.4659  -12.1794  -47.4349 N.am      4 UNK        -0.5000 
     55 C           3.3870  -12.9480  -47.2250 C.2       3 UNK         0.5000 
     56 O           3.3461  -13.8805  -46.4151 O.2       3 UNK        -0.5000 
     57 CA          2.1846  -12.6598  -48.1447 C.3       3 UNK         0.1400 
     58 CB          2.4010  -13.3147  -49.5189 C.3       3 UNK        -0.1800 
     59 N           0.9186  -13.1390  -47.5937 N.am      3 UNK        -0.5000 
     60 C           0.3216  -12.6541  -46.4986 C.2       2 UNK         0.5000 
     61 O           0.7474  -11.6989  -45.8443 O.2       2 UNK        -0.5000 
     62 CA         -0.9527  -13.3887  -46.0419 C.3       2 UNK         0.1400 
     63 CB         -0.6300  -14.3634  -44.8979 C.3       2 UNK        -0.1800 
     64 N          -1.9921  -12.4692  -45.5894 N.am      2 UNK        -0.5000 
     65 C          -2.6336  -11.5857  -46.3669 C.2       1 UNK         0.5000 
     66 O          -2.4310  -11.4585  -47.5753 O.2       1 UNK        -0.5000 
     67 C          -4.0976  -22.3307  -44.8774 C.2       11 UNK         0.5000 
     68 O          -5.1091  -22.9758  -45.1577 O.2       11 UNK        -0.5000 
     69 N          -3.2847  -22.6251  -43.8516 N.am      12 UNK        -0.5000 
     70 CA         -3.4585  -23.7721  -42.9545 C.3       12 UNK         0.1400 
     71 CB         -2.4655  -23.6584  -41.7883 C.3       12 UNK        -0.1800 
     72 C          -3.3258  -25.1407  -43.6591 C.2       12 UNK         0.5000 
     73 O          -3.9068  -26.1190  -43.1896 O.2       12 UNK        -0.5000 
     74 N          -2.6123  -25.1797  -44.7922 N.am      13 UNK        -0.5000 
     75 CA         -2.4602  -26.3344  -45.6788 C.3       13 UNK         0.1400 
     76 CB         -1.0220  -26.3542  -46.2274 C.3       13 UNK        -0.1800 
     77 C          -3.5155  -26.3320  -46.8074 C.2       13 UNK         0.5000 
     78 O          -3.2080  -26.7197  -47.9364 O.2       13 UNK        -0.5000 
     79 N          -4.7406  -25.8863  -46.4892 N.am      14 UNK        -0.5000 
     80 CA         -5.9204  -25.8248  -47.3598 C.3       14 UNK         0.1400 
     81 CB         -6.4174  -27.2468  -47.6951 C.3       14 UNK        -0.1800 
     82 C          -5.6957  -24.9568  -48.6143 C.2       14 UNK         0.5000 
     83 O          -6.0179  -25.3778  -49.7264 O.2       14 UNK        -0.5000 
     84 N          -5.1131  -23.7678  -48.4060 N.am      15 UNK        -0.5000 
     85 CA         -4.7251  -22.7900  -49.4293 C.3       15 UNK         0.1400 
     86 CB         -5.9680  -22.1606  -50.0909 C.3       15 UNK        -0.1800 
     87 C          -3.7294  -23.3791  -50.4471 C.2       15 UNK         0.5000 
     88 O          -3.9592  -23.3033  -51.6554 O.2       15 UNK        -0.5000 
     89 N          -2.6617  -23.9922  -49.9166 N.am      16 UNK        -0.5000 
     90 CA         -1.6195  -24.7392  -50.6277 C.3       16 UNK         0.1400 
     91 CB         -0.7595  -23.7851  -51.4849 C.3       16 UNK        -0.1800 
     92 C          -2.2003  -25.9132  -51.4437 C.2       16 UNK         0.5000 
     93 O          -1.8530  -26.0816  -52.6120 O.2       16 UNK        -0.5000 
     94 N          -3.1168  -26.6736  -50.8264 N.am      17 UNK        -0.5000 
     95 CA         -3.9341  -27.7302  -51.4360 C.3       17 UNK         0.1400 
     96 CB         -3.0702  -28.9657  -51.7625 C.3       17 UNK        -0.1800 
     97 C          -4.7467  -27.2153  -52.6465 C.2       17 UNK         0.5000 
     98 O          -4.7390  -27.8287  -53.7154 O.2       17 UNK        -0.5000 
     99 N          -5.4076  -26.0676  -52.4437 N.am      18 UNK        -0.5000 
    100 CA        -6.2174  -25.3008  -53.3948 C.3       18 UNK         0.1400 
    101 CB        -7.4434  -26.1165  -53.8557 C.3       18 UNK        -0.1800 
    102 C         -5.4343  -24.6851  -54.5777 C.2       18 UNK         0.5000 
    103 O         -6.0576  -24.2661  -55.5548 O.2       18 UNK        -0.5000 
    104 N         -4.0999  -24.5956  -54.4759 N.am      19 UNK        -0.5000 
    105 CA        -3.2377  -23.9368  -55.4654 C.3       19 UNK         0.1400 
    106 CB        -1.8321  -24.5542  -55.4105 C.3       19 UNK        -0.1800 
    107 C         -3.1629  -22.4043  -55.2879 C.2       19 UNK         0.5000 
    108 O         -2.6095  -21.7364  -56.1622 O.2       19 UNK        -0.5000 
    109 N         -3.7204  -21.8949  -54.1791 N.am      20 UNK        -0.5000 
    110 CA        -3.7137  -20.5241  -53.6622 C.3       20 UNK         0.1400 
    111 CB        -3.9317  -19.4422  -54.7382 C.3       20 UNK        -0.1800 
    112 C         -2.4514  -20.2715  -52.8244 C.2       20 UNK         0.5000 
    113 O         -1.3317  -20.4442  -53.3099 O.2       20 UNK        -0.5000 
    114 N         -2.6701  -19.8687  -51.5665 N.am      21 UNK        -0.5000 
    115 CA        -1.6590  -19.7416  -50.5158 C.3       21 UNK         0.1400 
    116 CB        -2.3632  -19.3290  -49.2178 C.3       21 UNK        -0.1800 
    117 C         -0.5041  -18.7735  -50.8268 C.2       21 UNK         0.5000 
    118 O          0.6356  -19.0539  -50.4564 O.2       21 UNK        -0.5000 
    119 N         -0.8216  -17.6635  -51.5011 N.am      22 UNK        -0.5000 
    120 CA         0.1517  -16.6470  -51.9354 C.3       22 UNK         0.1400 
    121 C          0.7699  -16.9394  -53.3364 C.2       22 UNK         0.5000 
    122 N          0.4599  -18.0518  -53.9943 N.am      22 UNK        -0.7600 
    123 O          1.5608  -16.1449  -53.8372 O.2       22 UNK        -0.5000 
    124 C124       -0.4314  -15.2103  -51.8513 C.3       23 UNK        -0.0398 
    125 S125       -0.9656  -14.7598  -50.1622 S.3       23 UNK        -0.2404 
    126 C126       -2.7717  -14.8798  -50.3445 C.3       23 UNK        -0.0205 
    127 H127       -0.8015   -9.4486  -42.4474 H         1 UNK         0.0600 
    128 H128       -1.9568   -8.1133  -42.3805 H         1 UNK         0.0600 
    129 H129       -2.4674   -9.7461  -41.9435 H         1 UNK         0.0600 
    130 H130       -3.6770  -10.7132  -43.5422 H         1 UNK         0.3000 
    131 H131       -3.7465   -9.7610  -46.2517 H         1 UNK         0.0600 
    132 H132       -5.0071  -12.3390  -45.1849 H         1 UNK         0.0800 
    133 H133       -5.6993  -10.7681  -44.9043 H         1 UNK         0.0800 
    134 H134       -7.0054  -13.3553  -46.4665 H         1 UNK         0.0800 
    135 H135       -7.1198  -13.1604  -48.1947 H         1 UNK         0.0800 
    136 H136       -4.7746  -13.2183  -49.5044 H         1 UNK         0.1150 
    137 H137       -2.4271  -16.5749  -48.2413 H         1 UNK         0.1150 
    138 H138       -5.5490  -15.0798  -45.7214 H         1 UNK         0.1150 
    139 H139       -2.6110  -17.2287  -45.7956 H         1 UNK         0.0800 
    140 H140       -4.0619  -16.8249  -44.9014 H         1 UNK         0.0800 
    141 H141       -4.9951  -19.8900  -44.5850 H         1 UNK         0.0800 
    142 H142       -3.3218  -19.4107  -44.5302 H         1 UNK         0.0800 
    143 H143       -4.2202  -21.3105  -46.7241 H         1 UNK         0.0600 
    144 H144       -1.6694  -20.4397  -45.8612 H         1 UNK         0.3000 
    145 H145        0.2119  -23.3307  -46.8681 H         1 UNK         0.0600 
    146 H146        0.1681  -20.4832  -47.9810 H         1 UNK         0.0600 
    147 H147        1.5426  -21.5807  -48.0104 H         1 UNK         0.0600 
    148 H148        0.0890  -21.9737  -48.9064 H         1 UNK         0.0600 
    149 H149        0.7522  -20.7813  -45.5556 H         1 UNK         0.3000 
    150 H150        0.5805  -22.0610  -42.2700 H         1 UNK         0.0600 
    151 H151        2.8297  -22.9004  -42.9180 H         1 UNK         0.0600 
    152 H152        2.9599  -21.3362  -42.1280 H         1 UNK         0.0600 
    153 H153        3.1195  -21.4560  -43.8798 H         1 UNK         0.0600 
    154 H154        1.5286  -19.6076  -43.4867 H         1 UNK         0.3000 
    155 H155       -1.6493  -17.9920  -43.6170 H         1 UNK         0.0600 
    156 H156       -0.9668  -17.7151  -41.2310 H         1 UNK         0.0600 
    157 H157       -0.4999  -16.3240  -42.1965 H         1 UNK         0.0600 
    158 H158        0.7113  -17.5160  -41.7226 H         1 UNK         0.0600 
    159 H159        0.9873  -17.0609  -44.1436 H         1 UNK         0.3000 
    160 H160        1.7025  -18.5962  -47.1270 H         1 UNK         0.0600 
    161 H161        1.5513  -16.5053  -48.4480 H         1 UNK         0.0600 
    162 H162        0.3961  -15.8370  -47.2940 H         1 UNK         0.0600 
    163 H163       -0.0310  -17.2341  -48.2600 H         1 UNK         0.0600 
    164 H164        2.6998  -16.1099  -46.2559 H         1 UNK         0.3000 
    165 H165        4.0471  -15.9881  -44.0346 H         1 UNK         0.0600 
    166 H166        5.8650  -18.4514  -44.1308 H         1 UNK         0.0600 
    167 H167        6.2811  -16.9182  -43.3644 H         1 UNK         0.0600 
    168 H168        4.9352  -17.8726  -42.7609 H         1 UNK         0.0600 
    169 H169        4.9374  -15.2029  -45.8871 H         1 UNK         0.3000 
    170 H170        7.5853  -15.8900  -47.7704 H         1 UNK         0.0600 
    171 H171        4.9432  -16.3832  -49.2541 H         1 UNK         0.0600 
    172 H172        6.4347  -15.7902  -49.9867 H         1 UNK         0.0600 
    173 H173        6.3673  -17.4139  -49.3253 H         1 UNK         0.0600 
    174 H174        5.3128  -14.1721  -48.2956 H         1 UNK         0.3000 
    175 H175        5.5161  -12.0607  -45.6494 H         1 UNK         0.0600 
    176 H176        6.8637  -11.1643  -48.2536 H         1 UNK         0.0600 
    177 H177        6.1392  -10.1055  -47.0422 H         1 UNK         0.0600 
    178 H178        7.5716  -11.0392  -46.6479 H         1 UNK         0.0600 
    179 H179        4.4055  -11.4645  -48.1459 H         1 UNK         0.3000 
    180 H180        2.1054  -11.5790  -48.2789 H         1 UNK         0.0600 
    181 H181        2.4446  -14.4020  -49.4470 H         1 UNK         0.0600 
    182 H182        3.3319  -12.9789  -49.9776 H         1 UNK         0.0600 
    183 H183        1.5966  -13.0562  -50.2075 H         1 UNK         0.0600 
    184 H184        0.4877  -13.9083  -48.0853 H         1 UNK         0.3000 
    185 H185       -1.3498  -13.9576  -46.8849 H         1 UNK         0.0600 
    186 H186       -1.4721  -15.0245  -44.6918 H         1 UNK         0.0600 
    187 H187        0.2271  -14.9890  -45.1430 H         1 UNK         0.0600 
    188 H188       -0.3828  -13.8340  -43.9769 H         1 UNK         0.0600 
    189 H189       -2.1824  -12.4604  -44.5992 H         1 UNK         0.3000 
    190 H190       -2.4948  -22.0172  -43.6637 H         1 UNK         0.3000 
    191 H191       -4.4686  -23.7170  -42.5433 H         1 UNK         0.0600 
    192 H192       -1.4328  -23.7182  -42.1300 H         1 UNK         0.0600 
    193 H193       -2.5877  -22.7151  -41.2555 H         1 UNK         0.0600 
    194 H194       -2.6180  -24.4620  -41.0668 H         1 UNK         0.0600 
    195 H195       -2.1870  -24.3221  -45.1167 H         1 UNK         0.3000 
    196 H196       -2.6079  -27.2530  -45.1079 H         1 UNK         0.0600 
    197 H197       -0.2902  -26.3149  -45.4203 H         1 UNK         0.0600 
    198 H198       -0.8325  -25.5122  -46.8924 H         1 UNK         0.0600 
    199 H199       -0.8315  -27.2667  -46.7935 H         1 UNK         0.0600 
    200 H200       -4.8783  -25.5415  -45.5492 H         1 UNK         0.3000 
    201 H201       -6.7027  -25.3287  -46.7837 H         1 UNK         0.0600 
    202 H202       -7.3541  -27.2123  -48.2527 H         1 UNK         0.0600 
    203 H203       -6.6018  -27.8233  -46.7888 H         1 UNK         0.0600 
    204 H204       -5.6970  -27.7970  -48.3011 H         1 UNK         0.0600 
    205 H205       -4.8407  -23.5474  -47.4567 H         1 UNK         0.3000 
    206 H206       -4.1929  -21.9960  -48.9117 H         1 UNK         0.0600 
    207 H207       -6.6304  -21.7224  -49.3445 H         1 UNK         0.0600 
    208 H208       -6.5419  -22.8925  -50.6599 H         1 UNK         0.0600 
    209 H209       -5.6830  -21.3641  -50.7786 H         1 UNK         0.0600 
    210 H210       -2.5763  -23.9775  -48.9028 H         1 UNK         0.3000 
    211 H211       -0.9755  -25.1800  -49.8655 H         1 UNK         0.0600 
    212 H212       -0.3165  -22.9963  -50.8814 H         1 UNK         0.0600 
    213 H213        0.0609  -24.3202  -51.9641 H         1 UNK         0.0600 
    214 H214       -1.3427  -23.3083  -52.2730 H         1 UNK         0.0600 
    215 H215       -3.3024  -26.4923  -49.8427 H         1 UNK         0.3000 
    216 H216       -4.6633  -28.0269  -50.6808 H         1 UNK         0.0600 
    217 H217       -3.6890  -29.7919  -52.1142 H         1 UNK         0.0600 
    218 H218       -2.3351  -28.7539  -52.5395 H         1 UNK         0.0600 
    219 H219       -2.5343  -29.3145  -50.8798 H         1 UNK         0.0600 
    220 H220       -5.3758  -25.6738  -51.5060 H         1 UNK         0.3000 
    221 H221       -6.5928  -24.4498  -52.8249 H         1 UNK         0.0600 
    222 H222       -7.1579  -26.9500  -54.4978 H         1 UNK         0.0600 
    223 H223       -7.9910  -26.5199  -53.0038 H         1 UNK         0.0600 
    224 H224       -8.1394  -25.4948  -54.4199 H         1 UNK         0.0600 
    225 H225       -3.6486  -24.9503  -53.6416 H         1 UNK         0.3000 
    226 H226       -3.6403  -24.1279  -56.4623 H         1 UNK         0.0600 
    227 H227       -1.8711  -25.6408  -55.4910 H         1 UNK         0.0600 
    228 H228       -1.2145  -24.1889  -56.2317 H         1 UNK         0.0600 
    229 H229       -1.3184  -24.3020  -54.4833 H         1 UNK         0.0600 
    230 H230       -4.0519  -22.5761  -53.5018 H         1 UNK         0.3000 
    231 H231       -4.5764  -20.4811  -52.9956 H         1 UNK         0.0600 
    232 H232       -4.1238  -18.4740  -54.2749 H         1 UNK         0.0600 
    233 H233       -4.7882  -19.6771  -55.3702 H         1 UNK         0.0600 
    234 H234       -3.0589  -19.3200  -55.3801 H         1 UNK         0.0600 
    235 H235       -3.6237  -19.7165  -51.2734 H         1 UNK         0.3000 
    236 H236       -1.2196  -20.7289  -50.3706 H         1 UNK         0.0600 
    237 H237       -2.9713  -20.1380  -48.8215 H         1 UNK         0.0600 
    238 H238       -1.6511  -19.0585  -48.4404 H         1 UNK         0.0600 
    239 H239       -3.0166  -18.4711  -49.3742 H         1 UNK         0.0600 
    240 H240       -1.7773  -17.5280  -51.7921 H         1 UNK         0.3000 
    241 H241        0.9996  -16.6721  -51.2480 H         1 UNK         0.0600 
    242 H242       -0.1571  -18.7508  -53.5969 H         1 UNK         0.3800 
    243 H243        0.8773  -18.2192  -54.8959 H         1 UNK         0.3800 
    244 H244        0.3206  -14.4784  -52.1509 H         1 UNK         0.0800 
    245 H245       -1.2604  -15.0904  -52.5504 H         1 UNK         0.0800 
    246 H246       -3.0255  -15.8014  -50.8689 H         1 UNK         0.0800 
    247 H247       -3.1155  -14.0578  -50.9742 H         1 UNK         0.0800 
@<TRIPOS>BOND
     1    1    2 1    
     2    1  127 1    
     3    1  128 1    
     4    1  129 1    
     5    2    3 2    
     6    2    4 am   BACKBONE|DICT|INTERRES
     7    4    5 1    
     8    4  130 1    
     9    5    6 1    
    10    5   65 1    
    11    5  131 1    
    12    6    7 1    
    13    6  132 1    
    14    6  133 1    
    15    7    8 1    
    16    8    9 1    
    17    8  134 1    
    18    8  135 1    
    19    9   10 ar   
    20    9   14 ar   
    21   10   11 ar   
    22   10  136 1    
    23   11   12 ar   
    24   11  126 1    
    25   12   13 ar   
    26   12  137 1    
    27   13   14 ar   
    28   13   15 1    
    29   14  138 1    
    30   15   16 1    
    31   15  139 1    
    32   15  140 1    
    33   16   17 1    
    34   17   18 1    
    35   17  141 1    
    36   17  142 1    
    37   18   19 1    
    38   18   67 1    
    39   18  143 1    
    40   19   20 am   BACKBONE|DICT|INTERRES
    41   19  144 1    
    42   20   21 2    
    43   20   22 1    
    44   22   23 1    
    45   22   24 1    
    46   22  145 1    
    47   23  146 1    
    48   23  147 1    
    49   23  148 1    
    50   24   25 am   BACKBONE|DICT|INTERRES
    51   24  149 1    
    52   25   26 2    
    53   25   27 1    
    54   27   28 1    
    55   27   29 1    
    56   27  150 1    
    57   28  151 1    
    58   28  152 1    
    59   28  153 1    
    60   29   30 am   BACKBONE|DICT|INTERRES
    61   29  154 1    
    62   30   31 2    
    63   30   32 1    
    64   32   33 1    
    65   32   34 1    
    66   32  155 1    
    67   33  156 1    
    68   33  157 1    
    69   33  158 1    
    70   34   35 am   BACKBONE|DICT|INTERRES
    71   34  159 1    
    72   35   36 2    
    73   35   37 1    
    74   37   38 1    
    75   37   39 1    
    76   37  160 1    
    77   38  161 1    
    78   38  162 1    
    79   38  163 1    
    80   39   40 am   BACKBONE|DICT|INTERRES
    81   39  164 1    
    82   40   41 2    
    83   40   42 1    
    84   42   43 1    
    85   42   44 1    
    86   42  165 1    
    87   43  166 1    
    88   43  167 1    
    89   43  168 1    
    90   44   45 am   BACKBONE|DICT|INTERRES
    91   44  169 1    
    92   45   46 2    
    93   45   47 1    
    94   47   48 1    
    95   47   49 1    
    96   47  170 1    
    97   48  171 1    
    98   48  172 1    
    99   48  173 1    
   100   49   50 am   BACKBONE|DICT|INTERRES
   101   49  174 1    
   102   50   51 2    
   103   50   52 1    
   104   52   53 1    
   105   52   54 1    
   106   52  175 1    
   107   53  176 1    
   108   53  177 1    
   109   53  178 1    
   110   54   55 am   BACKBONE|DICT|INTERRES
   111   54  179 1    
   112   55   56 2    
   113   55   57 1    
   114   57   58 1    
   115   57   59 1    
   116   57  180 1    
   117   58  181 1    
   118   58  182 1    
   119   58  183 1    
   120   59   60 am   BACKBONE|DICT|INTERRES
   121   59  184 1    
   122   60   61 2    
   123   60   62 1    
   124   62   63 1    
   125   62   64 1    
   126   62  185 1    
   127   63  186 1    
   128   63  187 1    
   129   63  188 1    
   130   64   65 am   BACKBONE|DICT|INTERRES
   131   64  189 1    
   132   65   66 2    
   133   67   68 2    
   134   67   69 am   BACKBONE|DICT|INTERRES
   135   69   70 1    
   136   69  190 1    
   137   70   71 1    
   138   70   72 1    
   139   70  191 1    
   140   71  192 1    
   141   71  193 1    
   142   71  194 1    
   143   72   73 2    
   144   72   74 am   BACKBONE|DICT|INTERRES
   145   74   75 1    
   146   74  195 1    
   147   75   76 1    
   148   75   77 1    
   149   75  196 1    
   150   76  197 1    
   151   76  198 1    
   152   76  199 1    
   153   77   78 2    
   154   77   79 am   BACKBONE|DICT|INTERRES
   155   79   80 1    
   156   79  200 1    
   157   80   81 1    
   158   80   82 1    
   159   80  201 1    
   160   81  202 1    
   161   81  203 1    
   162   81  204 1    
   163   82   83 2    
   164   82   84 am   BACKBONE|DICT|INTERRES
   165   84   85 1    
   166   84  205 1    
   167   85   86 1    
   168   85   87 1    
   169   85  206 1    
   170   86  207 1    
   171   86  208 1    
   172   86  209 1    
   173   87   88 2    
   174   87   89 am   BACKBONE|DICT|INTERRES
   175   89   90 1    
   176   89  210 1    
   177   90   91 1    
   178   90   92 1    
   179   90  211 1    
   180   91  212 1    
   181   91  213 1    
   182   91  214 1    
   183   92   93 2    
   184   92   94 am   BACKBONE|DICT|INTERRES
   185   94   95 1    
   186   94  215 1    
   187   95   96 1    
   188   95   97 1    
   189   95  216 1    
   190   96  217 1    
   191   96  218 1    
   192   96  219 1    
   193   97   98 2    
   194   97   99 am   BACKBONE|DICT|INTERRES
   195   99  100 1    
   196   99  220 1    
   197  100  101 1    
   198  100  102 1    
   199  100  221 1    
   200  101  222 1    
   201  101  223 1    
   202  101  224 1    
   203  102  103 2    
   204  102  104 am   BACKBONE|DICT|INTERRES
   205  104  105 1    
   206  104  225 1    
   207  105  106 1    
   208  105  107 1    
   209  105  226 1    
   210  106  227 1    
   211  106  228 1    
   212  106  229 1    
   213  107  108 2    
   214  107  109 am   BACKBONE|DICT|INTERRES
   215  109  110 1    
   216  109  230 1    
   217  110  111 1    
   218  110  112 1    
   219  110  231 1    
   220  111  232 1    
   221  111  233 1    
   222  111  234 1    
   223  112  113 2    
   224  112  114 am   BACKBONE|DICT|INTERRES
   225  114  115 1    
   226  114  235 1    
   227  115  116 1    
   228  115  117 1    
   229  115  236 1    
   230  116  237 1    
   231  116  238 1    
   232  116  239 1    
   233  117  118 2    
   234  117  119 am   BACKBONE|DICT|INTERRES
   235  119  120 1    
   236  119  240 1    
   237  120  121 1    
   238  120  124 1    
   239  120  241 1    
   240  121  122 am   BACKBONE|DICT|INTERRES
   241  121  123 2    
   242  122  242 1    
   243  122  243 1    
   244  124  125 1    
   245  124  244 1    
   246  124  245 1    
   247  125  126 1    
   248  126  246 1    
   249  126  247 1    
@<TRIPOS>SUBSTRUCTURE
     1 UNK         1 GROUP             0       ****    0 ROOT    
