@<TRIPOS>MOLECULE
3R540
247   249    1
SMALL
USER_CHARGES


@<TRIPOS>ATOM
      1 CA          0.9454  -12.3778  -43.0522 C.3       0 UNK        -0.1800 
      2 C          -0.4290  -12.4982  -43.6949 C.2       0 UNK         0.5000 
      3 O          -1.4337  -12.5715  -42.9872 O.2       0 UNK        -0.5000 
      4 N          -0.4729  -12.5226  -45.0280 N.am      1 UNK        -0.5000 
      5 CA         -1.6859  -12.6194  -45.8390 C.3       1 UNK         0.1400 
      6 C6         -2.0823  -14.0952  -46.1461 C.3       23 UNK        -0.0398 
      7 S7         -0.7487  -15.1335  -46.8627 S.3       23 UNK        -0.2404 
      8 C8         -1.3335  -15.6005  -48.5258 C.3       23 UNK        -0.0205 
      9 C9         -2.6622  -16.3402  -48.5123 C.ar      23 UNK        -0.0193 
     10 C10        -3.8454  -15.6555  -48.8058 C.ar      23 UNK        -0.1150 
     11 C11        -5.0777  -16.3204  -48.8193 C.ar      23 UNK        -0.0193 
     12 C12        -5.1033  -17.6891  -48.5430 C.ar      23 UNK        -0.1150 
     13 C13        -3.9282  -18.3906  -48.2573 C.ar      23 UNK        -0.0193 
     14 C14        -2.7078  -17.7100  -48.2375 C.ar      23 UNK        -0.1150 
     15 C15        -3.9931  -19.8863  -47.9933 C.3       23 UNK        -0.0205 
     16 S16        -4.7759  -20.2462  -46.3915 S.3       23 UNK        -0.2404 
     17 C17        -3.3241  -20.3652  -45.2941 C.3       23 UNK        -0.0398 
     18 CA         -2.8116  -21.8232  -45.1946 C.3       11 UNK         0.1400 
     19 N          -1.3683  -21.8986  -44.9521 N.am      11 UNK        -0.5000 
     20 C          -0.6181  -23.0072  -45.0342 C.2       10 UNK         0.5000 
     21 O          -1.0724  -24.1044  -45.3646 O.2       10 UNK        -0.5000 
     22 CA          0.8656  -22.8911  -44.6345 C.3       10 UNK         0.1400 
     23 CB          1.7508  -22.7578  -45.8812 C.3       10 UNK        -0.1800 
     24 N           1.1377  -21.7801  -43.7176 N.am      10 UNK        -0.5000 
     25 C           0.6476  -21.6838  -42.4720 C.2       9 UNK         0.5000 
     26 O          -0.0699  -22.5403  -41.9544 O.2       9 UNK        -0.5000 
     27 CA          0.9602  -20.3893  -41.7009 C.3       9 UNK         0.1400 
     28 CB          2.3884  -20.4181  -41.1362 C.3       9 UNK        -0.1800 
     29 N           0.7821  -19.1953  -42.5272 N.am      9 UNK        -0.5000 
     30 C          -0.3887  -18.7798  -43.0323 C.2       8 UNK         0.5000 
     31 O          -1.4663  -19.3267  -42.8009 O.2       8 UNK        -0.5000 
     32 CA         -0.3378  -17.5850  -44.0018 C.3       8 UNK         0.1400 
     33 CB         -0.2500  -16.2577  -43.2345 C.3       8 UNK        -0.1800 
     34 N           0.7797  -17.6912  -44.9403 N.am      8 UNK        -0.5000 
     35 C           0.8890  -18.6395  -45.8820 C.2       7 UNK         0.5000 
     36 O           0.0341  -19.4982  -46.0934 O.2       7 UNK        -0.5000 
     37 CA          2.1949  -18.6618  -46.6916 C.3       7 UNK         0.1400 
     38 CB          2.0956  -17.7316  -47.9090 C.3       7 UNK        -0.1800 
     39 N           3.3466  -18.2884  -45.8694 N.am      7 UNK        -0.5000 
     40 C           3.8870  -19.0814  -44.9319 C.2       6 UNK         0.5000 
     41 O           3.4875  -20.2203  -44.6918 O.2       6 UNK        -0.5000 
     42 CA          5.0327  -18.4896  -44.0874 C.3       6 UNK         0.1400 
     43 CB          6.3749  -18.6338  -44.8196 C.3       6 UNK        -0.1800 
     44 N           4.8168  -17.0835  -43.7458 N.am      6 UNK        -0.5000 
     45 C           3.8060  -16.6336  -42.9897 C.2       5 UNK         0.5000 
     46 O           3.0029  -17.3729  -42.4232 O.2       5 UNK        -0.5000 
     47 CA          3.6217  -15.1063  -42.8894 C.3       5 UNK         0.1400 
     48 CB          4.2356  -14.5715  -41.5879 C.3       5 UNK        -0.1800 
     49 N           4.1578  -14.3466  -44.0244 N.am      5 UNK        -0.5000 
     50 C           3.7887  -14.5013  -45.3032 C.2       4 UNK         0.5000 
     51 O           2.9889  -15.3604  -45.6799 O.2       4 UNK        -0.5000 
     52 CA          4.4897  -13.5817  -46.3230 C.3       4 UNK         0.1400 
     53 CB          5.9146  -14.0900  -46.5975 C.3       4 UNK        -0.1800 
     54 N           3.7855  -13.4758  -47.6025 N.am      4 UNK        -0.5000 
     55 C           2.5500  -12.9906  -47.7744 C.2       3 UNK         0.5000 
     56 O           1.8584  -12.5427  -46.8533 O.2       3 UNK        -0.5000 
     57 CA          2.0132  -12.9849  -49.2209 C.3       3 UNK         0.1400 
     58 CB          2.2162  -14.3335  -49.9365 C.3       3 UNK        -0.1800 
     59 N           0.5886  -12.6902  -49.1841 N.am      3 UNK        -0.5000 
     60 C          -0.0742  -11.7831  -49.9105 C.2       2 UNK         0.5000 
     61 O           0.4325  -11.1327  -50.8250 O.2       2 UNK        -0.5000 
     62 CA         -1.5618  -11.5615  -49.5445 C.3       2 UNK         0.1400 
     63 CB         -2.4828  -12.1397  -50.6313 C.3       2 UNK        -0.1800 
     64 N          -1.9210  -12.1593  -48.2525 N.am      2 UNK        -0.5000 
     65 C          -1.5043  -11.7012  -47.0646 C.2       1 UNK         0.5000 
     66 O          -0.9557  -10.6051  -46.9256 O.2       1 UNK        -0.5000 
     67 C          -3.6567  -22.6867  -44.2254 C.2       11 UNK         0.5000 
     68 O          -4.7992  -23.0070  -44.5536 O.2       11 UNK        -0.5000 
     69 N          -3.0693  -23.1520  -43.1108 N.am      12 UNK        -0.5000 
     70 CA         -3.6302  -24.2029  -42.2526 C.3       12 UNK         0.1400 
     71 CB         -2.7091  -24.4065  -41.0411 C.3       12 UNK        -0.1800 
     72 C          -3.8594  -25.5455  -42.9871 C.2       12 UNK         0.5000 
     73 O          -4.7375  -26.3099  -42.5863 O.2       12 UNK        -0.5000 
     74 N          -3.0967  -25.7859  -44.0630 N.am      13 UNK        -0.5000 
     75 CA         -3.2554  -26.8942  -45.0048 C.3       13 UNK         0.1400 
     76 CB         -1.9781  -27.7522  -44.9695 C.3       13 UNK        -0.1800 
     77 C          -3.5513  -26.3624  -46.4244 C.2       13 UNK         0.5000 
     78 O          -3.2092  -27.0213  -47.4084 O.2       13 UNK        -0.5000 
     79 N          -4.1316  -25.1528  -46.5168 N.am      14 UNK        -0.5000 
     80 CA         -4.4622  -24.4008  -47.7381 C.3       14 UNK         0.1400 
     81 CB         -5.6154  -25.0931  -48.4929 C.3       14 UNK        -0.1800 
     82 C          -3.2497  -24.1202  -48.6560 C.2       14 UNK         0.5000 
     83 O          -3.4249  -23.9294  -49.8608 O.2       14 UNK        -0.5000 
     84 N          -2.0370  -24.1535  -48.0814 N.am      15 UNK        -0.5000 
     85 CA         -0.7352  -24.1221  -48.7525 C.3       15 UNK         0.1400 
     86 CB         -0.4474  -22.7142  -49.3106 C.3       15 UNK        -0.1800 
     87 C          -0.5699  -25.2641  -49.7805 C.2       15 UNK         0.5000 
     88 O           0.0029  -25.0572  -50.8499 O.2       15 UNK        -0.5000 
     89 N          -1.1030  -26.4465  -49.4287 N.am      16 UNK        -0.5000 
     90 CA         -1.2312  -27.6507  -50.2571 C.3       16 UNK         0.1400 
     91 CB          0.1484  -28.2061  -50.6703 C.3       16 UNK        -0.1800 
     92 C          -2.1941  -27.4381  -51.4449 C.2       16 UNK         0.5000 
     93 O          -1.9389  -27.9285  -52.5461 O.2       16 UNK        -0.5000 
     94 N          -3.2861  -26.7038  -51.1795 N.am      17 UNK        -0.5000 
     95 CA         -4.3305  -26.2692  -52.1129 C.3       17 UNK         0.1400 
     96 CB         -5.1444  -27.4745  -52.6281 C.3       17 UNK        -0.1800 
     97 C          -3.7612  -25.3842  -53.2400 C.2       17 UNK         0.5000 
     98 O          -3.9510  -25.6782  -54.4225 O.2       17 UNK        -0.5000 
     99 N          -3.0375  -24.3291  -52.8438 N.am      18 UNK        -0.5000 
    100 CA        -2.3817  -23.3900  -53.7525 C.3       18 UNK         0.1400 
    101 CB        -1.4350  -22.4813  -52.9541 C.3       18 UNK        -0.1800 
    102 C         -3.3896  -22.5259  -54.5284 C.2       18 UNK         0.5000 
    103 O         -4.3376  -22.0079  -53.9357 O.2       18 UNK        -0.5000 
    104 N         -3.1225  -22.3229  -55.8243 N.am      19 UNK        -0.5000 
    105 CA        -3.8625  -21.3909  -56.6812 C.3       19 UNK         0.1400 
    106 CB        -3.5969  -21.7469  -58.1521 C.3       19 UNK        -0.1800 
    107 C         -3.4951  -19.9175  -56.4072 C.2       19 UNK         0.5000 
    108 O         -4.2782  -19.0241  -56.7290 O.2       19 UNK        -0.5000 
    109 N         -2.3127  -19.6931  -55.8156 N.am      20 UNK        -0.5000 
    110 CA        -1.7764  -18.3810  -55.4507 C.3       20 UNK         0.1400 
    111 CB        -0.2595  -18.5152  -55.2428 C.3       20 UNK        -0.1800 
    112 C         -2.4346  -17.7604  -54.2017 C.2       20 UNK         0.5000 
    113 O         -2.2331  -16.5699  -53.9574 O.2       20 UNK        -0.5000 
    114 N         -3.1908  -18.5621  -53.4362 N.am      21 UNK        -0.5000 
    115 CA        -3.9281  -18.1861  -52.2275 C.3       21 UNK         0.1400 
    116 CB        -4.6611  -19.4339  -51.7067 C.3       21 UNK        -0.1800 
    117 C         -4.9079  -17.0221  -52.4807 C.2       21 UNK         0.5000 
    118 O         -5.9901  -17.2445  -53.0275 O.2       21 UNK        -0.5000 
    119 N         -4.4798  -15.8035  -52.1221 N.am      22 UNK        -0.5000 
    120 CA        -5.1548  -14.5266  -52.4166 C.3       22 UNK         0.1400 
    121 C         -5.2400  -14.1964  -53.9414 C.2       22 UNK         0.5000 
    122 N         -4.3393  -14.7101  -54.7709 N.am      22 UNK        -0.7600 
    123 O         -6.1034  -13.4420  -54.3820 O.2       22 UNK        -0.5000 
    124 C124       -6.5056  -14.3659  -51.6595 C.3       23 UNK        -0.0398 
    125 S125       -6.2795  -13.9712  -49.8914 S.3       23 UNK        -0.2404 
    126 C126       -6.4050  -15.6042  -49.0802 C.3       23 UNK        -0.0205 
    127 H127        1.7437  -12.5194  -43.7813 H         1 UNK         0.0600 
    128 H128        1.0607  -13.1267  -42.2690 H         1 UNK         0.0600 
    129 H129        1.0639  -11.3924  -42.6021 H         1 UNK         0.0600 
    130 H130        0.3863  -12.4391  -45.5677 H         1 UNK         0.3000 
    131 H131       -2.5130  -12.1712  -45.2847 H         1 UNK         0.0600 
    132 H132       -2.3668  -14.5728  -45.2076 H         1 UNK         0.0800 
    133 H133       -2.9845  -14.1362  -46.7530 H         1 UNK         0.0800 
    134 H134       -1.3927  -14.7219  -49.1644 H         1 UNK         0.0800 
    135 H135       -0.5778  -16.2400  -48.9836 H         1 UNK         0.0800 
    136 H136       -3.8006  -14.5982  -49.0152 H         1 UNK         0.1150 
    137 H137       -6.0469  -18.2170  -48.5447 H         1 UNK         0.1150 
    138 H138       -1.7943  -18.2435  -48.0129 H         1 UNK         0.1150 
    139 H139       -4.5807  -20.3622  -48.7792 H         1 UNK         0.0800 
    140 H140       -3.0015  -20.3398  -48.0427 H         1 UNK         0.0800 
    141 H141       -3.5847  -19.9674  -44.3121 H         1 UNK         0.0800 
    142 H142       -2.5501  -19.7044  -45.6851 H         1 UNK         0.0800 
    143 H143       -2.9415  -22.2740  -46.1786 H         1 UNK         0.0600 
    144 H144       -0.9054  -21.0273  -44.7254 H         1 UNK         0.3000 
    145 H145        1.1378  -23.8159  -44.1222 H         1 UNK         0.0600 
    146 H146        2.8039  -22.6784  -45.6122 H         1 UNK         0.0600 
    147 H147        1.6534  -23.6320  -46.5239 H         1 UNK         0.0600 
    148 H148        1.4859  -21.8807  -46.4718 H         1 UNK         0.0600 
    149 H149        1.7618  -21.0555  -44.0584 H         1 UNK         0.3000 
    150 H150        0.2640  -20.3240  -40.8623 H         1 UNK         0.0600 
    151 H151        2.5413  -21.2935  -40.5039 H         1 UNK         0.0600 
    152 H152        2.5875  -19.5369  -40.5261 H         1 UNK         0.0600 
    153 H153        3.1361  -20.4496  -41.9291 H         1 UNK         0.0600 
    154 H154        1.6153  -18.6428  -42.7109 H         1 UNK         0.3000 
    155 H155       -1.2604  -17.5788  -44.5865 H         1 UNK         0.0600 
    156 H156       -1.1646  -16.0769  -42.6690 H         1 UNK         0.0600 
    157 H157       -0.1158  -15.4177  -43.9144 H         1 UNK         0.0600 
    158 H158        0.5767  -16.2494  -42.5253 H         1 UNK         0.0600 
    159 H159        1.5156  -17.0013  -44.8676 H         1 UNK         0.3000 
    160 H160        2.3484  -19.6787  -47.0578 H         1 UNK         0.0600 
    161 H161        1.8911  -16.7033  -47.6126 H         1 UNK         0.0600 
    162 H162        1.2880  -18.0454  -48.5714 H         1 UNK         0.0600 
    163 H163        3.0172  -17.7376  -48.4907 H         1 UNK         0.0600 
    164 H164        3.6537  -17.3258  -45.9418 H         1 UNK         0.3000 
    165 H165        5.0872  -19.0582  -43.1566 H         1 UNK         0.0600 
    166 H166        7.2022  -18.2914  -44.1977 H         1 UNK         0.0600 
    167 H167        6.5704  -19.6766  -45.0735 H         1 UNK         0.0600 
    168 H168        6.3921  -18.0609  -45.7477 H         1 UNK         0.0600 
    169 H169        5.4335  -16.4086  -44.1723 H         1 UNK         0.3000 
    170 H170        2.5475  -14.9219  -42.8586 H         1 UNK         0.0600 
    171 H171        3.8362  -15.0999  -40.7210 H         1 UNK         0.0600 
    172 H172        5.3195  -14.6917  -41.5756 H         1 UNK         0.0600 
    173 H173        4.0116  -13.5133  -41.4517 H         1 UNK         0.0600 
    174 H174        4.8404  -13.6373  -43.7989 H         1 UNK         0.3000 
    175 H175        4.5477  -12.5801  -45.8923 H         1 UNK         0.0600 
    176 H176        5.9070  -15.0890  -47.0360 H         1 UNK         0.0600 
    177 H177        6.4449  -13.4276  -47.2820 H         1 UNK         0.0600 
    178 H178        6.5029  -14.1391  -45.6804 H         1 UNK         0.0600 
    179 H179        4.2734  -13.8422  -48.4058 H         1 UNK         0.3000 
    180 H180        2.5471  -12.2029  -49.7644 H         1 UNK         0.0600 
    181 H181        1.7833  -14.3131  -50.9369 H         1 UNK         0.0600 
    182 H182        1.7449  -15.1500  -49.3903 H         1 UNK         0.0600 
    183 H183        3.2728  -14.5756  -50.0521 H         1 UNK         0.0600 
    184 H184        0.1080  -13.1055  -48.3986 H         1 UNK         0.3000 
    185 H185       -1.7314  -10.4842  -49.4889 H         1 UNK         0.0600 
    186 H186       -2.3336  -13.2114  -50.7634 H         1 UNK         0.0600 
    187 H187       -3.5327  -11.9724  -50.3896 H         1 UNK         0.0600 
    188 H188       -2.2936  -11.6644  -51.5946 H         1 UNK         0.0600 
    189 H189       -2.4001  -13.0448  -48.2884 H         1 UNK         0.3000 
    190 H190       -2.1253  -22.8538  -42.8955 H         1 UNK         0.3000 
    191 H191       -4.6005  -23.8552  -41.8925 H         1 UNK         0.0600 
    192 H192       -1.7199  -24.7527  -41.3436 H         1 UNK         0.0600 
    193 H193       -2.5825  -23.4802  -40.4804 H         1 UNK         0.0600 
    194 H194       -3.1217  -25.1481  -40.3558 H         1 UNK         0.0600 
    195 H195       -2.3888  -25.1042  -44.3211 H         1 UNK         0.3000 
    196 H196       -4.1018  -27.5226  -44.7221 H         1 UNK         0.0600 
    197 H197       -1.7775  -28.1165  -43.9619 H         1 UNK         0.0600 
    198 H198       -1.1066  -27.1856  -45.3004 H         1 UNK         0.0600 
    199 H199       -2.0702  -28.6259  -45.6159 H         1 UNK         0.0600 
    200 H200       -4.3849  -24.6846  -45.6532 H         1 UNK         0.3000 
    201 H201       -4.8231  -23.4248  -47.4112 H         1 UNK         0.0600 
    202 H202       -5.9600  -24.4853  -49.3304 H         1 UNK         0.0600 
    203 H203       -6.4725  -25.2514  -47.8384 H         1 UNK         0.0600 
    204 H204       -5.3166  -26.0629  -48.8913 H         1 UNK         0.0600 
    205 H205       -1.9846  -24.3145  -47.0806 H         1 UNK         0.3000 
    206 H206        0.0074  -24.3246  -47.9821 H         1 UNK         0.0600 
    207 H207       -0.4633  -21.9696  -48.5142 H         1 UNK         0.0600 
    208 H208       -1.1838  -22.4169  -50.0550 H         1 UNK         0.0600 
    209 H209        0.5362  -22.6662  -49.7787 H         1 UNK         0.0600 
    210 H210       -1.5937  -26.4992  -48.5416 H         1 UNK         0.3000 
    211 H211       -1.7038  -28.4005  -49.6208 H         1 UNK         0.0600 
    212 H212        0.7983  -28.3321  -49.8044 H         1 UNK         0.0600 
    213 H213        0.0471  -29.1831  -51.1440 H         1 UNK         0.0600 
    214 H214        0.6564  -27.5534  -51.3804 H         1 UNK         0.0600 
    215 H215       -3.3594  -26.3158  -50.2498 H         1 UNK         0.3000 
    216 H216       -5.0115  -25.6360  -51.5427 H         1 UNK         0.0600 
    217 H217       -5.9834  -27.1430  -53.2409 H         1 UNK         0.0600 
    218 H218       -4.5396  -28.1452  -53.2389 H         1 UNK         0.0600 
    219 H219       -5.5557  -28.0534  -51.8012 H         1 UNK         0.0600 
    220 H220       -2.9722  -24.1323  -51.8501 H         1 UNK         0.3000 
    221 H221       -1.7861  -23.9691  -54.4615 H         1 UNK         0.0600 
    222 H222       -1.9770  -21.8922  -52.2132 H         1 UNK         0.0600 
    223 H223       -0.6734  -23.0619  -52.4358 H         1 UNK         0.0600 
    224 H224       -0.9135  -21.7827  -53.6093 H         1 UNK         0.0600 
    225 H225       -2.3358  -22.7951  -56.2471 H         1 UNK         0.3000 
    226 H226       -4.9313  -21.5078  -56.4887 H         1 UNK         0.0600 
    227 H227       -3.9050  -22.7692  -58.3722 H         1 UNK         0.0600 
    228 H228       -4.1557  -21.0898  -58.8199 H         1 UNK         0.0600 
    229 H229       -2.5405  -21.6514  -58.4062 H         1 UNK         0.0600 
    230 H230       -1.7306  -20.4893  -55.6048 H         1 UNK         0.3000 
    231 H231       -1.9479  -17.6945  -56.2825 H         1 UNK         0.0600 
    232 H232        0.1908  -17.5501  -55.0065 H         1 UNK         0.0600 
    233 H233        0.2312  -18.8878  -56.1422 H         1 UNK         0.0600 
    234 H234       -0.0240  -19.1960  -54.4237 H         1 UNK         0.0600 
    235 H235       -3.3222  -19.5133  -53.7472 H         1 UNK         0.3000 
    236 H236       -3.2067  -17.8757  -51.4688 H         1 UNK         0.0600 
    237 H237       -5.2991  -19.1925  -50.8579 H         1 UNK         0.0600 
    238 H238       -5.3025  -19.8713  -52.4727 H         1 UNK         0.0600 
    239 H239       -3.9573  -20.2007  -51.3824 H         1 UNK         0.0600 
    240 H240       -3.5558  -15.7224  -51.7245 H         1 UNK         0.3000 
    241 H241       -4.4862  -13.7538  -52.0386 H         1 UNK         0.0600 
    242 H242       -4.3858  -14.4877  -55.7523 H         1 UNK         0.3800 
    243 H243       -3.6025  -15.3178  -54.4241 H         1 UNK         0.3800 
    244 H244       -7.0818  -13.5335  -52.0652 H         1 UNK         0.0800 
    245 H245       -7.1427  -15.2418  -51.7801 H         1 UNK         0.0800 
    246 H246       -6.8958  -15.4599  -48.1171 H         1 UNK         0.0800 
    247 H247       -7.0654  -16.2477  -49.6630 H         1 UNK         0.0800 
@<TRIPOS>BOND
     1    1    2 1    
     2    1  127 1    
     3    1  128 1    
     4    1  129 1    
     5    2    3 2    
     6    2    4 am   BACKBONE|DICT|INTERRES
     7    4    5 1    
     8    4  130 1    
     9    5    6 1    
    10    5   65 1    
    11    5  131 1    
    12    6    7 1    
    13    6  132 1    
    14    6  133 1    
    15    7    8 1    
    16    8    9 1    
    17    8  134 1    
    18    8  135 1    
    19    9   10 ar   
    20    9   14 ar   
    21   10   11 ar   
    22   10  136 1    
    23   11   12 ar   
    24   11  126 1    
    25   12   13 ar   
    26   12  137 1    
    27   13   14 ar   
    28   13   15 1    
    29   14  138 1    
    30   15   16 1    
    31   15  139 1    
    32   15  140 1    
    33   16   17 1    
    34   17   18 1    
    35   17  141 1    
    36   17  142 1    
    37   18   19 1    
    38   18   67 1    
    39   18  143 1    
    40   19   20 am   BACKBONE|DICT|INTERRES
    41   19  144 1    
    42   20   21 2    
    43   20   22 1    
    44   22   23 1    
    45   22   24 1    
    46   22  145 1    
    47   23  146 1    
    48   23  147 1    
    49   23  148 1    
    50   24   25 am   BACKBONE|DICT|INTERRES
    51   24  149 1    
    52   25   26 2    
    53   25   27 1    
    54   27   28 1    
    55   27   29 1    
    56   27  150 1    
    57   28  151 1    
    58   28  152 1    
    59   28  153 1    
    60   29   30 am   BACKBONE|DICT|INTERRES
    61   29  154 1    
    62   30   31 2    
    63   30   32 1    
    64   32   33 1    
    65   32   34 1    
    66   32  155 1    
    67   33  156 1    
    68   33  157 1    
    69   33  158 1    
    70   34   35 am   BACKBONE|DICT|INTERRES
    71   34  159 1    
    72   35   36 2    
    73   35   37 1    
    74   37   38 1    
    75   37   39 1    
    76   37  160 1    
    77   38  161 1    
    78   38  162 1    
    79   38  163 1    
    80   39   40 am   BACKBONE|DICT|INTERRES
    81   39  164 1    
    82   40   41 2    
    83   40   42 1    
    84   42   43 1    
    85   42   44 1    
    86   42  165 1    
    87   43  166 1    
    88   43  167 1    
    89   43  168 1    
    90   44   45 am   BACKBONE|DICT|INTERRES
    91   44  169 1    
    92   45   46 2    
    93   45   47 1    
    94   47   48 1    
    95   47   49 1    
    96   47  170 1    
    97   48  171 1    
    98   48  172 1    
    99   48  173 1    
   100   49   50 am   BACKBONE|DICT|INTERRES
   101   49  174 1    
   102   50   51 2    
   103   50   52 1    
   104   52   53 1    
   105   52   54 1    
   106   52  175 1    
   107   53  176 1    
   108   53  177 1    
   109   53  178 1    
   110   54   55 am   BACKBONE|DICT|INTERRES
   111   54  179 1    
   112   55   56 2    
   113   55   57 1    
   114   57   58 1    
   115   57   59 1    
   116   57  180 1    
   117   58  181 1    
   118   58  182 1    
   119   58  183 1    
   120   59   60 am   BACKBONE|DICT|INTERRES
   121   59  184 1    
   122   60   61 2    
   123   60   62 1    
   124   62   63 1    
   125   62   64 1    
   126   62  185 1    
   127   63  186 1    
   128   63  187 1    
   129   63  188 1    
   130   64   65 am   BACKBONE|DICT|INTERRES
   131   64  189 1    
   132   65   66 2    
   133   67   68 2    
   134   67   69 am   BACKBONE|DICT|INTERRES
   135   69   70 1    
   136   69  190 1    
   137   70   71 1    
   138   70   72 1    
   139   70  191 1    
   140   71  192 1    
   141   71  193 1    
   142   71  194 1    
   143   72   73 2    
   144   72   74 am   BACKBONE|DICT|INTERRES
   145   74   75 1    
   146   74  195 1    
   147   75   76 1    
   148   75   77 1    
   149   75  196 1    
   150   76  197 1    
   151   76  198 1    
   152   76  199 1    
   153   77   78 2    
   154   77   79 am   BACKBONE|DICT|INTERRES
   155   79   80 1    
   156   79  200 1    
   157   80   81 1    
   158   80   82 1    
   159   80  201 1    
   160   81  202 1    
   161   81  203 1    
   162   81  204 1    
   163   82   83 2    
   164   82   84 am   BACKBONE|DICT|INTERRES
   165   84   85 1    
   166   84  205 1    
   167   85   86 1    
   168   85   87 1    
   169   85  206 1    
   170   86  207 1    
   171   86  208 1    
   172   86  209 1    
   173   87   88 2    
   174   87   89 am   BACKBONE|DICT|INTERRES
   175   89   90 1    
   176   89  210 1    
   177   90   91 1    
   178   90   92 1    
   179   90  211 1    
   180   91  212 1    
   181   91  213 1    
   182   91  214 1    
   183   92   93 2    
   184   92   94 am   BACKBONE|DICT|INTERRES
   185   94   95 1    
   186   94  215 1    
   187   95   96 1    
   188   95   97 1    
   189   95  216 1    
   190   96  217 1    
   191   96  218 1    
   192   96  219 1    
   193   97   98 2    
   194   97   99 am   BACKBONE|DICT|INTERRES
   195   99  100 1    
   196   99  220 1    
   197  100  101 1    
   198  100  102 1    
   199  100  221 1    
   200  101  222 1    
   201  101  223 1    
   202  101  224 1    
   203  102  103 2    
   204  102  104 am   BACKBONE|DICT|INTERRES
   205  104  105 1    
   206  104  225 1    
   207  105  106 1    
   208  105  107 1    
   209  105  226 1    
   210  106  227 1    
   211  106  228 1    
   212  106  229 1    
   213  107  108 2    
   214  107  109 am   BACKBONE|DICT|INTERRES
   215  109  110 1    
   216  109  230 1    
   217  110  111 1    
   218  110  112 1    
   219  110  231 1    
   220  111  232 1    
   221  111  233 1    
   222  111  234 1    
   223  112  113 2    
   224  112  114 am   BACKBONE|DICT|INTERRES
   225  114  115 1    
   226  114  235 1    
   227  115  116 1    
   228  115  117 1    
   229  115  236 1    
   230  116  237 1    
   231  116  238 1    
   232  116  239 1    
   233  117  118 2    
   234  117  119 am   BACKBONE|DICT|INTERRES
   235  119  120 1    
   236  119  240 1    
   237  120  121 1    
   238  120  124 1    
   239  120  241 1    
   240  121  122 am   BACKBONE|DICT|INTERRES
   241  121  123 2    
   242  122  242 1    
   243  122  243 1    
   244  124  125 1    
   245  124  244 1    
   246  124  245 1    
   247  125  126 1    
   248  126  246 1    
   249  126  247 1    
@<TRIPOS>SUBSTRUCTURE
     1 UNK         1 GROUP             0       ****    0 ROOT    
