@<TRIPOS>MOLECULE
3R540
247   249    1
SMALL
USER_CHARGES


@<TRIPOS>ATOM
      1 CA          4.5986  -10.3692  -47.7779 C.3       0 UNK        -0.1800 
      2 C           3.6337  -11.1232  -46.8756 C.2       0 UNK         0.5000 
      3 O           3.8722  -11.2177  -45.6720 O.2       0 UNK        -0.5000 
      4 N           2.5375  -11.6409  -47.4467 N.am      1 UNK        -0.5000 
      5 CA          1.5064  -12.4536  -46.7812 C.3       1 UNK         0.1400 
      6 C6          0.4165  -12.9164  -47.7806 C.3       23 UNK        -0.0398 
      7 S7          1.0690  -13.9806  -49.1143 S.3       23 UNK        -0.2404 
      8 C8         -0.0893  -15.3793  -49.0160 C.3       23 UNK        -0.0205 
      9 C9          0.2073  -16.4467  -50.0550 C.ar      23 UNK        -0.0193 
     10 C10        -0.5131  -16.4807  -51.2522 C.ar      23 UNK        -0.1150 
     11 C11        -0.2731  -17.4838  -52.1954 C.ar      23 UNK        -0.0193 
     12 C12         0.7026  -18.4504  -51.9382 C.ar      23 UNK        -0.1150 
     13 C13         1.4205  -18.4338  -50.7394 C.ar      23 UNK        -0.0193 
     14 C14         1.1734  -17.4256  -49.8028 C.ar      23 UNK        -0.1150 
     15 C15         2.4510  -19.5160  -50.4586 C.3       23 UNK        -0.0205 
     16 S16         1.6616  -21.0887  -49.9912 S.3       23 UNK        -0.2404 
     17 C17         1.0795  -20.7024  -48.3073 C.3       23 UNK        -0.0398 
     18 CA          0.3810  -21.9080  -47.6331 C.3       11 UNK         0.1400 
     19 N           0.4719  -21.8496  -46.1726 N.am      11 UNK        -0.5000 
     20 C           0.1475  -22.8534  -45.3464 C.2       10 UNK         0.5000 
     21 O          -0.2413  -23.9555  -45.7317 O.2       10 UNK        -0.5000 
     22 CA          0.2277  -22.5663  -43.8358 C.3       10 UNK         0.1400 
     23 CB          1.6760  -22.6623  -43.3341 C.3       10 UNK        -0.1800 
     24 N          -0.3366  -21.2642  -43.4772 N.am      10 UNK        -0.5000 
     25 C          -1.6245  -20.9295  -43.6443 C.2       9 UNK         0.5000 
     26 O          -2.4787  -21.6974  -44.0858 O.2       9 UNK        -0.5000 
     27 CA         -2.0180  -19.4806  -43.3084 C.3       9 UNK         0.1400 
     28 CB         -2.1856  -19.2961  -41.7930 C.3       9 UNK        -0.1800 
     29 N          -1.0603  -18.5020  -43.8222 N.am      9 UNK        -0.5000 
     30 C          -0.7761  -18.3232  -45.1205 C.2       8 UNK         0.5000 
     31 O          -1.3156  -18.9431  -46.0365 O.2       8 UNK        -0.5000 
     32 CA          0.3436  -17.3227  -45.4477 C.3       8 UNK         0.1400 
     33 CB         -0.1531  -15.8785  -45.2902 C.3       8 UNK        -0.1800 
     34 N           1.5329  -17.5257  -44.6232 N.am      8 UNK        -0.5000 
     35 C           2.2551  -18.6542  -44.5825 C.2       7 UNK         0.5000 
     36 O           2.0301  -19.6379  -45.2847 O.2       7 UNK        -0.5000 
     37 CA          3.3856  -18.7137  -43.5440 C.3       7 UNK         0.1400 
     38 CB          4.6521  -18.0283  -44.0758 C.3       7 UNK        -0.1800 
     39 N           2.9832  -18.1076  -42.2752 N.am      7 UNK        -0.5000 
     40 C           2.0747  -18.6376  -41.4435 C.2       6 UNK         0.5000 
     41 O           1.5097  -19.7136  -41.6421 O.2       6 UNK        -0.5000 
     42 CA          1.7084  -17.8012  -40.2042 C.3       6 UNK         0.1400 
     43 CB          2.7523  -17.9873  -39.0931 C.3       6 UNK        -0.1800 
     44 N           1.5732  -16.3763  -40.5132 N.am      6 UNK        -0.5000 
     45 C           0.5983  -15.8624  -41.2761 C.2       5 UNK         0.5000 
     46 O          -0.3066  -16.5357  -41.7688 O.2       5 UNK        -0.5000 
     47 CA          0.6659  -14.3519  -41.5696 C.3       5 UNK         0.1400 
     48 CB         -0.0404  -13.5509  -40.4665 C.3       5 UNK        -0.1800 
     49 N           2.0266  -13.8375  -41.7411 N.am      5 UNK        -0.5000 
     50 C           2.8932  -14.2339  -42.6822 C.2       4 UNK         0.5000 
     51 O           2.6718  -15.1615  -43.4618 O.2       4 UNK        -0.5000 
     52 CA          4.2164  -13.4481  -42.7630 C.3       4 UNK         0.1400 
     53 CB          5.1341  -13.9392  -43.8963 C.3       4 UNK        -0.1800 
     54 N           3.9630  -12.0228  -42.9589 N.am      4 UNK        -0.5000 
     55 C           3.7119  -11.1335  -41.9907 C.2       3 UNK         0.5000 
     56 O           3.6450  -11.4271  -40.7964 O.2       3 UNK        -0.5000 
     57 CA          3.4517   -9.6895  -42.4422 C.3       3 UNK         0.1400 
     58 CB          4.7445   -9.0263  -42.9447 C.3       3 UNK        -0.1800 
     59 N           2.4467   -9.6622  -43.5024 N.am      3 UNK        -0.5000 
     60 C           1.1295   -9.5305  -43.2954 C.2       2 UNK         0.5000 
     61 O           0.6241   -9.3647  -42.1846 O.2       2 UNK        -0.5000 
     62 CA          0.2170   -9.5871  -44.5364 C.3       2 UNK         0.1400 
     63 CB         -0.0437   -8.1725  -45.0761 C.3       2 UNK        -0.1800 
     64 N           0.7612  -10.4146  -45.6139 N.am      2 UNK        -0.5000 
     65 C           0.8379  -11.7524  -45.5769 C.2       1 UNK         0.5000 
     66 O           0.4100  -12.4310  -44.6440 O.2       1 UNK        -0.5000 
     67 C          -1.0776  -22.0728  -48.1095 C.2       11 UNK         0.5000 
     68 O          -1.3443  -22.9197  -48.9619 O.2       11 UNK        -0.5000 
     69 N          -2.0053  -21.3087  -47.5129 N.am      12 UNK        -0.5000 
     70 CA         -3.4418  -21.4048  -47.7733 C.3       12 UNK         0.1400 
     71 CB         -4.1826  -20.2627  -47.0644 C.3       12 UNK        -0.1800 
     72 C          -4.0307  -22.7688  -47.3735 C.2       12 UNK         0.5000 
     73 O          -4.8548  -23.3057  -48.1144 O.2       12 UNK        -0.5000 
     74 N          -3.5803  -23.3208  -46.2382 N.am      13 UNK        -0.5000 
     75 CA         -3.9352  -24.6611  -45.7731 C.3       13 UNK         0.1400 
     76 CB         -3.4368  -24.8679  -44.3351 C.3       13 UNK        -0.1800 
     77 C          -3.4051  -25.7632  -46.7073 C.2       13 UNK         0.5000 
     78 O          -4.1634  -26.6658  -47.0609 O.2       13 UNK        -0.5000 
     79 N          -2.1388  -25.6459  -47.1337 N.am      14 UNK        -0.5000 
     80 CA         -1.4887  -26.5503  -48.0883 C.3       14 UNK         0.1400 
     81 CB          0.0041  -26.2030  -48.1907 C.3       14 UNK        -0.1800 
     82 C          -2.1479  -26.5400  -49.4817 C.2       14 UNK         0.5000 
     83 O          -2.2355  -27.5882  -50.1218 O.2       14 UNK        -0.5000 
     84 N          -2.6385  -25.3674  -49.9038 N.am      15 UNK        -0.5000 
     85 CA         -3.4245  -25.1646  -51.1226 C.3       15 UNK         0.1400 
     86 CB         -3.4152  -23.6669  -51.4662 C.3       15 UNK        -0.1800 
     87 C          -4.8722  -25.6987  -51.0325 C.2       15 UNK         0.5000 
     88 O          -5.5490  -25.7410  -52.0587 O.2       15 UNK        -0.5000 
     89 N          -5.3087  -26.1085  -49.8308 N.am      16 UNK        -0.5000 
     90 CA         -6.6442  -26.5919  -49.4708 C.3       16 UNK         0.1400 
     91 CB         -7.0521  -27.8329  -50.2942 C.3       16 UNK        -0.1800 
     92 C          -7.6837  -25.4556  -49.4987 C.2       16 UNK         0.5000 
     93 O          -8.6417  -25.5013  -50.2722 O.2       16 UNK        -0.5000 
     94 N          -7.4580  -24.4661  -48.6227 N.am      17 UNK        -0.5000 
     95 CA         -8.2363  -23.2408  -48.4161 C.3       17 UNK         0.1400 
     96 CB         -9.7146  -23.5380  -48.0832 C.3       17 UNK        -0.1800 
     97 C          -8.0422  -22.2422  -49.5719 C.2       17 UNK         0.5000 
     98 O          -9.0167  -21.7390  -50.1350 O.2       17 UNK        -0.5000 
     99 N          -6.7646  -21.9728  -49.8770 N.am      18 UNK        -0.5000 
    100 CA        -6.2651  -21.0942  -50.9402 C.3       18 UNK         0.1400 
    101 CB        -6.7027  -19.6323  -50.7001 C.3       18 UNK        -0.1800 
    102 C         -6.5987  -21.6154  -52.3561 C.2       18 UNK         0.5000 
    103 O         -6.9354  -22.7898  -52.5149 O.2       18 UNK        -0.5000 
    104 N         -6.4426  -20.7457  -53.3660 N.am      19 UNK        -0.5000 
    105 CA        -6.4707  -21.0618  -54.8000 C.3       19 UNK         0.1400 
    106 CB        -7.8777  -21.5187  -55.2486 C.3       19 UNK        -0.1800 
    107 C         -5.3301  -22.0381  -55.1672 C.2       19 UNK         0.5000 
    108 O         -4.2316  -21.8918  -54.6251 O.2       19 UNK        -0.5000 
    109 N         -5.5935  -22.9962  -56.0686 N.am      20 UNK        -0.5000 
    110 CA        -4.6824  -24.0421  -56.5477 C.3       20 UNK         0.1400 
    111 CB        -4.3959  -25.0688  -55.4289 C.3       20 UNK        -0.1800 
    112 C         -3.4050  -23.4555  -57.1826 C.2       20 UNK         0.5000 
    113 O         -3.4172  -23.1240  -58.3689 O.2       20 UNK        -0.5000 
    114 N         -2.3392  -23.3233  -56.3820 N.am      21 UNK        -0.5000 
    115 CA        -1.0860  -22.6660  -56.7494 C.3       21 UNK         0.1400 
    116 CB        -0.0227  -22.9956  -55.6901 C.3       21 UNK        -0.1800 
    117 C         -1.2314  -21.1393  -56.9081 C.2       21 UNK         0.5000 
    118 O         -0.4982  -20.5459  -57.7006 O.2       21 UNK        -0.5000 
    119 N         -2.1625  -20.5321  -56.1610 N.am      22 UNK        -0.5000 
    120 CA        -2.5028  -19.1074  -56.2538 C.3       22 UNK         0.1400 
    121 C         -3.3784  -18.8288  -57.5042 C.2       22 UNK         0.5000 
    122 N         -2.9907  -17.8855  -58.3515 N.am      22 UNK        -0.7600 
    123 O         -4.4326  -19.4340  -57.6863 O.2       22 UNK        -0.5000 
    124 C124       -3.2121  -18.5842  -54.9783 C.3       23 UNK        -0.0398 
    125 S125       -2.2901  -18.8920  -53.4363 S.3       23 UNK        -0.2404 
    126 C126       -1.0773  -17.5371  -53.4836 C.3       23 UNK        -0.0205 
    127 H127        4.7041   -9.3399  -47.4356 H         1 UNK         0.0600 
    128 H128        4.2570  -10.3517  -48.8131 H         1 UNK         0.0600 
    129 H129        5.5807  -10.8410  -47.7508 H         1 UNK         0.0600 
    130 H130        2.4115  -11.5298  -48.4430 H         1 UNK         0.3000 
    131 H131        2.0096  -13.3384  -46.3854 H         1 UNK         0.0600 
    132 H132       -0.3734  -13.4562  -47.2547 H         1 UNK         0.0800 
    133 H133       -0.0695  -12.0546  -48.2415 H         1 UNK         0.0800 
    134 H134       -0.0326  -15.8239  -48.0260 H         1 UNK         0.0800 
    135 H135       -1.1109  -15.0136  -49.1325 H         1 UNK         0.0800 
    136 H136       -1.2700  -15.7329  -51.4436 H         1 UNK         0.1150 
    137 H137        0.8835  -19.2338  -52.6611 H         1 UNK         0.1150 
    138 H138        1.7242  -17.4077  -48.8728 H         1 UNK         0.1150 
    139 H139        3.0557  -19.6771  -51.3522 H         1 UNK         0.0800 
    140 H140        3.1426  -19.2031  -49.6747 H         1 UNK         0.0800 
    141 H141        0.4335  -19.8227  -48.3209 H         1 UNK         0.0800 
    142 H142        1.9644  -20.4190  -47.7376 H         1 UNK         0.0800 
    143 H143        0.9176  -22.8129  -47.9272 H         1 UNK         0.0600 
    144 H144        0.8305  -20.9847  -45.7747 H         1 UNK         0.3000 
    145 H145       -0.3573  -23.3326  -43.3231 H         1 UNK         0.0600 
    146 H146        1.7276  -22.5322  -42.2530 H         1 UNK         0.0600 
    147 H147        2.1050  -23.6380  -43.5656 H         1 UNK         0.0600 
    148 H148        2.3138  -21.9063  -43.7919 H         1 UNK         0.0600 
    149 H149        0.3001  -20.5855  -43.0731 H         1 UNK         0.3000 
    150 H150       -2.9810  -19.2813  -43.7828 H         1 UNK         0.0600 
    151 H151       -2.9018  -20.0123  -41.3884 H         1 UNK         0.0600 
    152 H152       -2.5550  -18.2980  -41.5571 H         1 UNK         0.0600 
    153 H153       -1.2433  -19.4365  -41.2626 H         1 UNK         0.0600 
    154 H154       -0.5965  -17.9171  -43.1331 H         1 UNK         0.3000 
    155 H155        0.6359  -17.4804  -46.4872 H         1 UNK         0.0600 
    156 H156       -0.4340  -15.6563  -44.2625 H         1 UNK         0.0600 
    157 H157       -1.0320  -15.6929  -45.9082 H         1 UNK         0.0600 
    158 H158        0.6167  -15.1662  -45.5835 H         1 UNK         0.0600 
    159 H159        1.8309  -16.7394  -44.0508 H         1 UNK         0.3000 
    160 H160        3.6209  -19.7639  -43.3594 H         1 UNK         0.0600 
    161 H161        4.4631  -16.9912  -44.3504 H         1 UNK         0.0600 
    162 H162        5.0207  -18.5372  -44.9673 H         1 UNK         0.0600 
    163 H163        5.4535  -18.0435  -43.3371 H         1 UNK         0.0600 
    164 H164        3.3537  -17.1915  -42.0713 H         1 UNK         0.3000 
    165 H165        0.7470  -18.1621  -39.8320 H         1 UNK         0.0600 
    166 H166        2.4596  -17.4595  -38.1853 H         1 UNK         0.0600 
    167 H167        2.8616  -19.0413  -38.8340 H         1 UNK         0.0600 
    168 H168        3.7341  -17.6195  -39.3939 H         1 UNK         0.0600 
    169 H169        2.2788  -15.7545  -40.1470 H         1 UNK         0.3000 
    170 H170        0.1327  -14.1761  -42.5052 H         1 UNK         0.0600 
    171 H171       -1.0666  -13.8947  -40.3300 H         1 UNK         0.0600 
    172 H172        0.4704  -13.6483  -39.5077 H         1 UNK         0.0600 
    173 H173       -0.0844  -12.4908  -40.7180 H         1 UNK         0.0600 
    174 H174        2.2992  -13.0593  -41.1525 H         1 UNK         0.3000 
    175 H175        4.7451  -13.5951  -41.8190 H         1 UNK         0.0600 
    176 H176        4.6392  -13.8898  -44.8673 H         1 UNK         0.0600 
    177 H177        6.0428  -13.3399  -43.9551 H         1 UNK         0.0600 
    178 H178        5.4410  -14.9713  -43.7296 H         1 UNK         0.0600 
    179 H179        3.9528  -11.7062  -43.9268 H         1 UNK         0.3000 
    180 H180        3.0995   -9.1216  -41.5783 H         1 UNK         0.0600 
    181 H181        5.1502   -9.5332  -43.8211 H         1 UNK         0.0600 
    182 H182        5.5144   -9.0389  -42.1722 H         1 UNK         0.0600 
    183 H183        4.5710   -7.9843  -43.2136 H         1 UNK         0.0600 
    184 H184        2.7742   -9.8689  -44.4378 H         1 UNK         0.3000 
    185 H185       -0.7386  -10.0142  -44.2244 H         1 UNK         0.0600 
    186 H186       -0.4748   -7.5335  -44.3043 H         1 UNK         0.0600 
    187 H187        0.8754   -7.6968  -45.4205 H         1 UNK         0.0600 
    188 H188       -0.7459   -8.1913  -45.9098 H         1 UNK         0.0600 
    189 H189        1.1353   -9.9320  -46.4180 H         1 UNK         0.3000 
    190 H190       -1.7114  -20.6033  -46.8412 H         1 UNK         0.3000 
    191 H191       -3.5892  -21.2846  -48.8481 H         1 UNK         0.0600 
    192 H192       -3.8275  -19.2910  -47.4080 H         1 UNK         0.0600 
    193 H193       -5.2539  -20.3072  -47.2652 H         1 UNK         0.0600 
    194 H194       -4.0467  -20.3047  -45.9833 H         1 UNK         0.0600 
    195 H195       -2.9526  -22.7847  -45.6460 H         1 UNK         0.3000 
    196 H196       -5.0249  -24.7318  -45.7626 H         1 UNK         0.0600 
    197 H197       -3.7080  -25.8578  -43.9664 H         1 UNK         0.0600 
    198 H198       -3.8779  -24.1365  -43.6577 H         1 UNK         0.0600 
    199 H199       -2.3532  -24.7764  -44.2642 H         1 UNK         0.0600 
    200 H200       -1.5649  -24.8935  -46.7613 H         1 UNK         0.3000 
    201 H201       -1.5742  -27.5642  -47.6922 H         1 UNK         0.0600 
    202 H202        0.4953  -26.2852  -47.2210 H         1 UNK         0.0600 
    203 H203        0.1569  -25.1879  -48.5577 H         1 UNK         0.0600 
    204 H204        0.5174  -26.8804  -48.8741 H         1 UNK         0.0600 
    205 H205       -2.4425  -24.5377  -49.3516 H         1 UNK         0.3000 
    206 H206       -2.9364  -25.7006  -51.9390 H         1 UNK         0.0600 
    207 H207       -2.4027  -23.3105  -51.6561 H         1 UNK         0.0600 
    208 H208       -4.0050  -23.4612  -52.3598 H         1 UNK         0.0600 
    209 H209       -3.8311  -23.0727  -50.6541 H         1 UNK         0.0600 
    210 H210       -4.6611  -26.0443  -49.0549 H         1 UNK         0.3000 
    211 H211       -6.5741  -26.9163  -48.4315 H         1 UNK         0.0600 
    212 H212       -7.2132  -27.5979  -51.3462 H         1 UNK         0.0600 
    213 H213       -7.9816  -28.2577  -49.9139 H         1 UNK         0.0600 
    214 H214       -6.2911  -28.6111  -50.2362 H         1 UNK         0.0600 
    215 H215       -6.5774  -24.4858  -48.1213 H         1 UNK         0.3000 
    216 H216       -7.8050  -22.7634  -47.5349 H         1 UNK         0.0600 
    217 H217      -10.2317  -22.6271  -47.7796 H         1 UNK         0.0600 
    218 H218       -9.7992  -24.2485  -47.2611 H         1 UNK         0.0600 
    219 H219      -10.2555  -23.9449  -48.9376 H         1 UNK         0.0600 
    220 H220       -6.0543  -22.4889  -49.3660 H         1 UNK         0.3000 
    221 H221       -5.1782  -21.1220  -50.8605 H         1 UNK         0.0600 
    222 H222       -7.7635  -19.4864  -50.9062 H         1 UNK         0.0600 
    223 H223       -6.5191  -19.3324  -49.6682 H         1 UNK         0.0600 
    224 H224       -6.1462  -18.9406  -51.3330 H         1 UNK         0.0600 
    225 H225       -6.1368  -19.8111  -53.1380 H         1 UNK         0.3000 
    226 H226       -6.2525  -20.1308  -55.3242 H         1 UNK         0.0600 
    227 H227       -8.6407  -20.8173  -54.9108 H         1 UNK         0.0600 
    228 H228       -7.9492  -21.5652  -56.3358 H         1 UNK         0.0600 
    229 H229       -8.1370  -22.5024  -54.8560 H         1 UNK         0.0600 
    230 H230       -6.5178  -23.0131  -56.4752 H         1 UNK         0.3000 
    231 H231       -5.2082  -24.5696  -57.3451 H         1 UNK         0.0600 
    232 H232       -3.9435  -24.6141  -54.5477 H         1 UNK         0.0600 
    233 H233       -3.7234  -25.8529  -55.7789 H         1 UNK         0.0600 
    234 H234       -5.3160  -25.5549  -55.1041 H         1 UNK         0.0600 
    235 H235       -2.4487  -23.5728  -55.4096 H         1 UNK         0.3000 
    236 H236       -0.7545  -23.0712  -57.7078 H         1 UNK         0.0600 
    237 H237        0.1378  -24.0710  -55.6125 H         1 UNK         0.0600 
    238 H238        0.9359  -22.5419  -55.9450 H         1 UNK         0.0600 
    239 H239       -0.3091  -22.6258  -54.7044 H         1 UNK         0.0600 
    240 H240       -2.7560  -21.0919  -55.5549 H         1 UNK         0.3000 
    241 H241       -1.5700  -18.5497  -56.3574 H         1 UNK         0.0600 
    242 H242       -2.1285  -17.3784  -58.2220 H         1 UNK         0.3800 
    243 H243       -3.5624  -17.6878  -59.1583 H         1 UNK         0.3800 
    244 H244       -3.4056  -17.5133  -55.0616 H         1 UNK         0.0800 
    245 H245       -4.1883  -19.0550  -54.8678 H         1 UNK         0.0800 
    246 H246       -1.5925  -16.5899  -53.6510 H         1 UNK         0.0800 
    247 H247       -0.4020  -17.6798  -54.3284 H         1 UNK         0.0800 
@<TRIPOS>BOND
     1    1    2 1    
     2    1  127 1    
     3    1  128 1    
     4    1  129 1    
     5    2    3 2    
     6    2    4 am   BACKBONE|DICT|INTERRES
     7    4    5 1    
     8    4  130 1    
     9    5    6 1    
    10    5   65 1    
    11    5  131 1    
    12    6    7 1    
    13    6  132 1    
    14    6  133 1    
    15    7    8 1    
    16    8    9 1    
    17    8  134 1    
    18    8  135 1    
    19    9   10 ar   
    20    9   14 ar   
    21   10   11 ar   
    22   10  136 1    
    23   11   12 ar   
    24   11  126 1    
    25   12   13 ar   
    26   12  137 1    
    27   13   14 ar   
    28   13   15 1    
    29   14  138 1    
    30   15   16 1    
    31   15  139 1    
    32   15  140 1    
    33   16   17 1    
    34   17   18 1    
    35   17  141 1    
    36   17  142 1    
    37   18   19 1    
    38   18   67 1    
    39   18  143 1    
    40   19   20 am   BACKBONE|DICT|INTERRES
    41   19  144 1    
    42   20   21 2    
    43   20   22 1    
    44   22   23 1    
    45   22   24 1    
    46   22  145 1    
    47   23  146 1    
    48   23  147 1    
    49   23  148 1    
    50   24   25 am   BACKBONE|DICT|INTERRES
    51   24  149 1    
    52   25   26 2    
    53   25   27 1    
    54   27   28 1    
    55   27   29 1    
    56   27  150 1    
    57   28  151 1    
    58   28  152 1    
    59   28  153 1    
    60   29   30 am   BACKBONE|DICT|INTERRES
    61   29  154 1    
    62   30   31 2    
    63   30   32 1    
    64   32   33 1    
    65   32   34 1    
    66   32  155 1    
    67   33  156 1    
    68   33  157 1    
    69   33  158 1    
    70   34   35 am   BACKBONE|DICT|INTERRES
    71   34  159 1    
    72   35   36 2    
    73   35   37 1    
    74   37   38 1    
    75   37   39 1    
    76   37  160 1    
    77   38  161 1    
    78   38  162 1    
    79   38  163 1    
    80   39   40 am   BACKBONE|DICT|INTERRES
    81   39  164 1    
    82   40   41 2    
    83   40   42 1    
    84   42   43 1    
    85   42   44 1    
    86   42  165 1    
    87   43  166 1    
    88   43  167 1    
    89   43  168 1    
    90   44   45 am   BACKBONE|DICT|INTERRES
    91   44  169 1    
    92   45   46 2    
    93   45   47 1    
    94   47   48 1    
    95   47   49 1    
    96   47  170 1    
    97   48  171 1    
    98   48  172 1    
    99   48  173 1    
   100   49   50 am   BACKBONE|DICT|INTERRES
   101   49  174 1    
   102   50   51 2    
   103   50   52 1    
   104   52   53 1    
   105   52   54 1    
   106   52  175 1    
   107   53  176 1    
   108   53  177 1    
   109   53  178 1    
   110   54   55 am   BACKBONE|DICT|INTERRES
   111   54  179 1    
   112   55   56 2    
   113   55   57 1    
   114   57   58 1    
   115   57   59 1    
   116   57  180 1    
   117   58  181 1    
   118   58  182 1    
   119   58  183 1    
   120   59   60 am   BACKBONE|DICT|INTERRES
   121   59  184 1    
   122   60   61 2    
   123   60   62 1    
   124   62   63 1    
   125   62   64 1    
   126   62  185 1    
   127   63  186 1    
   128   63  187 1    
   129   63  188 1    
   130   64   65 am   BACKBONE|DICT|INTERRES
   131   64  189 1    
   132   65   66 2    
   133   67   68 2    
   134   67   69 am   BACKBONE|DICT|INTERRES
   135   69   70 1    
   136   69  190 1    
   137   70   71 1    
   138   70   72 1    
   139   70  191 1    
   140   71  192 1    
   141   71  193 1    
   142   71  194 1    
   143   72   73 2    
   144   72   74 am   BACKBONE|DICT|INTERRES
   145   74   75 1    
   146   74  195 1    
   147   75   76 1    
   148   75   77 1    
   149   75  196 1    
   150   76  197 1    
   151   76  198 1    
   152   76  199 1    
   153   77   78 2    
   154   77   79 am   BACKBONE|DICT|INTERRES
   155   79   80 1    
   156   79  200 1    
   157   80   81 1    
   158   80   82 1    
   159   80  201 1    
   160   81  202 1    
   161   81  203 1    
   162   81  204 1    
   163   82   83 2    
   164   82   84 am   BACKBONE|DICT|INTERRES
   165   84   85 1    
   166   84  205 1    
   167   85   86 1    
   168   85   87 1    
   169   85  206 1    
   170   86  207 1    
   171   86  208 1    
   172   86  209 1    
   173   87   88 2    
   174   87   89 am   BACKBONE|DICT|INTERRES
   175   89   90 1    
   176   89  210 1    
   177   90   91 1    
   178   90   92 1    
   179   90  211 1    
   180   91  212 1    
   181   91  213 1    
   182   91  214 1    
   183   92   93 2    
   184   92   94 am   BACKBONE|DICT|INTERRES
   185   94   95 1    
   186   94  215 1    
   187   95   96 1    
   188   95   97 1    
   189   95  216 1    
   190   96  217 1    
   191   96  218 1    
   192   96  219 1    
   193   97   98 2    
   194   97   99 am   BACKBONE|DICT|INTERRES
   195   99  100 1    
   196   99  220 1    
   197  100  101 1    
   198  100  102 1    
   199  100  221 1    
   200  101  222 1    
   201  101  223 1    
   202  101  224 1    
   203  102  103 2    
   204  102  104 am   BACKBONE|DICT|INTERRES
   205  104  105 1    
   206  104  225 1    
   207  105  106 1    
   208  105  107 1    
   209  105  226 1    
   210  106  227 1    
   211  106  228 1    
   212  106  229 1    
   213  107  108 2    
   214  107  109 am   BACKBONE|DICT|INTERRES
   215  109  110 1    
   216  109  230 1    
   217  110  111 1    
   218  110  112 1    
   219  110  231 1    
   220  111  232 1    
   221  111  233 1    
   222  111  234 1    
   223  112  113 2    
   224  112  114 am   BACKBONE|DICT|INTERRES
   225  114  115 1    
   226  114  235 1    
   227  115  116 1    
   228  115  117 1    
   229  115  236 1    
   230  116  237 1    
   231  116  238 1    
   232  116  239 1    
   233  117  118 2    
   234  117  119 am   BACKBONE|DICT|INTERRES
   235  119  120 1    
   236  119  240 1    
   237  120  121 1    
   238  120  124 1    
   239  120  241 1    
   240  121  122 am   BACKBONE|DICT|INTERRES
   241  121  123 2    
   242  122  242 1    
   243  122  243 1    
   244  124  125 1    
   245  124  244 1    
   246  124  245 1    
   247  125  126 1    
   248  126  246 1    
   249  126  247 1    
@<TRIPOS>SUBSTRUCTURE
     1 UNK         1 GROUP             0       ****    0 ROOT    
