@<TRIPOS>MOLECULE
3R540
247   249    1
SMALL
USER_CHARGES


@<TRIPOS>ATOM
      1 CA          4.0975  -16.7767  -46.1619 C.3       0 UNK        -0.1800 
      2 C           3.8550  -15.3005  -45.8885 C.2       0 UNK         0.5000 
      3 O           4.0784  -14.8418  -44.7696 O.2       0 UNK        -0.5000 
      4 N           3.4314  -14.5494  -46.9143 N.am      1 UNK        -0.5000 
      5 CA          3.0797  -13.1196  -46.8647 C.3       1 UNK         0.1400 
      6 C6          2.5832  -12.6002  -48.2375 C.3       23 UNK        -0.0398 
      7 S7          1.0998  -13.4846  -48.8186 S.3       23 UNK        -0.2404 
      8 C8          1.7759  -14.6028  -50.0900 C.3       23 UNK        -0.0205 
      9 C9          1.0415  -15.9353  -50.0834 C.ar      23 UNK        -0.0193 
     10 C10        -0.3066  -15.9923  -50.4472 C.ar      23 UNK        -0.1150 
     11 C11        -1.0137  -17.1970  -50.3949 C.ar      23 UNK        -0.0193 
     12 C12        -0.3481  -18.3587  -49.9882 C.ar      23 UNK        -0.1150 
     13 C13         1.0050  -18.3207  -49.6376 C.ar      23 UNK        -0.0193 
     14 C14         1.6958  -17.1065  -49.6905 C.ar      23 UNK        -0.1150 
     15 C15         1.7114  -19.5859  -49.1760 C.3       23 UNK        -0.0205 
     16 S16         1.9104  -19.5812  -47.3692 S.3       23 UNK        -0.2404 
     17 C17         2.1437  -21.3443  -46.9910 C.3       23 UNK        -0.0398 
     18 CA          0.8811  -22.0771  -46.4727 C.3       11 UNK         0.1400 
     19 N           0.3252  -21.5428  -45.2230 N.am      11 UNK        -0.5000 
     20 C          -0.4940  -22.2571  -44.4338 C.2       10 UNK         0.5000 
     21 O          -0.8248  -23.4184  -44.6778 O.2       10 UNK        -0.5000 
     22 CA         -1.0779  -21.5658  -43.1894 C.3       10 UNK         0.1400 
     23 CB         -0.0344  -21.4619  -42.0671 C.3       10 UNK        -0.1800 
     24 N          -1.6409  -20.2492  -43.4827 N.am      10 UNK        -0.5000 
     25 C          -2.7020  -20.0414  -44.2755 C.2       9 UNK         0.5000 
     26 O          -3.3282  -20.9463  -44.8279 O.2       9 UNK        -0.5000 
     27 CA         -3.1171  -18.5777  -44.5186 C.3       9 UNK         0.1400 
     28 CB         -3.9998  -18.0602  -43.3735 C.3       9 UNK        -0.1800 
     29 N          -1.9719  -17.6853  -44.6975 N.am      9 UNK        -0.5000 
     30 C          -1.0928  -17.7818  -45.7049 C.2       8 UNK         0.5000 
     31 O          -1.1939  -18.6019  -46.6148 O.2       8 UNK        -0.5000 
     32 CA          0.1265  -16.8431  -45.6508 C.3       8 UNK         0.1400 
     33 CB         -0.2522  -15.4316  -46.1154 C.3       8 UNK        -0.1800 
     34 N           0.7311  -16.7894  -44.3178 N.am      8 UNK        -0.5000 
     35 C           1.2332  -17.8471  -43.6609 C.2       7 UNK         0.5000 
     36 O           1.3070  -18.9808  -44.1329 O.2       7 UNK        -0.5000 
     37 CA          1.6684  -17.6161  -42.2043 C.3       7 UNK         0.1400 
     38 CB          3.0872  -17.0353  -42.1259 C.3       7 UNK        -0.1800 
     39 N           0.7320  -16.7465  -41.4938 N.am      7 UNK        -0.5000 
     40 C          -0.5107  -17.1082  -41.1434 C.2       6 UNK         0.5000 
     41 O          -0.9722  -18.2336  -41.3299 O.2       6 UNK        -0.5000 
     42 CA         -1.3979  -16.0156  -40.5183 C.3       6 UNK         0.1400 
     43 CB         -1.1387  -15.9060  -39.0085 C.3       6 UNK        -0.1800 
     44 N          -1.1915  -14.7073  -41.1413 N.am      6 UNK        -0.5000 
     45 C          -1.5262  -14.4079  -42.4050 C.2       5 UNK         0.5000 
     46 O          -2.1151  -15.1868  -43.1534 O.2       5 UNK        -0.5000 
     47 CA         -1.0826  -13.0275  -42.9324 C.3       5 UNK         0.1400 
     48 CB         -2.1686  -11.9744  -42.6689 C.3       5 UNK        -0.1800 
     49 N           0.1851  -12.5777  -42.3467 N.am      5 UNK        -0.5000 
     50 C           1.3597  -13.1927  -42.5365 C.2       4 UNK         0.5000 
     51 O           1.5042  -14.1611  -43.2834 O.2       4 UNK        -0.5000 
     52 CA          2.5287  -12.7073  -41.6703 C.3       4 UNK         0.1400 
     53 CB          2.3654  -13.2658  -40.2389 C.3       4 UNK        -0.1800 
     54 N           3.8053  -13.1392  -42.2410 N.am      4 UNK        -0.5000 
     55 C           5.0078  -12.7343  -41.8078 C.2       3 UNK         0.5000 
     56 O           5.1677  -11.8919  -40.9231 O.2       3 UNK        -0.5000 
     57 CA          6.2440  -13.3585  -42.4715 C.3       3 UNK         0.1400 
     58 CB          6.3369  -14.8681  -42.1918 C.3       3 UNK        -0.1800 
     59 N           6.2302  -13.1191  -43.9103 N.am      3 UNK        -0.5000 
     60 C           6.8312  -12.0842  -44.5143 C.2       2 UNK         0.5000 
     61 O           7.5054  -11.2431  -43.9181 O.2       2 UNK        -0.5000 
     62 CA          6.6669  -11.9607  -46.0430 C.3       2 UNK         0.1400 
     63 CB          7.8979  -12.5324  -46.7631 C.3       2 UNK        -0.1800 
     64 N           5.4701  -12.6285  -46.5534 N.am      2 UNK        -0.5000 
     65 C           4.2142  -12.2094  -46.3465 C.2       1 UNK         0.5000 
     66 O           3.9321  -11.1620  -45.7632 O.2       1 UNK        -0.5000 
     67 C          -0.1962  -22.2666  -47.5602 C.2       11 UNK         0.5000 
     68 O          -0.1128  -23.2444  -48.3014 O.2       11 UNK        -0.5000 
     69 N          -1.2113  -21.3875  -47.6098 N.am      12 UNK        -0.5000 
     70 CA         -2.3791  -21.5346  -48.4840 C.3       12 UNK         0.1400 
     71 CB         -3.2945  -20.3048  -48.3770 C.3       12 UNK        -0.1800 
     72 C          -3.1787  -22.8139  -48.1844 C.2       12 UNK         0.5000 
     73 O          -3.5510  -23.5217  -49.1167 O.2       12 UNK        -0.5000 
     74 N          -3.4016  -23.1004  -46.8941 N.am      13 UNK        -0.5000 
     75 CA         -4.0784  -24.3092  -46.4246 C.3       13 UNK         0.1400 
     76 CB         -4.4114  -24.1578  -44.9326 C.3       13 UNK        -0.1800 
     77 C          -3.2663  -25.5950  -46.6741 C.2       13 UNK         0.5000 
     78 O          -3.8585  -26.6338  -46.9694 O.2       13 UNK        -0.5000 
     79 N          -1.9352  -25.5092  -46.5426 N.am      14 UNK        -0.5000 
     80 CA         -1.0097  -26.6195  -46.7723 C.3       14 UNK         0.1400 
     81 CB          0.3504  -26.2840  -46.1418 C.3       14 UNK        -0.1800 
     82 C          -0.8398  -26.9714  -48.2630 C.2       14 UNK         0.5000 
     83 O          -0.6850  -28.1489  -48.5918 O.2       14 UNK        -0.5000 
     84 N          -0.8468  -25.9519  -49.1309 N.am      15 UNK        -0.5000 
     85 CA         -0.6966  -26.0761  -50.5800 C.3       15 UNK         0.1400 
     86 CB         -0.4717  -24.6756  -51.1743 C.3       15 UNK        -0.1800 
     87 C          -1.9000  -26.7514  -51.2648 C.2       15 UNK         0.5000 
     88 O          -3.0183  -26.7260  -50.7452 O.2       15 UNK        -0.5000 
     89 N          -1.6486  -27.2988  -52.4610 N.am      16 UNK        -0.5000 
     90 CA         -2.6780  -27.7532  -53.3963 C.3       16 UNK         0.1400 
     91 CB         -2.0116  -28.5760  -54.5096 C.3       16 UNK        -0.1800 
     92 C          -3.4433  -26.5556  -53.9920 C.2       16 UNK         0.5000 
     93 O          -2.8885  -25.4566  -54.0756 O.2       16 UNK        -0.5000 
     94 N          -4.7058  -26.7845  -54.3793 N.am      17 UNK        -0.5000 
     95 CA         -5.6901  -25.8246  -54.9099 C.3       17 UNK         0.1400 
     96 CB         -5.1835  -25.1403  -56.1949 C.3       17 UNK        -0.1800 
     97 C          -6.1914  -24.7894  -53.8796 C.2       17 UNK         0.5000 
     98 O          -7.3816  -24.4708  -53.8813 O.2       17 UNK        -0.5000 
     99 N          -5.2968  -24.3139  -53.0032 N.am      18 UNK        -0.5000 
    100 CA        -5.5315  -23.4261  -51.8643 C.3       18 UNK         0.1400 
    101 CB        -6.2650  -24.1932  -50.7409 C.3       18 UNK        -0.1800 
    102 C         -6.2276  -22.1215  -52.2925 C.2       18 UNK         0.5000 
    103 O         -5.6258  -21.3295  -53.0188 O.2       18 UNK        -0.5000 
    104 N         -7.4896  -21.9355  -51.8841 N.am      19 UNK        -0.5000 
    105 CA        -8.3354  -20.7907  -52.2242 C.3       19 UNK         0.1400 
    106 CB        -9.6752  -20.9216  -51.4853 C.3       19 UNK        -0.1800 
    107 C         -8.5701  -20.6036  -53.7362 C.2       19 UNK         0.5000 
    108 O         -8.7704  -19.4703  -54.1710 O.2       19 UNK        -0.5000 
    109 N         -8.5032  -21.6891  -54.5216 N.am      20 UNK        -0.5000 
    110 CA        -8.6036  -21.6349  -55.9823 C.3       20 UNK         0.1400 
    111 CB        -8.9129  -23.0356  -56.5312 C.3       20 UNK        -0.1800 
    112 C         -7.3491  -21.0383  -56.6545 C.2       20 UNK         0.5000 
    113 O         -7.4523  -20.5510  -57.7810 O.2       20 UNK        -0.5000 
    114 N         -6.2021  -21.0690  -55.9608 N.am      21 UNK        -0.5000 
    115 CA        -4.9586  -20.4305  -56.3893 C.3       21 UNK         0.1400 
    116 CB        -3.7663  -21.3295  -56.0245 C.3       21 UNK        -0.1800 
    117 C         -4.8105  -19.0371  -55.7552 C.2       21 UNK         0.5000 
    118 O         -4.4878  -18.0809  -56.4614 O.2       21 UNK        -0.5000 
    119 N         -5.0466  -18.9479  -54.4400 N.am      22 UNK        -0.5000 
    120 CA        -4.9313  -17.7138  -53.6469 C.3       22 UNK         0.1400 
    121 C         -6.0665  -16.6740  -53.8754 C.2       22 UNK         0.5000 
    122 N         -7.2393  -17.0464  -54.3697 N.am      22 UNK        -0.7600 
    123 O         -5.8718  -15.4919  -53.6059 O.2       22 UNK        -0.5000 
    124 C124       -4.7562  -18.0314  -52.1391 C.3       23 UNK        -0.0398 
    125 S125       -3.0577  -18.5869  -51.7577 S.3       23 UNK        -0.2404 
    126 C126       -2.5060  -17.1976  -50.7111 C.3       23 UNK        -0.0205 
    127 H127        3.5001  -17.3879  -45.4871 H         1 UNK         0.0600 
    128 H128        5.1474  -17.0197  -46.0005 H         1 UNK         0.0600 
    129 H129        3.8367  -17.0488  -47.1843 H         1 UNK         0.0600 
    130 H130        3.2584  -14.9972  -47.8010 H         1 UNK         0.3000 
    131 H131        2.2618  -13.0236  -46.1475 H         1 UNK         0.0600 
    132 H132        2.3149  -11.5442  -48.1680 H         1 UNK         0.0800 
    133 H133        3.3722  -12.6600  -48.9892 H         1 UNK         0.0800 
    134 H134        1.6765  -14.1344  -51.0702 H         1 UNK         0.0800 
    135 H135        2.8433  -14.7601  -49.9315 H         1 UNK         0.0800 
    136 H136       -0.8128  -15.0826  -50.7387 H         1 UNK         0.1150 
    137 H137       -0.8857  -19.2931  -49.9287 H         1 UNK         0.1150 
    138 H138        2.7378  -17.0762  -49.4063 H         1 UNK         0.1150 
    139 H139        1.1460  -20.4650  -49.4878 H         1 UNK         0.0800 
    140 H140        2.6909  -19.6619  -49.6499 H         1 UNK         0.0800 
    141 H141        2.5484  -21.8535  -47.8675 H         1 UNK         0.0800 
    142 H142        2.9251  -21.4087  -46.2329 H         1 UNK         0.0800 
    143 H143        1.2272  -23.0852  -46.2350 H         1 UNK         0.0600 
    144 H144        0.5722  -20.5882  -44.9718 H         1 UNK         0.3000 
    145 H145       -1.8937  -22.1920  -42.8220 H         1 UNK         0.0600 
    146 H146       -0.4658  -21.0246  -41.1666 H         1 UNK         0.0600 
    147 H147        0.3461  -22.4483  -41.7992 H         1 UNK         0.0600 
    148 H148        0.8196  -20.8524  -42.3592 H         1 UNK         0.0600 
    149 H149       -1.2020  -19.4537  -43.0334 H         1 UNK         0.3000 
    150 H150       -3.7053  -18.5491  -45.4380 H         1 UNK         0.0600 
    151 H151       -4.8782  -18.6932  -43.2415 H         1 UNK         0.0600 
    152 H152       -4.3539  -17.0491  -43.5752 H         1 UNK         0.0600 
    153 H153       -3.4622  -18.0424  -42.4254 H         1 UNK         0.0600 
    154 H154       -1.8548  -16.9435  -44.0141 H         1 UNK         0.3000 
    155 H155        0.8834  -17.2170  -46.3383 H         1 UNK         0.0600 
    156 H156       -1.0735  -15.0143  -45.5358 H         1 UNK         0.0600 
    157 H157       -0.5670  -15.4463  -47.1595 H         1 UNK         0.0600 
    158 H158        0.5934  -14.7502  -46.0367 H         1 UNK         0.0600 
    159 H159        0.7830  -15.8765  -43.8760 H         1 UNK         0.3000 
    160 H160        1.6785  -18.5862  -41.7031 H         1 UNK         0.0600 
    161 H161        3.1439  -16.0473  -42.5782 H         1 UNK         0.0600 
    162 H162        3.7999  -17.6739  -42.6494 H         1 UNK         0.0600 
    163 H163        3.4233  -16.9491  -41.0927 H         1 UNK         0.0600 
    164 H164        1.0177  -15.7898  -41.3557 H         1 UNK         0.3000 
    165 H165       -2.4403  -16.3054  -40.6676 H         1 UNK         0.0600 
    166 H166       -1.8125  -15.1858  -38.5442 H         1 UNK         0.0600 
    167 H167       -1.3001  -16.8654  -38.5149 H         1 UNK         0.0600 
    168 H168       -0.1152  -15.5949  -38.7951 H         1 UNK         0.0600 
    169 H169       -0.7281  -14.0043  -40.5860 H         1 UNK         0.3000 
    170 H170       -0.9442  -13.1124  -44.0120 H         1 UNK         0.0600 
    171 H171       -3.1183  -12.2744  -43.1141 H         1 UNK         0.0600 
    172 H172       -2.3382  -11.8270  -41.6016 H         1 UNK         0.0600 
    173 H173       -1.8978  -11.0117  -43.1028 H         1 UNK         0.0600 
    174 H174        0.1361  -11.7903  -41.7160 H         1 UNK         0.3000 
    175 H175        2.5066  -11.6159  -41.6469 H         1 UNK         0.0600 
    176 H176        2.4547  -14.3527  -40.2210 H         1 UNK         0.0600 
    177 H177        3.1149  -12.8621  -39.5589 H         1 UNK         0.0600 
    178 H178        1.3934  -13.0083  -39.8170 H         1 UNK         0.0600 
    179 H179        3.7329  -13.7981  -43.0136 H         1 UNK         0.3000 
    180 H180        7.1281  -12.8955  -42.0278 H         1 UNK         0.0600 
    181 H181        5.5137  -15.4220  -42.6407 H         1 UNK         0.0600 
    182 H182        6.3199  -15.0678  -41.1198 H         1 UNK         0.0600 
    183 H183        7.2658  -15.2811  -42.5849 H         1 UNK         0.0600 
    184 H184        5.6269  -13.7291  -44.4536 H         1 UNK         0.3000 
    185 H185        6.5944  -10.8975  -46.2818 H         1 UNK         0.0600 
    186 H186        8.8107  -12.0367  -46.4299 H         1 UNK         0.0600 
    187 H187        8.0158  -13.5999  -46.5723 H         1 UNK         0.0600 
    188 H188        7.8271  -12.3887  -47.8414 H         1 UNK         0.0600 
    189 H189        5.6088  -13.5045  -47.0355 H         1 UNK         0.3000 
    190 H190       -1.1852  -20.5619  -47.0177 H         1 UNK         0.3000 
    191 H191       -2.0156  -21.5986  -49.5118 H         1 UNK         0.0600 
    192 H192       -3.7114  -20.1954  -47.3765 H         1 UNK         0.0600 
    193 H193       -4.1299  -20.3809  -49.0742 H         1 UNK         0.0600 
    194 H194       -2.7619  -19.3862  -48.6133 H         1 UNK         0.0600 
    195 H195       -3.1043  -22.4381  -46.1842 H         1 UNK         0.3000 
    196 H196       -5.0181  -24.4016  -46.9734 H         1 UNK         0.0600 
    197 H197       -4.9343  -25.0381  -44.5567 H         1 UNK         0.0600 
    198 H198       -5.0567  -23.2965  -44.7588 H         1 UNK         0.0600 
    199 H199       -3.5115  -24.0269  -44.3307 H         1 UNK         0.0600 
    200 H200       -1.5337  -24.6336  -46.2263 H         1 UNK         0.3000 
    201 H201       -1.4056  -27.5023  -46.2658 H         1 UNK         0.0600 
    202 H202        0.2521  -26.0738  -45.0766 H         1 UNK         0.0600 
    203 H203        0.8079  -25.4152  -46.6150 H         1 UNK         0.0600 
    204 H204        1.0453  -27.1181  -46.2468 H         1 UNK         0.0600 
    205 H205       -0.9412  -25.0078  -48.7716 H         1 UNK         0.3000 
    206 H206        0.1910  -26.6819  -50.7741 H         1 UNK         0.0600 
    207 H207        0.4380  -24.2216  -50.7814 H         1 UNK         0.0600 
    208 H208       -0.3693  -24.7150  -52.2595 H         1 UNK         0.0600 
    209 H209       -1.3048  -24.0082  -50.9486 H         1 UNK         0.0600 
    210 H210       -0.7115  -27.2416  -52.8317 H         1 UNK         0.3000 
    211 H211       -3.3816  -28.3915  -52.8574 H         1 UNK         0.0600 
    212 H212       -1.2977  -27.9793  -55.0791 H         1 UNK         0.0600 
    213 H213       -2.7535  -28.9576  -55.2122 H         1 UNK         0.0600 
    214 H214       -1.4805  -29.4360  -54.1010 H         1 UNK         0.0600 
    215 H215       -5.0683  -27.7188  -54.2470 H         1 UNK         0.3000 
    216 H216       -6.5597  -26.4229  -55.1864 H         1 UNK         0.0600 
    217 H217       -5.9537  -24.5082  -56.6355 H         1 UNK         0.0600 
    218 H218       -4.8998  -25.8766  -56.9467 H         1 UNK         0.0600 
    219 H219       -4.3189  -24.5052  -56.0067 H         1 UNK         0.0600 
    220 H220       -4.3324  -24.5988  -53.1466 H         1 UNK         0.3000 
    221 H221       -4.5485  -23.1365  -51.4931 H         1 UNK         0.0600 
    222 H222       -7.2393  -24.5667  -51.0577 H         1 UNK         0.0600 
    223 H223       -5.6750  -25.0508  -50.4157 H         1 UNK         0.0600 
    224 H224       -6.4125  -23.5616  -49.8638 H         1 UNK         0.0600 
    225 H225       -7.9168  -22.6574  -51.3225 H         1 UNK         0.3000 
    226 H226       -7.8320  -19.8921  -51.8621 H         1 UNK         0.0600 
    227 H227       -9.5292  -20.9587  -50.4056 H         1 UNK         0.0600 
    228 H228      -10.3223  -20.0687  -51.6948 H         1 UNK         0.0600 
    229 H229      -10.2123  -21.8227  -51.7842 H         1 UNK         0.0600 
    230 H230       -8.2996  -22.5937  -54.1089 H         1 UNK         0.3000 
    231 H231       -9.4450  -20.9882  -56.2406 H         1 UNK         0.0600 
    232 H232       -9.0490  -23.0092  -57.6130 H         1 UNK         0.0600 
    233 H233       -9.8299  -23.4351  -56.0979 H         1 UNK         0.0600 
    234 H234       -8.1101  -23.7397  -56.3209 H         1 UNK         0.0600 
    235 H235       -6.2111  -21.4422  -55.0193 H         1 UNK         0.3000 
    236 H236       -4.9543  -20.3041  -57.4740 H         1 UNK         0.0600 
    237 H237       -3.8072  -22.2702  -56.5721 H         1 UNK         0.0600 
    238 H238       -2.8216  -20.8484  -56.2809 H         1 UNK         0.0600 
    239 H239       -3.7378  -21.5618  -54.9594 H         1 UNK         0.0600 
    240 H240       -5.2697  -19.7943  -53.9215 H         1 UNK         0.3000 
    241 H241       -4.0236  -17.2058  -53.9801 H         1 UNK         0.0600 
    242 H242       -7.9495  -16.3468  -54.5141 H         1 UNK         0.3800 
    243 H243       -7.4770  -18.0213  -54.5140 H         1 UNK         0.3800 
    244 H244       -4.9853  -17.1607  -51.5218 H         1 UNK         0.0800 
    245 H245       -5.4596  -18.8028  -51.8232 H         1 UNK         0.0800 
    246 H246       -2.7753  -16.2658  -51.2113 H         1 UNK         0.0800 
    247 H247       -3.0599  -17.2162  -49.7717 H         1 UNK         0.0800 
@<TRIPOS>BOND
     1    1    2 1    
     2    1  127 1    
     3    1  128 1    
     4    1  129 1    
     5    2    3 2    
     6    2    4 am   BACKBONE|DICT|INTERRES
     7    4    5 1    
     8    4  130 1    
     9    5    6 1    
    10    5   65 1    
    11    5  131 1    
    12    6    7 1    
    13    6  132 1    
    14    6  133 1    
    15    7    8 1    
    16    8    9 1    
    17    8  134 1    
    18    8  135 1    
    19    9   10 ar   
    20    9   14 ar   
    21   10   11 ar   
    22   10  136 1    
    23   11   12 ar   
    24   11  126 1    
    25   12   13 ar   
    26   12  137 1    
    27   13   14 ar   
    28   13   15 1    
    29   14  138 1    
    30   15   16 1    
    31   15  139 1    
    32   15  140 1    
    33   16   17 1    
    34   17   18 1    
    35   17  141 1    
    36   17  142 1    
    37   18   19 1    
    38   18   67 1    
    39   18  143 1    
    40   19   20 am   BACKBONE|DICT|INTERRES
    41   19  144 1    
    42   20   21 2    
    43   20   22 1    
    44   22   23 1    
    45   22   24 1    
    46   22  145 1    
    47   23  146 1    
    48   23  147 1    
    49   23  148 1    
    50   24   25 am   BACKBONE|DICT|INTERRES
    51   24  149 1    
    52   25   26 2    
    53   25   27 1    
    54   27   28 1    
    55   27   29 1    
    56   27  150 1    
    57   28  151 1    
    58   28  152 1    
    59   28  153 1    
    60   29   30 am   BACKBONE|DICT|INTERRES
    61   29  154 1    
    62   30   31 2    
    63   30   32 1    
    64   32   33 1    
    65   32   34 1    
    66   32  155 1    
    67   33  156 1    
    68   33  157 1    
    69   33  158 1    
    70   34   35 am   BACKBONE|DICT|INTERRES
    71   34  159 1    
    72   35   36 2    
    73   35   37 1    
    74   37   38 1    
    75   37   39 1    
    76   37  160 1    
    77   38  161 1    
    78   38  162 1    
    79   38  163 1    
    80   39   40 am   BACKBONE|DICT|INTERRES
    81   39  164 1    
    82   40   41 2    
    83   40   42 1    
    84   42   43 1    
    85   42   44 1    
    86   42  165 1    
    87   43  166 1    
    88   43  167 1    
    89   43  168 1    
    90   44   45 am   BACKBONE|DICT|INTERRES
    91   44  169 1    
    92   45   46 2    
    93   45   47 1    
    94   47   48 1    
    95   47   49 1    
    96   47  170 1    
    97   48  171 1    
    98   48  172 1    
    99   48  173 1    
   100   49   50 am   BACKBONE|DICT|INTERRES
   101   49  174 1    
   102   50   51 2    
   103   50   52 1    
   104   52   53 1    
   105   52   54 1    
   106   52  175 1    
   107   53  176 1    
   108   53  177 1    
   109   53  178 1    
   110   54   55 am   BACKBONE|DICT|INTERRES
   111   54  179 1    
   112   55   56 2    
   113   55   57 1    
   114   57   58 1    
   115   57   59 1    
   116   57  180 1    
   117   58  181 1    
   118   58  182 1    
   119   58  183 1    
   120   59   60 am   BACKBONE|DICT|INTERRES
   121   59  184 1    
   122   60   61 2    
   123   60   62 1    
   124   62   63 1    
   125   62   64 1    
   126   62  185 1    
   127   63  186 1    
   128   63  187 1    
   129   63  188 1    
   130   64   65 am   BACKBONE|DICT|INTERRES
   131   64  189 1    
   132   65   66 2    
   133   67   68 2    
   134   67   69 am   BACKBONE|DICT|INTERRES
   135   69   70 1    
   136   69  190 1    
   137   70   71 1    
   138   70   72 1    
   139   70  191 1    
   140   71  192 1    
   141   71  193 1    
   142   71  194 1    
   143   72   73 2    
   144   72   74 am   BACKBONE|DICT|INTERRES
   145   74   75 1    
   146   74  195 1    
   147   75   76 1    
   148   75   77 1    
   149   75  196 1    
   150   76  197 1    
   151   76  198 1    
   152   76  199 1    
   153   77   78 2    
   154   77   79 am   BACKBONE|DICT|INTERRES
   155   79   80 1    
   156   79  200 1    
   157   80   81 1    
   158   80   82 1    
   159   80  201 1    
   160   81  202 1    
   161   81  203 1    
   162   81  204 1    
   163   82   83 2    
   164   82   84 am   BACKBONE|DICT|INTERRES
   165   84   85 1    
   166   84  205 1    
   167   85   86 1    
   168   85   87 1    
   169   85  206 1    
   170   86  207 1    
   171   86  208 1    
   172   86  209 1    
   173   87   88 2    
   174   87   89 am   BACKBONE|DICT|INTERRES
   175   89   90 1    
   176   89  210 1    
   177   90   91 1    
   178   90   92 1    
   179   90  211 1    
   180   91  212 1    
   181   91  213 1    
   182   91  214 1    
   183   92   93 2    
   184   92   94 am   BACKBONE|DICT|INTERRES
   185   94   95 1    
   186   94  215 1    
   187   95   96 1    
   188   95   97 1    
   189   95  216 1    
   190   96  217 1    
   191   96  218 1    
   192   96  219 1    
   193   97   98 2    
   194   97   99 am   BACKBONE|DICT|INTERRES
   195   99  100 1    
   196   99  220 1    
   197  100  101 1    
   198  100  102 1    
   199  100  221 1    
   200  101  222 1    
   201  101  223 1    
   202  101  224 1    
   203  102  103 2    
   204  102  104 am   BACKBONE|DICT|INTERRES
   205  104  105 1    
   206  104  225 1    
   207  105  106 1    
   208  105  107 1    
   209  105  226 1    
   210  106  227 1    
   211  106  228 1    
   212  106  229 1    
   213  107  108 2    
   214  107  109 am   BACKBONE|DICT|INTERRES
   215  109  110 1    
   216  109  230 1    
   217  110  111 1    
   218  110  112 1    
   219  110  231 1    
   220  111  232 1    
   221  111  233 1    
   222  111  234 1    
   223  112  113 2    
   224  112  114 am   BACKBONE|DICT|INTERRES
   225  114  115 1    
   226  114  235 1    
   227  115  116 1    
   228  115  117 1    
   229  115  236 1    
   230  116  237 1    
   231  116  238 1    
   232  116  239 1    
   233  117  118 2    
   234  117  119 am   BACKBONE|DICT|INTERRES
   235  119  120 1    
   236  119  240 1    
   237  120  121 1    
   238  120  124 1    
   239  120  241 1    
   240  121  122 am   BACKBONE|DICT|INTERRES
   241  121  123 2    
   242  122  242 1    
   243  122  243 1    
   244  124  125 1    
   245  124  244 1    
   246  124  245 1    
   247  125  126 1    
   248  126  246 1    
   249  126  247 1    
@<TRIPOS>SUBSTRUCTURE
     1 UNK         1 GROUP             0       ****    0 ROOT    
