@<TRIPOS>MOLECULE
3R540
247   249    1
SMALL
USER_CHARGES


@<TRIPOS>ATOM
      1 CA          0.0512  -14.7517  -42.4352 C.3       0 UNK        -0.1800 
      2 C          -1.2898  -14.3318  -43.0198 C.2       0 UNK         0.5000 
      3 O          -2.1315  -13.7873  -42.3040 O.2       0 UNK        -0.5000 
      4 N          -1.4920  -14.5981  -44.3142 N.am      1 UNK        -0.5000 
      5 CA         -2.6918  -14.2228  -45.0706 C.3       1 UNK         0.1400 
      6 C6         -2.9848  -15.2343  -46.2086 C.3       23 UNK        -0.0398 
      7 S7         -1.6645  -15.3492  -47.4599 S.3       23 UNK        -0.2404 
      8 C8         -2.3830  -16.5842  -48.5837 C.3       23 UNK        -0.0205 
      9 C9         -1.3010  -17.2060  -49.4467 C.ar      23 UNK        -0.0193 
     10 C10        -0.9443  -16.6252  -50.6651 C.ar      23 UNK        -0.1150 
     11 C11         0.0891  -17.1676  -51.4330 C.ar      23 UNK        -0.0193 
     12 C12         0.7439  -18.3210  -50.9902 C.ar      23 UNK        -0.1150 
     13 C13         0.3775  -18.9251  -49.7830 C.ar      23 UNK        -0.0193 
     14 C14        -0.6369  -18.3545  -49.0118 C.ar      23 UNK        -0.1150 
     15 C15         1.0948  -20.1746  -49.2975 C.3       23 UNK        -0.0205 
     16 S16         0.2768  -21.6968  -49.8736 S.3       23 UNK        -0.2404 
     17 C17        -1.0742  -21.9301  -48.6660 C.3       23 UNK        -0.0398 
     18 CA         -0.7792  -23.1026  -47.7010 C.3       11 UNK         0.1400 
     19 N           0.4562  -22.8899  -46.9422 N.am      11 UNK        -0.5000 
     20 C           1.0169  -23.7467  -46.0812 C.2       10 UNK         0.5000 
     21 O           0.4691  -24.7760  -45.6879 O.2       10 UNK        -0.5000 
     22 CA          2.4356  -23.4113  -45.5954 C.3       10 UNK         0.1400 
     23 CB          3.1571  -22.3360  -46.4383 C.3       10 UNK        -0.1800 
     24 N           2.3893  -22.9805  -44.2037 N.am      10 UNK        -0.5000 
     25 C           3.3589  -23.2012  -43.3056 C.2       9 UNK         0.5000 
     26 O           4.3515  -23.8924  -43.5418 O.2       9 UNK        -0.5000 
     27 CA          3.2310  -22.5289  -41.9228 C.3       9 UNK         0.1400 
     28 CB          4.5082  -21.7455  -41.5713 C.3       9 UNK        -0.1800 
     29 N           2.1021  -21.6019  -41.8681 N.am      9 UNK        -0.5000 
     30 C           0.9628  -21.8061  -41.1949 C.2       8 UNK         0.5000 
     31 O           0.7503  -22.7953  -40.4938 O.2       8 UNK        -0.5000 
     32 CA         -0.1370  -20.7313  -41.3286 C.3       8 UNK         0.1400 
     33 CB         -0.1569  -19.8283  -40.0859 C.3       8 UNK        -0.1800 
     34 N          -0.0206  -19.8856  -42.5203 N.am      8 UNK        -0.5000 
     35 C          -0.0764  -20.3178  -43.7865 C.2       7 UNK         0.5000 
     36 O          -0.2160  -21.4982  -44.1022 O.2       7 UNK        -0.5000 
     37 CA          0.1130  -19.2668  -44.8902 C.3       7 UNK         0.1400 
     38 CB         -1.2255  -18.5903  -45.2139 C.3       7 UNK        -0.1800 
     39 N           1.1027  -18.2365  -44.5764 N.am      7 UNK        -0.5000 
     40 C           2.3731  -18.4287  -44.1990 C.2       6 UNK         0.5000 
     41 O           2.8581  -19.5387  -43.9714 O.2       6 UNK        -0.5000 
     42 CA          3.2359  -17.1550  -44.0761 C.3       6 UNK         0.1400 
     43 CB          4.6667  -17.4573  -43.5959 C.3       6 UNK        -0.1800 
     44 N           3.3078  -16.4143  -45.3393 N.am      6 UNK        -0.5000 
     45 C           2.3352  -15.6540  -45.8577 C.2       5 UNK         0.5000 
     46 O           1.2285  -15.5038  -45.3296 O.2       5 UNK        -0.5000 
     47 CA          2.6347  -14.9829  -47.2076 C.3       5 UNK         0.1400 
     48 CB          2.1404  -15.8580  -48.3686 C.3       5 UNK        -0.1800 
     49 N           1.9686  -13.6861  -47.2687 N.am      5 UNK        -0.5000 
     50 C           2.4506  -12.5611  -46.7251 C.2       4 UNK         0.5000 
     51 O           3.5781  -12.4770  -46.2344 O.2       4 UNK        -0.5000 
     52 CA          1.5108  -11.3384  -46.6846 C.3       4 UNK         0.1400 
     53 CB          2.2493  -10.0038  -46.9196 C.3       4 UNK        -0.1800 
     54 N           0.3307  -11.4671  -47.5469 N.am      4 UNK        -0.5000 
     55 C           0.2706  -11.4317  -48.8881 C.2       3 UNK         0.5000 
     56 O           1.2509  -11.2568  -49.6120 O.2       3 UNK        -0.5000 
     57 CA         -1.1108  -11.6552  -49.5439 C.3       3 UNK         0.1400 
     58 CB         -1.1020  -12.9451  -50.3795 C.3       3 UNK        -0.1800 
     59 N          -2.2077  -11.7293  -48.5742 N.am      3 UNK        -0.5000 
     60 C          -2.7610  -10.6736  -47.9596 C.2       2 UNK         0.5000 
     61 O          -2.4692   -9.5061  -48.2202 O.2       2 UNK        -0.5000 
     62 CA         -3.7883  -10.9638  -46.8431 C.3       2 UNK         0.1400 
     63 CB         -5.2190  -10.7797  -47.3720 C.3       2 UNK        -0.1800 
     64 N          -3.6750  -12.2968  -46.2371 N.am      2 UNK        -0.5000 
     65 C          -2.6019  -12.7666  -45.5834 C.2       1 UNK         0.5000 
     66 O          -1.5703  -12.1083  -45.4258 O.2       1 UNK        -0.5000 
     67 C          -2.0112  -23.4228  -46.8324 C.2       11 UNK         0.5000 
     68 O          -2.7597  -24.3319  -47.1838 O.2       11 UNK        -0.5000 
     69 N          -2.1887  -22.7230  -45.7036 N.am      12 UNK        -0.5000 
     70 CA         -3.3248  -22.9306  -44.8016 C.3       12 UNK         0.1400 
     71 CB         -3.5058  -21.7160  -43.8796 C.3       12 UNK        -0.1800 
     72 C          -3.1920  -24.2255  -43.9826 C.2       12 UNK         0.5000 
     73 O          -4.2080  -24.8527  -43.6847 O.2       12 UNK        -0.5000 
     74 N          -1.9519  -24.6399  -43.6824 N.am      13 UNK        -0.5000 
     75 CA         -1.6479  -25.9361  -43.0682 C.3       13 UNK         0.1400 
     76 CB         -0.2050  -25.9378  -42.5396 C.3       13 UNK        -0.1800 
     77 C          -1.8921  -27.1058  -44.0439 C.2       13 UNK         0.5000 
     78 O          -2.3143  -28.1799  -43.6158 O.2       13 UNK        -0.5000 
     79 N          -1.6787  -26.8539  -45.3429 N.am      14 UNK        -0.5000 
     80 CA         -2.0221  -27.7446  -46.4546 C.3       14 UNK         0.1400 
     81 CB         -1.1223  -27.4019  -47.6538 C.3       14 UNK        -0.1800 
     82 C          -3.5175  -27.6908  -46.8490 C.2       14 UNK         0.5000 
     83 O          -3.9255  -28.4328  -47.7435 O.2       14 UNK        -0.5000 
     84 N          -4.3016  -26.8285  -46.1834 N.am      15 UNK        -0.5000 
     85 CA         -5.7381  -26.5871  -46.3567 C.3       15 UNK         0.1400 
     86 CB         -6.5570  -27.8540  -46.0300 C.3       15 UNK        -0.1800 
     87 C          -6.1139  -25.9530  -47.7145 C.2       15 UNK         0.5000 
     88 O          -7.2204  -26.1766  -48.2097 O.2       15 UNK        -0.5000 
     89 N          -5.2061  -25.1487  -48.2784 N.am      16 UNK        -0.5000 
     90 CA         -5.4221  -24.3254  -49.4648 C.3       16 UNK         0.1400 
     91 CB         -4.2102  -24.4822  -50.3976 C.3       16 UNK        -0.1800 
     92 C          -5.5866  -22.8541  -49.0471 C.2       16 UNK         0.5000 
     93 O          -5.0486  -22.4378  -48.0190 O.2       16 UNK        -0.5000 
     94 N          -6.3081  -22.0763  -49.8633 N.am      17 UNK        -0.5000 
     95 CA         -6.4971  -20.6369  -49.6540 C.3       17 UNK         0.1400 
     96 CB         -7.6913  -20.1575  -50.4938 C.3       17 UNK        -0.1800 
     97 C          -5.2368  -19.8165  -49.9927 C.2       17 UNK         0.5000 
     98 O          -4.9870  -18.7920  -49.3579 O.2       17 UNK        -0.5000 
     99 N          -4.4750  -20.2901  -50.9838 N.am      18 UNK        -0.5000 
    100 CA        -3.2473  -19.7085  -51.5112 C.3       18 UNK         0.1400 
    101 CB        -3.5614  -18.4156  -52.2854 C.3       18 UNK        -0.1800 
    102 C         -2.5879  -20.7553  -52.4211 C.2       18 UNK         0.5000 
    103 O         -3.2378  -21.7423  -52.7785 O.2       18 UNK        -0.5000 
    104 N         -1.3189  -20.5296  -52.7840 N.am      19 UNK        -0.5000 
    105 CA        -0.5143  -21.4634  -53.5796 C.3       19 UNK         0.1400 
    106 CB         0.9530  -21.0059  -53.5840 C.3       19 UNK        -0.1800 
    107 C         -1.0210  -21.6473  -55.0227 C.2       19 UNK         0.5000 
    108 O         -0.9711  -22.7611  -55.5463 O.2       19 UNK        -0.5000 
    109 N         -1.4983  -20.5562  -55.6329 N.am      20 UNK        -0.5000 
    110 CA        -1.9967  -20.5139  -57.0087 C.3       20 UNK         0.1400 
    111 CB        -0.8126  -20.4680  -57.9971 C.3       20 UNK        -0.1800 
    112 C         -2.9751  -19.3391  -57.1876 C.2       20 UNK         0.5000 
    113 O         -2.8845  -18.6082  -58.1750 O.2       20 UNK        -0.5000 
    114 N         -3.8670  -19.1510  -56.1999 N.am      21 UNK        -0.5000 
    115 CA        -4.8447  -18.0517  -56.0872 C.3       21 UNK         0.1400 
    116 CB        -5.8926  -18.1260  -57.2177 C.3       21 UNK        -0.1800 
    117 C         -4.1950  -16.6511  -55.9668 C.2       21 UNK         0.5000 
    118 O         -4.8252  -15.6400  -56.2815 O.2       21 UNK        -0.5000 
    119 N         -2.9365  -16.6318  -55.5199 N.am      22 UNK        -0.5000 
    120 CA        -2.0914  -15.4581  -55.2864 C.3       22 UNK         0.1400 
    121 C         -2.5069  -14.6235  -54.0407 C.2       22 UNK         0.5000 
    122 N         -2.0586  -13.3782  -53.9528 N.am      22 UNK        -0.7600 
    123 O         -3.2114  -15.0868  -53.1475 O.2       22 UNK        -0.5000 
    124 C124       -0.5931  -15.8704  -55.2551 C.3       23 UNK        -0.0398 
    125 S125       -0.2355  -17.3011  -54.1691 S.3       23 UNK        -0.2404 
    126 C126        0.5091  -16.4876  -52.7249 C.3       23 UNK        -0.0205 
    127 H127        0.0414  -14.6780  -41.3476 H         1 UNK         0.0600 
    128 H128        0.2807  -15.7832  -42.7020 H         1 UNK         0.0600 
    129 H129        0.8466  -14.1104  -42.8154 H         1 UNK         0.0600 
    130 H130       -0.7254  -14.9753  -44.8627 H         1 UNK         0.3000 
    131 H131       -3.5469  -14.2554  -44.3922 H         1 UNK         0.0600 
    132 H132       -3.9249  -15.0002  -46.7101 H         1 UNK         0.0800 
    133 H133       -3.1282  -16.2250  -45.7751 H         1 UNK         0.0800 
    134 H134       -3.1455  -16.1158  -49.2081 H         1 UNK         0.0800 
    135 H135       -2.8885  -17.3630  -48.0103 H         1 UNK         0.0800 
    136 H136       -1.4616  -15.7407  -51.0084 H         1 UNK         0.1150 
    137 H137        1.5441  -18.7417  -51.5825 H         1 UNK         0.1150 
    138 H138       -0.9088  -18.7978  -48.0673 H         1 UNK         0.1150 
    139 H139        2.1208  -20.1720  -49.6685 H         1 UNK         0.0800 
    140 H140        1.1697  -20.1710  -48.2100 H         1 UNK         0.0800 
    141 H141       -1.2517  -21.0119  -48.1080 H         1 UNK         0.0800 
    142 H142       -1.9882  -22.1194  -49.2323 H         1 UNK         0.0800 
    143 H143       -0.6052  -23.9900  -48.3135 H         1 UNK         0.0600 
    144 H144        0.9982  -22.0851  -47.2133 H         1 UNK         0.3000 
    145 H145        3.0019  -24.3416  -45.6745 H         1 UNK         0.0600 
    146 H146        2.6926  -21.3547  -46.3327 H         1 UNK         0.0600 
    147 H147        4.1973  -22.2353  -46.1277 H         1 UNK         0.0600 
    148 H148        3.1661  -22.5976  -47.4974 H         1 UNK         0.0600 
    149 H149        1.5681  -22.4503  -43.9330 H         1 UNK         0.3000 
    150 H150        3.1097  -23.3285  -41.1897 H         1 UNK         0.0600 
    151 H151        4.4257  -21.2788  -40.5897 H         1 UNK         0.0600 
    152 H152        4.7093  -20.9591  -42.3002 H         1 UNK         0.0600 
    153 H153        5.3796  -22.4008  -41.5445 H         1 UNK         0.0600 
    154 H154        2.1909  -20.7755  -42.4506 H         1 UNK         0.3000 
    155 H155       -1.0923  -21.2561  -41.3847 H         1 UNK         0.0600 
    156 H156       -0.2743  -20.4174  -39.1753 H         1 UNK         0.0600 
    157 H157       -0.9872  -19.1229  -40.1231 H         1 UNK         0.0600 
    158 H158        0.7672  -19.2568  -39.9903 H         1 UNK         0.0600 
    159 H159        0.1224  -18.8994  -42.3608 H         1 UNK         0.3000 
    160 H160        0.4627  -19.7857  -45.7842 H         1 UNK         0.0600 
    161 H161       -1.6547  -18.1020  -44.3379 H         1 UNK         0.0600 
    162 H162       -1.9540  -19.3134  -45.5821 H         1 UNK         0.0600 
    163 H163       -1.1023  -17.8308  -45.9835 H         1 UNK         0.0600 
    164 H164        0.8361  -17.2773  -44.7801 H         1 UNK         0.3000 
    165 H165        2.7632  -16.5177  -43.3258 H         1 UNK         0.0600 
    166 H166        5.2054  -18.0874  -44.3049 H         1 UNK         0.0600 
    167 H167        5.2392  -16.5397  -43.4595 H         1 UNK         0.0600 
    168 H168        4.6565  -17.9770  -42.6368 H         1 UNK         0.0600 
    169 H169        4.1690  -16.5148  -45.8567 H         1 UNK         0.3000 
    170 H170        3.7129  -14.8440  -47.3118 H         1 UNK         0.0600 
    171 H171        2.6410  -16.8270  -48.3731 H         1 UNK         0.0600 
    172 H172        1.0703  -16.0466  -48.3001 H         1 UNK         0.0600 
    173 H173        2.3333  -15.3868  -49.3325 H         1 UNK         0.0600 
    174 H174        1.0123  -13.6889  -47.5901 H         1 UNK         0.3000 
    175 H175        1.1195  -11.3105  -45.6667 H         1 UNK         0.0600 
    176 H176        1.5591   -9.1606  -46.8929 H         1 UNK         0.0600 
    177 H177        2.9988   -9.8319  -46.1463 H         1 UNK         0.0600 
    178 H178        2.7664   -9.9867  -47.8791 H         1 UNK         0.0600 
    179 H179       -0.5301  -11.6381  -47.0358 H         1 UNK         0.3000 
    180 H180       -1.2965  -10.8153  -50.2165 H         1 UNK         0.0600 
    181 H181       -2.0856  -13.1607  -50.7973 H         1 UNK         0.0600 
    182 H182       -0.4041  -12.8660  -51.2139 H         1 UNK         0.0600 
    183 H183       -0.7933  -13.8027  -49.7831 H         1 UNK         0.0600 
    184 H184       -2.5048  -12.6546  -48.3006 H         1 UNK         0.3000 
    185 H185       -3.6194  -10.2290  -46.0533 H         1 UNK         0.0600 
    186 H186       -5.9529  -10.8851  -46.5728 H         1 UNK         0.0600 
    187 H187       -5.3524   -9.7866  -47.8032 H         1 UNK         0.0600 
    188 H188       -5.4576  -11.5087  -48.1475 H         1 UNK         0.0600 
    189 H189       -4.4895  -12.8868  -46.3266 H         1 UNK         0.3000 
    190 H190       -1.4619  -22.0915  -45.3825 H         1 UNK         0.3000 
    191 H191       -4.2277  -23.0177  -45.4102 H         1 UNK         0.0600 
    192 H192       -4.4246  -21.8078  -43.2994 H         1 UNK         0.0600 
    193 H193       -3.5751  -20.7903  -44.4504 H         1 UNK         0.0600 
    194 H194       -2.6866  -21.6193  -43.1692 H         1 UNK         0.0600 
    195 H195       -1.1657  -24.0895  -44.0013 H         1 UNK         0.3000 
    196 H196       -2.3160  -26.0723  -42.2151 H         1 UNK         0.0600 
    197 H197        0.0146  -26.8701  -42.0182 H         1 UNK         0.0600 
    198 H198       -0.0437  -25.1247  -41.8319 H         1 UNK         0.0600 
    199 H199        0.5265  -25.8340  -43.3401 H         1 UNK         0.0600 
    200 H200       -1.2667  -25.9616  -45.5929 H         1 UNK         0.3000 
    201 H201       -1.8058  -28.7720  -46.1554 H         1 UNK         0.0600 
    202 H202       -0.0674  -27.4521  -47.3831 H         1 UNK         0.0600 
    203 H203       -1.3219  -26.4013  -48.0358 H         1 UNK         0.0600 
    204 H204       -1.2803  -28.1020  -48.4749 H         1 UNK         0.0600 
    205 H205       -3.8571  -26.2516  -45.4826 H         1 UNK         0.3000 
    206 H206       -5.9987  -25.8379  -45.6082 H         1 UNK         0.0600 
    207 H207       -6.2766  -28.2651  -45.0602 H         1 UNK         0.0600 
    208 H208       -7.6237  -27.6307  -45.9889 H         1 UNK         0.0600 
    209 H209       -6.4166  -28.6333  -46.7793 H         1 UNK         0.0600 
    210 H210       -4.3372  -24.9586  -47.7801 H         1 UNK         0.3000 
    211 H211       -6.3190  -24.6447  -49.9992 H         1 UNK         0.0600 
    212 H212       -4.3379  -23.8989  -51.3101 H         1 UNK         0.0600 
    213 H213       -4.0753  -25.5226  -50.6936 H         1 UNK         0.0600 
    214 H214       -3.2870  -24.1500  -49.9220 H         1 UNK         0.0600 
    215 H215       -6.7312  -22.4768  -50.6883 H         1 UNK         0.3000 
    216 H216       -6.7329  -20.4643  -48.6015 H         1 UNK         0.0600 
    217 H217       -7.8708  -19.0921  -50.3430 H         1 UNK         0.0600 
    218 H218       -8.6054  -20.6824  -50.2156 H         1 UNK         0.0600 
    219 H219       -7.5241  -20.3140  -51.5602 H         1 UNK         0.0600 
    220 H220       -4.7281  -21.1610  -51.4345 H         1 UNK         0.3000 
    221 H221       -2.5716  -19.4978  -50.6822 H         1 UNK         0.0600 
    222 H222       -4.2843  -18.5915  -53.0805 H         1 UNK         0.0600 
    223 H223       -3.9678  -17.6459  -51.6295 H         1 UNK         0.0600 
    224 H224       -2.6651  -17.9957  -52.7381 H         1 UNK         0.0600 
    225 H225       -0.8475  -19.7021  -52.4457 H         1 UNK         0.3000 
    226 H226       -0.5594  -22.4387  -53.0901 H         1 UNK         0.0600 
    227 H227        1.5730  -21.6914  -54.1633 H         1 UNK         0.0600 
    228 H228        1.0678  -20.0140  -54.0209 H         1 UNK         0.0600 
    229 H229        1.3635  -20.9787  -52.5755 H         1 UNK         0.0600 
    230 H230       -1.4758  -19.6805  -55.1313 H         1 UNK         0.3000 
    231 H231       -2.5724  -21.4209  -57.2046 H         1 UNK         0.0600 
    232 H232       -1.1616  -20.4585  -59.0304 H         1 UNK         0.0600 
    233 H233       -0.1666  -21.3389  -57.8870 H         1 UNK         0.0600 
    234 H234       -0.2015  -19.5774  -57.8455 H         1 UNK         0.0600 
    235 H235       -3.8777  -19.8234  -55.4455 H         1 UNK         0.3000 
    236 H236       -5.3764  -18.2132  -55.1490 H         1 UNK         0.0600 
    237 H237       -5.4597  -17.8908  -58.1902 H         1 UNK         0.0600 
    238 H238       -6.3371  -19.1192  -57.2789 H         1 UNK         0.0600 
    239 H239       -6.7051  -17.4193  -57.0447 H         1 UNK         0.0600 
    240 H240       -2.5165  -17.5084  -55.2589 H         1 UNK         0.3000 
    241 H241       -2.2296  -14.8007  -56.1470 H         1 UNK         0.0600 
    242 H242       -2.3258  -12.8239  -53.1558 H         1 UNK         0.3800 
    243 H243       -1.4889  -12.9642  -54.6741 H         1 UNK         0.3800 
    244 H244        0.0489  -15.0264  -54.9985 H         1 UNK         0.0800 
    245 H245       -0.2904  -16.1582  -56.2628 H         1 UNK         0.0800 
    246 H246        1.5956  -16.5049  -52.8217 H         1 UNK         0.0800 
    247 H247        0.2219  -15.4355  -52.6915 H         1 UNK         0.0800 
@<TRIPOS>BOND
     1    1    2 1    
     2    1  127 1    
     3    1  128 1    
     4    1  129 1    
     5    2    3 2    
     6    2    4 am   BACKBONE|DICT|INTERRES
     7    4    5 1    
     8    4  130 1    
     9    5    6 1    
    10    5   65 1    
    11    5  131 1    
    12    6    7 1    
    13    6  132 1    
    14    6  133 1    
    15    7    8 1    
    16    8    9 1    
    17    8  134 1    
    18    8  135 1    
    19    9   10 ar   
    20    9   14 ar   
    21   10   11 ar   
    22   10  136 1    
    23   11   12 ar   
    24   11  126 1    
    25   12   13 ar   
    26   12  137 1    
    27   13   14 ar   
    28   13   15 1    
    29   14  138 1    
    30   15   16 1    
    31   15  139 1    
    32   15  140 1    
    33   16   17 1    
    34   17   18 1    
    35   17  141 1    
    36   17  142 1    
    37   18   19 1    
    38   18   67 1    
    39   18  143 1    
    40   19   20 am   BACKBONE|DICT|INTERRES
    41   19  144 1    
    42   20   21 2    
    43   20   22 1    
    44   22   23 1    
    45   22   24 1    
    46   22  145 1    
    47   23  146 1    
    48   23  147 1    
    49   23  148 1    
    50   24   25 am   BACKBONE|DICT|INTERRES
    51   24  149 1    
    52   25   26 2    
    53   25   27 1    
    54   27   28 1    
    55   27   29 1    
    56   27  150 1    
    57   28  151 1    
    58   28  152 1    
    59   28  153 1    
    60   29   30 am   BACKBONE|DICT|INTERRES
    61   29  154 1    
    62   30   31 2    
    63   30   32 1    
    64   32   33 1    
    65   32   34 1    
    66   32  155 1    
    67   33  156 1    
    68   33  157 1    
    69   33  158 1    
    70   34   35 am   BACKBONE|DICT|INTERRES
    71   34  159 1    
    72   35   36 2    
    73   35   37 1    
    74   37   38 1    
    75   37   39 1    
    76   37  160 1    
    77   38  161 1    
    78   38  162 1    
    79   38  163 1    
    80   39   40 am   BACKBONE|DICT|INTERRES
    81   39  164 1    
    82   40   41 2    
    83   40   42 1    
    84   42   43 1    
    85   42   44 1    
    86   42  165 1    
    87   43  166 1    
    88   43  167 1    
    89   43  168 1    
    90   44   45 am   BACKBONE|DICT|INTERRES
    91   44  169 1    
    92   45   46 2    
    93   45   47 1    
    94   47   48 1    
    95   47   49 1    
    96   47  170 1    
    97   48  171 1    
    98   48  172 1    
    99   48  173 1    
   100   49   50 am   BACKBONE|DICT|INTERRES
   101   49  174 1    
   102   50   51 2    
   103   50   52 1    
   104   52   53 1    
   105   52   54 1    
   106   52  175 1    
   107   53  176 1    
   108   53  177 1    
   109   53  178 1    
   110   54   55 am   BACKBONE|DICT|INTERRES
   111   54  179 1    
   112   55   56 2    
   113   55   57 1    
   114   57   58 1    
   115   57   59 1    
   116   57  180 1    
   117   58  181 1    
   118   58  182 1    
   119   58  183 1    
   120   59   60 am   BACKBONE|DICT|INTERRES
   121   59  184 1    
   122   60   61 2    
   123   60   62 1    
   124   62   63 1    
   125   62   64 1    
   126   62  185 1    
   127   63  186 1    
   128   63  187 1    
   129   63  188 1    
   130   64   65 am   BACKBONE|DICT|INTERRES
   131   64  189 1    
   132   65   66 2    
   133   67   68 2    
   134   67   69 am   BACKBONE|DICT|INTERRES
   135   69   70 1    
   136   69  190 1    
   137   70   71 1    
   138   70   72 1    
   139   70  191 1    
   140   71  192 1    
   141   71  193 1    
   142   71  194 1    
   143   72   73 2    
   144   72   74 am   BACKBONE|DICT|INTERRES
   145   74   75 1    
   146   74  195 1    
   147   75   76 1    
   148   75   77 1    
   149   75  196 1    
   150   76  197 1    
   151   76  198 1    
   152   76  199 1    
   153   77   78 2    
   154   77   79 am   BACKBONE|DICT|INTERRES
   155   79   80 1    
   156   79  200 1    
   157   80   81 1    
   158   80   82 1    
   159   80  201 1    
   160   81  202 1    
   161   81  203 1    
   162   81  204 1    
   163   82   83 2    
   164   82   84 am   BACKBONE|DICT|INTERRES
   165   84   85 1    
   166   84  205 1    
   167   85   86 1    
   168   85   87 1    
   169   85  206 1    
   170   86  207 1    
   171   86  208 1    
   172   86  209 1    
   173   87   88 2    
   174   87   89 am   BACKBONE|DICT|INTERRES
   175   89   90 1    
   176   89  210 1    
   177   90   91 1    
   178   90   92 1    
   179   90  211 1    
   180   91  212 1    
   181   91  213 1    
   182   91  214 1    
   183   92   93 2    
   184   92   94 am   BACKBONE|DICT|INTERRES
   185   94   95 1    
   186   94  215 1    
   187   95   96 1    
   188   95   97 1    
   189   95  216 1    
   190   96  217 1    
   191   96  218 1    
   192   96  219 1    
   193   97   98 2    
   194   97   99 am   BACKBONE|DICT|INTERRES
   195   99  100 1    
   196   99  220 1    
   197  100  101 1    
   198  100  102 1    
   199  100  221 1    
   200  101  222 1    
   201  101  223 1    
   202  101  224 1    
   203  102  103 2    
   204  102  104 am   BACKBONE|DICT|INTERRES
   205  104  105 1    
   206  104  225 1    
   207  105  106 1    
   208  105  107 1    
   209  105  226 1    
   210  106  227 1    
   211  106  228 1    
   212  106  229 1    
   213  107  108 2    
   214  107  109 am   BACKBONE|DICT|INTERRES
   215  109  110 1    
   216  109  230 1    
   217  110  111 1    
   218  110  112 1    
   219  110  231 1    
   220  111  232 1    
   221  111  233 1    
   222  111  234 1    
   223  112  113 2    
   224  112  114 am   BACKBONE|DICT|INTERRES
   225  114  115 1    
   226  114  235 1    
   227  115  116 1    
   228  115  117 1    
   229  115  236 1    
   230  116  237 1    
   231  116  238 1    
   232  116  239 1    
   233  117  118 2    
   234  117  119 am   BACKBONE|DICT|INTERRES
   235  119  120 1    
   236  119  240 1    
   237  120  121 1    
   238  120  124 1    
   239  120  241 1    
   240  121  122 am   BACKBONE|DICT|INTERRES
   241  121  123 2    
   242  122  242 1    
   243  122  243 1    
   244  124  125 1    
   245  124  244 1    
   246  124  245 1    
   247  125  126 1    
   248  126  246 1    
   249  126  247 1    
@<TRIPOS>SUBSTRUCTURE
     1 UNK         1 GROUP             0       ****    0 ROOT    
