@<TRIPOS>MOLECULE
3R540
247   249    1
SMALL
USER_CHARGES


@<TRIPOS>ATOM
      1 CA         -6.6355  -13.4710  -41.8713 C.3       0 UNK        -0.1800 
      2 C          -5.3209  -13.1030  -42.5438 C.2       0 UNK         0.5000 
      3 O          -4.4182  -12.5851  -41.8868 O.2       0 UNK        -0.5000 
      4 N          -5.2004  -13.3827  -43.8478 N.am      1 UNK        -0.5000 
      5 CA         -4.0187  -13.0923  -44.6716 C.3       1 UNK         0.1400 
      6 C6         -4.3916  -12.8672  -46.1586 C.3       23 UNK        -0.0398 
      7 S7         -5.1658  -14.3082  -46.9768 S.3       23 UNK        -0.2404 
      8 C8         -4.8080  -13.9591  -48.7317 C.3       23 UNK        -0.0205 
      9 C9         -3.6078  -14.7295  -49.2755 C.ar      23 UNK        -0.0193 
     10 C10        -3.7496  -15.5253  -50.4180 C.ar      23 UNK        -0.1150 
     11 C11        -2.6505  -16.1970  -50.9626 C.ar      23 UNK        -0.0193 
     12 C12        -1.4005  -16.0773  -50.3500 C.ar      23 UNK        -0.1150 
     13 C13        -1.2454  -15.2970  -49.2011 C.ar      23 UNK        -0.0193 
     14 C14        -2.3490  -14.6200  -48.6756 C.ar      23 UNK        -0.1150 
     15 C15         0.1121  -15.1888  -48.5220 C.3       23 UNK        -0.0205 
     16 S16         0.6308  -16.7564  -47.7570 S.3       23 UNK        -0.2404 
     17 C17        -0.7590  -17.1136  -46.6306 C.3       23 UNK        -0.0398 
     18 CA         -1.7236  -18.1651  -47.2231 C.3       11 UNK         0.1400 
     19 N          -1.0469  -19.4377  -47.4906 N.am      11 UNK        -0.5000 
     20 C          -1.5763  -20.4405  -48.1987 C.2       10 UNK         0.5000 
     21 O          -2.7055  -20.4094  -48.6795 O.2       10 UNK        -0.5000 
     22 CA         -0.7383  -21.7190  -48.3269 C.3       10 UNK         0.1400 
     23 CB          0.3452  -21.5770  -49.4067 C.3       10 UNK        -0.1800 
     24 N          -0.1357  -22.0823  -47.0468 N.am      10 UNK        -0.5000 
     25 C          -0.8271  -22.5708  -46.0076 C.2       9 UNK         0.5000 
     26 O          -2.0323  -22.8216  -46.0459 O.2       9 UNK        -0.5000 
     27 CA         -0.0499  -22.7740  -44.6939 C.3       9 UNK         0.1400 
     28 CB          0.6695  -24.1307  -44.6969 C.3       9 UNK        -0.1800 
     29 N           0.9195  -21.7060  -44.4346 N.am      9 UNK        -0.5000 
     30 C           0.5833  -20.4343  -44.1763 C.2       8 UNK         0.5000 
     31 O          -0.5779  -20.0382  -44.1092 O.2       8 UNK        -0.5000 
     32 CA          1.7275  -19.4207  -44.0088 C.3       8 UNK         0.1400 
     33 CB          2.2113  -19.3810  -42.5524 C.3       8 UNK        -0.1800 
     34 N           2.8732  -19.6253  -44.8958 N.am      8 UNK        -0.5000 
     35 C           2.8314  -19.6835  -46.2328 C.2       7 UNK         0.5000 
     36 O           1.7843  -19.7754  -46.8737 O.2       7 UNK        -0.5000 
     37 CA          4.1873  -19.5949  -46.9663 C.3       7 UNK         0.1400 
     38 CB          4.0255  -19.5772  -48.4976 C.3       7 UNK        -0.1800 
     39 N           4.9423  -18.4050  -46.5618 N.am      7 UNK        -0.5000 
     40 C           5.6323  -18.2633  -45.4214 C.2       6 UNK         0.5000 
     41 O           5.7435  -19.1595  -44.5834 O.2       6 UNK        -0.5000 
     42 CA          6.2840  -16.8927  -45.1517 C.3       6 UNK         0.1400 
     43 CB          7.7742  -16.9270  -45.5239 C.3       6 UNK        -0.1800 
     44 N           5.6434  -15.7767  -45.8545 N.am      6 UNK        -0.5000 
     45 C           4.4199  -15.3007  -45.5878 C.2       5 UNK         0.5000 
     46 O           3.6697  -15.7710  -44.7290 O.2       5 UNK        -0.5000 
     47 CA          3.9709  -14.0962  -46.4282 C.3       5 UNK         0.1400 
     48 CB          3.7664  -14.4794  -47.9056 C.3       5 UNK        -0.1800 
     49 N           2.7392  -13.5460  -45.8684 N.am      5 UNK        -0.5000 
     50 C           2.3545  -12.2685  -45.9684 C.2       4 UNK         0.5000 
     51 O           2.9626  -11.4304  -46.6362 O.2       4 UNK        -0.5000 
     52 CA          1.0971  -11.8277  -45.1904 C.3       4 UNK         0.1400 
     53 CB         -0.0751  -11.5582  -46.1474 C.3       4 UNK        -0.1800 
     54 N           0.6706  -12.7544  -44.1342 N.am      4 UNK        -0.5000 
     55 C           1.3163  -12.9065  -42.9663 C.2       3 UNK         0.5000 
     56 O           2.3853  -12.3474  -42.7167 O.2       3 UNK        -0.5000 
     57 CA          0.6703  -13.7832  -41.8720 C.3       3 UNK         0.1400 
     58 CB          0.3705  -12.9449  -40.6178 C.3       3 UNK        -0.1800 
     59 N          -0.5728  -14.4284  -42.2930 N.am      3 UNK        -0.5000 
     60 C          -0.6531  -15.6359  -42.8645 C.2       2 UNK         0.5000 
     61 O           0.3225  -16.3445  -43.1019 O.2       2 UNK        -0.5000 
     62 CA         -2.0621  -16.1349  -43.2465 C.3       2 UNK         0.1400 
     63 CB         -2.6409  -17.0040  -42.1212 C.3       2 UNK        -0.1800 
     64 N          -3.0259  -15.0787  -43.5728 N.am      2 UNK        -0.5000 
     65 C          -2.8692  -14.1121  -44.4901 C.2       1 UNK         0.5000 
     66 O          -1.8454  -13.9868  -45.1601 O.2       1 UNK        -0.5000 
     67 C          -2.9961  -18.3369  -46.3617 C.2       11 UNK         0.5000 
     68 O          -3.9807  -17.6360  -46.5874 O.2       11 UNK        -0.5000 
     69 N          -2.9816  -19.2994  -45.4287 N.am      12 UNK        -0.5000 
     70 CA         -4.1461  -19.7359  -44.6532 C.3       12 UNK         0.1400 
     71 CB         -3.6565  -20.5035  -43.4142 C.3       12 UNK        -0.1800 
     72 C          -5.1272  -20.6180  -45.4550 C.2       12 UNK         0.5000 
     73 O          -6.2378  -20.8566  -44.9791 O.2       12 UNK        -0.5000 
     74 N          -4.6978  -21.1057  -46.6288 N.am      13 UNK        -0.5000 
     75 CA         -5.3854  -22.0405  -47.5237 C.3       13 UNK         0.1400 
     76 CB         -6.6463  -21.3948  -48.1336 C.3       13 UNK        -0.1800 
     77 C          -5.6621  -23.4101  -46.8704 C.2       13 UNK         0.5000 
     78 O          -6.6896  -24.0314  -47.1527 O.2       13 UNK        -0.5000 
     79 N          -4.7328  -23.8695  -46.0194 N.am      14 UNK        -0.5000 
     80 CA         -4.7933  -25.1506  -45.3170 C.3       14 UNK         0.1400 
     81 CB         -3.6256  -25.2403  -44.3219 C.3       14 UNK        -0.1800 
     82 C          -4.7606  -26.3139  -46.3212 C.2       14 UNK         0.5000 
     83 O          -3.7904  -26.4365  -47.0685 O.2       14 UNK        -0.5000 
     84 N          -5.8502  -27.0928  -46.3739 N.am      15 UNK        -0.5000 
     85 CA         -6.1088  -28.1641  -47.3470 C.3       15 UNK         0.1400 
     86 CB         -5.1586  -29.3566  -47.1077 C.3       15 UNK        -0.1800 
     87 C          -6.0991  -27.6748  -48.8160 C.2       15 UNK         0.5000 
     88 O          -5.7427  -28.4378  -49.7154 O.2       15 UNK        -0.5000 
     89 N          -6.4836  -26.4043  -49.0241 N.am      16 UNK        -0.5000 
     90 CA         -6.5084  -25.6761  -50.2974 C.3       16 UNK         0.1400 
     91 CB         -7.5173  -26.3047  -51.2815 C.3       16 UNK        -0.1800 
     92 C          -5.1098  -25.4637  -50.9194 C.2       16 UNK         0.5000 
     93 O          -4.9919  -25.3494  -52.1406 O.2       16 UNK        -0.5000 
     94 N          -4.0715  -25.3697  -50.0733 N.am      17 UNK        -0.5000 
     95 CA         -2.6720  -25.1637  -50.4676 C.3       17 UNK         0.1400 
     96 CB         -1.7640  -25.4084  -49.2516 C.3       17 UNK        -0.1800 
     97 C          -2.3601  -23.7930  -51.1056 C.2       17 UNK         0.5000 
     98 O          -1.2433  -23.6033  -51.5850 O.2       17 UNK        -0.5000 
     99 N          -3.3294  -22.8652  -51.1207 N.am      18 UNK        -0.5000 
    100 CA        -3.2262  -21.5099  -51.6765 C.3       18 UNK         0.1400 
    101 CB        -4.5718  -20.7900  -51.5097 C.3       18 UNK        -0.1800 
    102 C         -2.7593  -21.4414  -53.1397 C.2       18 UNK         0.5000 
    103 O         -2.1133  -20.4642  -53.5171 O.2       18 UNK        -0.5000 
    104 N         -3.0279  -22.4999  -53.9152 N.am      19 UNK        -0.5000 
    105 CA        -2.5440  -22.6912  -55.2827 C.3       19 UNK         0.1400 
    106 CB        -3.1626  -23.9773  -55.8501 C.3       19 UNK        -0.1800 
    107 C         -1.0057  -22.7316  -55.4096 C.2       19 UNK         0.5000 
    108 O         -0.4883  -22.4233  -56.4826 O.2       19 UNK        -0.5000 
    109 N         -0.2940  -23.0772  -54.3263 N.am      20 UNK        -0.5000 
    110 CA         1.1685  -23.0595  -54.2725 C.3       20 UNK         0.1400 
    111 CB         1.6437  -23.9187  -53.0908 C.3       20 UNK        -0.1800 
    112 C          1.7494  -21.6354  -54.1652 C.2       20 UNK         0.5000 
    113 O          2.8921  -21.4256  -54.5722 O.2       20 UNK        -0.5000 
    114 N          0.9697  -20.6934  -53.6177 N.am      21 UNK        -0.5000 
    115 CA         1.3735  -19.3034  -53.4058 C.3       21 UNK         0.1400 
    116 CB         0.9673  -18.8689  -51.9882 C.3       21 UNK        -0.1800 
    117 C          0.7690  -18.3659  -54.4641 C.2       21 UNK         0.5000 
    118 O          1.4862  -17.5190  -54.9987 O.2       21 UNK        -0.5000 
    119 N         -0.5275  -18.5339  -54.7492 N.am      22 UNK        -0.5000 
    120 CA        -1.3089  -17.7048  -55.6824 C.3       22 UNK         0.1400 
    121 C         -1.5401  -18.3663  -57.0719 C.2       22 UNK         0.5000 
    122 N         -1.0444  -19.5668  -57.3394 N.am      22 UNK        -0.7600 
    123 O         -2.1666  -17.7671  -57.9423 O.2       22 UNK        -0.5000 
    124 C124       -2.6481  -17.2547  -55.0405 C.3       23 UNK        -0.0398 
    125 S125       -2.3915  -16.0507  -53.6938 S.3       23 UNK        -0.2404 
    126 C126       -2.8076  -17.0337  -52.2228 C.3       23 UNK        -0.0205 
    127 H127       -7.1061  -12.5800  -41.4559 H         1 UNK         0.0600 
    128 H128       -6.4573  -14.1745  -41.0580 H         1 UNK         0.0600 
    129 H129       -7.3345  -13.9298  -42.5712 H         1 UNK         0.0600 
    130 H130       -5.9657  -13.8267  -44.3370 H         1 UNK         0.3000 
    131 H131       -3.6065  -12.1436  -44.3209 H         1 UNK         0.0600 
    132 H132       -3.5141  -12.5457  -46.7202 H         1 UNK         0.0800 
    133 H133       -5.0928  -12.0345  -46.2290 H         1 UNK         0.0800 
    134 H134       -4.6463  -12.8906  -48.8794 H         1 UNK         0.0800 
    135 H135       -5.7025  -14.2068  -49.3052 H         1 UNK         0.0800 
    136 H136       -4.7142  -15.6088  -50.8989 H         1 UNK         0.1150 
    137 H137       -0.5472  -16.5945  -50.7631 H         1 UNK         0.1150 
    138 H138       -2.2238  -14.0123  -47.7931 H         1 UNK         0.1150 
    139 H139        0.8589  -14.8875  -49.2576 H         1 UNK         0.0800 
    140 H140        0.1063  -14.4147  -47.7554 H         1 UNK         0.0800 
    141 H141       -1.2858  -16.1852  -46.4119 H         1 UNK         0.0800 
    142 H142       -0.3435  -17.4665  -45.6866 H         1 UNK         0.0800 
    143 H143       -2.0706  -17.7902  -48.1873 H         1 UNK         0.0600 
    144 H144       -0.0882  -19.5240  -47.1617 H         1 UNK         0.3000 
    145 H145       -1.4101  -22.5222  -48.6294 H         1 UNK         0.0600 
    146 H146        0.9084  -22.5028  -49.5237 H         1 UNK         0.0600 
    147 H147       -0.0993  -21.3466  -50.3752 H         1 UNK         0.0600 
    148 H148        1.0502  -20.7795  -49.1752 H         1 UNK         0.0600 
    149 H149        0.8259  -21.8035  -46.9061 H         1 UNK         0.3000 
    150 H150       -0.7769  -22.7766  -43.8788 H         1 UNK         0.0600 
    151 H151       -0.0344  -24.9449  -44.8748 H         1 UNK         0.0600 
    152 H152        1.1518  -24.3231  -43.7384 H         1 UNK         0.0600 
    153 H153        1.4329  -24.1812  -45.4742 H         1 UNK         0.0600 
    154 H154        1.8986  -21.9461  -44.4854 H         1 UNK         0.3000 
    155 H155        1.3220  -18.4394  -44.2555 H         1 UNK         0.0600 
    156 H156        2.6810  -20.3200  -42.2576 H         1 UNK         0.0600 
    157 H157        1.3796  -19.1971  -41.8707 H         1 UNK         0.0600 
    158 H158        2.9344  -18.5790  -42.4017 H         1 UNK         0.0600 
    159 H159        3.7915  -19.5527  -44.4705 H         1 UNK         0.3000 
    160 H160        4.7601  -20.4854  -46.7002 H         1 UNK         0.0600 
    161 H161        3.4323  -18.7238  -48.8301 H         1 UNK         0.0600 
    162 H162        3.5261  -20.4810  -48.8486 H         1 UNK         0.0600 
    163 H163        4.9931  -19.5292  -48.9971 H         1 UNK         0.0600 
    164 H164        4.8719  -17.6044  -47.1717 H         1 UNK         0.3000 
    165 H165        6.2058  -16.7031  -44.0790 H         1 UNK         0.0600 
    166 H166        8.2697  -15.9933  -45.2572 H         1 UNK         0.0600 
    167 H167        8.2911  -17.7292  -44.9953 H         1 UNK         0.0600 
    168 H168        7.9186  -17.0921  -46.5924 H         1 UNK         0.0600 
    169 H169        6.1938  -15.3305  -46.5743 H         1 UNK         0.3000 
    170 H170        4.7567  -13.3408  -46.3598 H         1 UNK         0.0600 
    171 H171        4.7109  -14.7584  -48.3733 H         1 UNK         0.0600 
    172 H172        3.0918  -15.3268  -48.0100 H         1 UNK         0.0600 
    173 H173        3.3560  -13.6503  -48.4821 H         1 UNK         0.0600 
    174 H174        2.2341  -14.1761  -45.2574 H         1 UNK         0.3000 
    175 H175        1.3456  -10.8780  -44.7117 H         1 UNK         0.0600 
    176 H176       -0.3650  -12.4533  -46.6947 H         1 UNK         0.0600 
    177 H177       -0.9510  -11.1962  -45.6089 H         1 UNK         0.0600 
    178 H178        0.1890  -10.7988  -46.8844 H         1 UNK         0.0600 
    179 H179       -0.1890  -13.2670  -44.3043 H         1 UNK         0.3000 
    180 H180        1.4023  -14.5462  -41.5987 H         1 UNK         0.0600 
    181 H181       -0.0416  -13.5631  -39.8200 H         1 UNK         0.0600 
    182 H182       -0.3439  -12.1479  -40.8282 H         1 UNK         0.0600 
    183 H183        1.2767  -12.4794  -40.2280 H         1 UNK         0.0600 
    184 H184       -1.4265  -13.9096  -42.1438 H         1 UNK         0.3000 
    185 H185       -1.9578  -16.7627  -44.1287 H         1 UNK         0.0600 
    186 H186       -1.9656  -17.8257  -41.8779 H         1 UNK         0.0600 
    187 H187       -2.7995  -16.4274  -41.2090 H         1 UNK         0.0600 
    188 H188       -3.5951  -17.4433  -42.4116 H         1 UNK         0.0600 
    189 H189       -3.8950  -15.0914  -43.0603 H         1 UNK         0.3000 
    190 H190       -2.1070  -19.7768  -45.2269 H         1 UNK         0.3000 
    191 H191       -4.6930  -18.8526  -44.3176 H         1 UNK         0.0600 
    192 H192       -4.4926  -20.8068  -42.7830 H         1 UNK         0.0600 
    193 H193       -2.9954  -19.8919  -42.8017 H         1 UNK         0.0600 
    194 H194       -3.1115  -21.4063  -43.6932 H         1 UNK         0.0600 
    195 H195       -3.7783  -20.8232  -46.9460 H         1 UNK         0.3000 
    196 H196       -4.6910  -22.2382  -48.3408 H         1 UNK         0.0600 
    197 H197       -7.4282  -21.2503  -47.3877 H         1 UNK         0.0600 
    198 H198       -6.4191  -20.4231  -48.5718 H         1 UNK         0.0600 
    199 H199       -7.0614  -22.0192  -48.9255 H         1 UNK         0.0600 
    200 H200       -3.8673  -23.3452  -45.9172 H         1 UNK         0.3000 
    201 H201       -5.7277  -25.1832  -44.7531 H         1 UNK         0.0600 
    202 H202       -2.6608  -25.2216  -44.8301 H         1 UNK         0.0600 
    203 H203       -3.6749  -26.1653  -43.7464 H         1 UNK         0.0600 
    204 H204       -3.6457  -24.4120  -43.6133 H         1 UNK         0.0600 
    205 H205       -6.6129  -26.8903  -45.7421 H         1 UNK         0.3000 
    206 H206       -7.1250  -28.5112  -47.1551 H         1 UNK         0.0600 
    207 H207       -5.1902  -29.6836  -46.0684 H         1 UNK         0.0600 
    208 H208       -5.4399  -30.2117  -47.7235 H         1 UNK         0.0600 
    209 H209       -4.1252  -29.1065  -47.3496 H         1 UNK         0.0600 
    210 H210       -6.7306  -25.8465  -48.2128 H         1 UNK         0.3000 
    211 H211       -6.8756  -24.6774  -50.0562 H         1 UNK         0.0600 
    212 H212       -7.6600  -25.6677  -52.1552 H         1 UNK         0.0600 
    213 H213       -8.4939  -26.4354  -50.8155 H         1 UNK         0.0600 
    214 H214       -7.1831  -27.2782  -51.6410 H         1 UNK         0.0600 
    215 H215       -4.2318  -25.5356  -49.0871 H         1 UNK         0.3000 
    216 H216       -2.4275  -25.9142  -51.2219 H         1 UNK         0.0600 
    217 H217       -2.0386  -24.7744  -48.4079 H         1 UNK         0.0600 
    218 H218       -0.7169  -25.2110  -49.4853 H         1 UNK         0.0600 
    219 H219       -1.8263  -26.4455  -48.9220 H         1 UNK         0.0600 
    220 H220       -4.2216  -23.1185  -50.7274 H         1 UNK         0.3000 
    221 H221       -2.4717  -20.9742  -51.1027 H         1 UNK         0.0600 
    222 H222       -4.8354  -20.6908  -50.4576 H         1 UNK         0.0600 
    223 H223       -5.3792  -21.3229  -52.0128 H         1 UNK         0.0600 
    224 H224       -4.5326  -19.7826  -51.9253 H         1 UNK         0.0600 
    225 H225       -3.5524  -23.2632  -53.5115 H         1 UNK         0.3000 
    226 H226       -2.8963  -21.8468  -55.8788 H         1 UNK         0.0600 
    227 H227       -2.8672  -24.8538  -55.2718 H         1 UNK         0.0600 
    228 H228       -4.2515  -23.9254  -55.8486 H         1 UNK         0.0600 
    229 H229       -2.8476  -24.1419  -56.8812 H         1 UNK         0.0600 
    230 H230       -0.7732  -23.3068  -53.4604 H         1 UNK         0.3000 
    231 H231        1.5538  -23.5082  -55.1904 H         1 UNK         0.0600 
    232 H232        1.3500  -23.4860  -52.1340 H         1 UNK         0.0600 
    233 H233        2.7306  -24.0074  -53.0873 H         1 UNK         0.0600 
    234 H234        1.2343  -24.9277  -53.1436 H         1 UNK         0.0600 
    235 H235        0.0241  -20.9387  -53.3578 H         1 UNK         0.3000 
    236 H236        2.4597  -19.2108  -53.4731 H         1 UNK         0.0600 
    237 H237        1.5112  -19.4395  -51.2358 H         1 UNK         0.0600 
    238 H238        1.1988  -17.8164  -51.8212 H         1 UNK         0.0600 
    239 H239       -0.0984  -19.0095  -51.8075 H         1 UNK         0.0600 
    240 H240       -1.0558  -19.2608  -54.2703 H         1 UNK         0.3000 
    241 H241       -0.7445  -16.7983  -55.9086 H         1 UNK         0.0600 
    242 H242       -1.1986  -19.9713  -58.2493 H         1 UNK         0.3800 
    243 H243       -0.5254  -20.0891  -56.6500 H         1 UNK         0.3800 
    244 H244       -3.2126  -18.1160  -54.6793 H         1 UNK         0.0800 
    245 H245       -3.2874  -16.7628  -55.7755 H         1 UNK         0.0800 
    246 H246       -2.1662  -17.9140  -52.1735 H         1 UNK         0.0800 
    247 H247       -3.8317  -17.3997  -52.3079 H         1 UNK         0.0800 
@<TRIPOS>BOND
     1    1    2 1    
     2    1  127 1    
     3    1  128 1    
     4    1  129 1    
     5    2    3 2    
     6    2    4 am   BACKBONE|DICT|INTERRES
     7    4    5 1    
     8    4  130 1    
     9    5    6 1    
    10    5   65 1    
    11    5  131 1    
    12    6    7 1    
    13    6  132 1    
    14    6  133 1    
    15    7    8 1    
    16    8    9 1    
    17    8  134 1    
    18    8  135 1    
    19    9   10 ar   
    20    9   14 ar   
    21   10   11 ar   
    22   10  136 1    
    23   11   12 ar   
    24   11  126 1    
    25   12   13 ar   
    26   12  137 1    
    27   13   14 ar   
    28   13   15 1    
    29   14  138 1    
    30   15   16 1    
    31   15  139 1    
    32   15  140 1    
    33   16   17 1    
    34   17   18 1    
    35   17  141 1    
    36   17  142 1    
    37   18   19 1    
    38   18   67 1    
    39   18  143 1    
    40   19   20 am   BACKBONE|DICT|INTERRES
    41   19  144 1    
    42   20   21 2    
    43   20   22 1    
    44   22   23 1    
    45   22   24 1    
    46   22  145 1    
    47   23  146 1    
    48   23  147 1    
    49   23  148 1    
    50   24   25 am   BACKBONE|DICT|INTERRES
    51   24  149 1    
    52   25   26 2    
    53   25   27 1    
    54   27   28 1    
    55   27   29 1    
    56   27  150 1    
    57   28  151 1    
    58   28  152 1    
    59   28  153 1    
    60   29   30 am   BACKBONE|DICT|INTERRES
    61   29  154 1    
    62   30   31 2    
    63   30   32 1    
    64   32   33 1    
    65   32   34 1    
    66   32  155 1    
    67   33  156 1    
    68   33  157 1    
    69   33  158 1    
    70   34   35 am   BACKBONE|DICT|INTERRES
    71   34  159 1    
    72   35   36 2    
    73   35   37 1    
    74   37   38 1    
    75   37   39 1    
    76   37  160 1    
    77   38  161 1    
    78   38  162 1    
    79   38  163 1    
    80   39   40 am   BACKBONE|DICT|INTERRES
    81   39  164 1    
    82   40   41 2    
    83   40   42 1    
    84   42   43 1    
    85   42   44 1    
    86   42  165 1    
    87   43  166 1    
    88   43  167 1    
    89   43  168 1    
    90   44   45 am   BACKBONE|DICT|INTERRES
    91   44  169 1    
    92   45   46 2    
    93   45   47 1    
    94   47   48 1    
    95   47   49 1    
    96   47  170 1    
    97   48  171 1    
    98   48  172 1    
    99   48  173 1    
   100   49   50 am   BACKBONE|DICT|INTERRES
   101   49  174 1    
   102   50   51 2    
   103   50   52 1    
   104   52   53 1    
   105   52   54 1    
   106   52  175 1    
   107   53  176 1    
   108   53  177 1    
   109   53  178 1    
   110   54   55 am   BACKBONE|DICT|INTERRES
   111   54  179 1    
   112   55   56 2    
   113   55   57 1    
   114   57   58 1    
   115   57   59 1    
   116   57  180 1    
   117   58  181 1    
   118   58  182 1    
   119   58  183 1    
   120   59   60 am   BACKBONE|DICT|INTERRES
   121   59  184 1    
   122   60   61 2    
   123   60   62 1    
   124   62   63 1    
   125   62   64 1    
   126   62  185 1    
   127   63  186 1    
   128   63  187 1    
   129   63  188 1    
   130   64   65 am   BACKBONE|DICT|INTERRES
   131   64  189 1    
   132   65   66 2    
   133   67   68 2    
   134   67   69 am   BACKBONE|DICT|INTERRES
   135   69   70 1    
   136   69  190 1    
   137   70   71 1    
   138   70   72 1    
   139   70  191 1    
   140   71  192 1    
   141   71  193 1    
   142   71  194 1    
   143   72   73 2    
   144   72   74 am   BACKBONE|DICT|INTERRES
   145   74   75 1    
   146   74  195 1    
   147   75   76 1    
   148   75   77 1    
   149   75  196 1    
   150   76  197 1    
   151   76  198 1    
   152   76  199 1    
   153   77   78 2    
   154   77   79 am   BACKBONE|DICT|INTERRES
   155   79   80 1    
   156   79  200 1    
   157   80   81 1    
   158   80   82 1    
   159   80  201 1    
   160   81  202 1    
   161   81  203 1    
   162   81  204 1    
   163   82   83 2    
   164   82   84 am   BACKBONE|DICT|INTERRES
   165   84   85 1    
   166   84  205 1    
   167   85   86 1    
   168   85   87 1    
   169   85  206 1    
   170   86  207 1    
   171   86  208 1    
   172   86  209 1    
   173   87   88 2    
   174   87   89 am   BACKBONE|DICT|INTERRES
   175   89   90 1    
   176   89  210 1    
   177   90   91 1    
   178   90   92 1    
   179   90  211 1    
   180   91  212 1    
   181   91  213 1    
   182   91  214 1    
   183   92   93 2    
   184   92   94 am   BACKBONE|DICT|INTERRES
   185   94   95 1    
   186   94  215 1    
   187   95   96 1    
   188   95   97 1    
   189   95  216 1    
   190   96  217 1    
   191   96  218 1    
   192   96  219 1    
   193   97   98 2    
   194   97   99 am   BACKBONE|DICT|INTERRES
   195   99  100 1    
   196   99  220 1    
   197  100  101 1    
   198  100  102 1    
   199  100  221 1    
   200  101  222 1    
   201  101  223 1    
   202  101  224 1    
   203  102  103 2    
   204  102  104 am   BACKBONE|DICT|INTERRES
   205  104  105 1    
   206  104  225 1    
   207  105  106 1    
   208  105  107 1    
   209  105  226 1    
   210  106  227 1    
   211  106  228 1    
   212  106  229 1    
   213  107  108 2    
   214  107  109 am   BACKBONE|DICT|INTERRES
   215  109  110 1    
   216  109  230 1    
   217  110  111 1    
   218  110  112 1    
   219  110  231 1    
   220  111  232 1    
   221  111  233 1    
   222  111  234 1    
   223  112  113 2    
   224  112  114 am   BACKBONE|DICT|INTERRES
   225  114  115 1    
   226  114  235 1    
   227  115  116 1    
   228  115  117 1    
   229  115  236 1    
   230  116  237 1    
   231  116  238 1    
   232  116  239 1    
   233  117  118 2    
   234  117  119 am   BACKBONE|DICT|INTERRES
   235  119  120 1    
   236  119  240 1    
   237  120  121 1    
   238  120  124 1    
   239  120  241 1    
   240  121  122 am   BACKBONE|DICT|INTERRES
   241  121  123 2    
   242  122  242 1    
   243  122  243 1    
   244  124  125 1    
   245  124  244 1    
   246  124  245 1    
   247  125  126 1    
   248  126  246 1    
   249  126  247 1    
@<TRIPOS>SUBSTRUCTURE
     1 UNK         1 GROUP             0       ****    0 ROOT    
