@<TRIPOS>MOLECULE
3R540
247   249    1
SMALL
USER_CHARGES


@<TRIPOS>ATOM
      1 CA         -2.4758  -12.1842  -46.5994 C.3       0 UNK        -0.1800 
      2 C          -1.7104  -13.4299  -46.1810 C.2       0 UNK         0.5000 
      3 O          -1.1101  -13.4475  -45.1079 O.2       0 UNK        -0.5000 
      4 N          -1.7373  -14.4786  -47.0133 N.am      1 UNK        -0.5000 
      5 CA         -1.0069  -15.7371  -46.7944 C.3       1 UNK         0.1400 
      6 C6         -0.8818  -16.5870  -48.0825 C.3       23 UNK        -0.0398 
      7 S7         -0.2307  -15.6278  -49.4904 S.3       23 UNK        -0.2404 
      8 C8          1.5407  -16.0242  -49.4166 C.3       23 UNK        -0.0205 
      9 C9          1.8869  -17.2234  -50.2824 C.ar      23 UNK        -0.0193 
     10 C10         2.0125  -17.0632  -51.6648 C.ar      23 UNK        -0.1150 
     11 C11         2.3803  -18.1380  -52.4781 C.ar      23 UNK        -0.0193 
     12 C12         2.6231  -19.3841  -51.8914 C.ar      23 UNK        -0.1150 
     13 C13         2.4726  -19.5652  -50.5132 C.ar      23 UNK        -0.0193 
     14 C14         2.1104  -18.4789  -49.7105 C.ar      23 UNK        -0.1150 
     15 C15         2.7117  -20.9354  -49.8974 C.3       23 UNK        -0.0205 
     16 S16         1.2348  -21.9913  -50.0252 S.3       23 UNK        -0.2404 
     17 C17         0.1280  -21.1933  -48.8163 C.3       23 UNK        -0.0398 
     18 CA         -0.8949  -22.1861  -48.2234 C.3       11 UNK         0.1400 
     19 N          -0.2506  -23.2553  -47.4563 N.am      11 UNK        -0.5000 
     20 C          -0.8674  -24.3081  -46.8993 C.2       10 UNK         0.5000 
     21 O          -2.0843  -24.4875  -46.9433 O.2       10 UNK        -0.5000 
     22 CA          0.0226  -25.3205  -46.1519 C.3       10 UNK         0.1400 
     23 CB          0.3494  -26.5145  -47.0610 C.3       10 UNK        -0.1800 
     24 N           1.2728  -24.7202  -45.6789 N.am      10 UNK        -0.5000 
     25 C           1.3552  -23.8677  -44.6488 C.2       9 UNK         0.5000 
     26 O           0.4060  -23.6222  -43.9002 O.2       9 UNK        -0.5000 
     27 CA          2.7122  -23.1554  -44.4289 C.3       9 UNK         0.1400 
     28 CB          3.6022  -23.1176  -45.6930 C.3       9 UNK        -0.1800 
     29 N           2.5549  -21.7971  -43.8928 N.am      9 UNK        -0.5000 
     30 C           1.8201  -20.8066  -44.4227 C.2       8 UNK         0.5000 
     31 O           1.1941  -20.8956  -45.4795 O.2       8 UNK        -0.5000 
     32 CA          1.8047  -19.4885  -43.6411 C.3       8 UNK         0.1400 
     33 CB          1.2850  -19.6832  -42.2005 C.3       8 UNK        -0.1800 
     34 N           3.1500  -18.9165  -43.6523 N.am      8 UNK        -0.5000 
     35 C           3.5189  -17.6493  -43.4197 C.2       7 UNK         0.5000 
     36 O           4.6958  -17.3022  -43.5321 O.2       7 UNK        -0.5000 
     37 CA          2.4803  -16.5983  -42.9552 C.3       7 UNK         0.1400 
     38 CB          2.6039  -16.3808  -41.4376 C.3       7 UNK        -0.1800 
     39 N           2.6383  -15.3058  -43.6250 N.am      7 UNK        -0.5000 
     40 C           2.5760  -15.1029  -44.9481 C.2       6 UNK         0.5000 
     41 O           2.3842  -15.9993  -45.7704 O.2       6 UNK        -0.5000 
     42 CA          2.7417  -13.6476  -45.4168 C.3       6 UNK         0.1400 
     43 CB          2.3610  -13.4216  -46.8938 C.3       6 UNK        -0.1800 
     44 N           1.9792  -12.7434  -44.5571 N.am      6 UNK        -0.5000 
     45 C           2.3235  -11.4759  -44.3000 C.2       5 UNK         0.5000 
     46 O           3.3260  -10.9317  -44.7656 O.2       5 UNK        -0.5000 
     47 CA          1.4066  -10.6738  -43.3572 C.3       5 UNK         0.1400 
     48 CB          0.2772  -10.0007  -44.1526 C.3       5 UNK        -0.1800 
     49 N           0.8175  -11.4625  -42.2743 N.am      5 UNK        -0.5000 
     50 C           1.4909  -12.1074  -41.3101 C.2       4 UNK         0.5000 
     51 O           2.7195  -12.1387  -41.2369 O.2       4 UNK        -0.5000 
     52 CA          0.6528  -12.8352  -40.2365 C.3       4 UNK         0.1400 
     53 CB          0.6494  -12.0324  -38.9263 C.3       4 UNK        -0.1800 
     54 N          -0.7352  -13.0897  -40.6359 N.am      4 UNK        -0.5000 
     55 C          -1.1078  -13.9213  -41.6169 C.2       3 UNK         0.5000 
     56 O          -0.3105  -14.5997  -42.2678 O.2       3 UNK        -0.5000 
     57 CA         -2.6139  -13.9690  -41.9275 C.3       3 UNK         0.1400 
     58 CB         -3.1378  -12.5847  -42.3533 C.3       3 UNK        -0.1800 
     59 N          -2.8592  -14.9041  -43.0199 N.am      3 UNK        -0.5000 
     60 C          -3.4808  -16.0843  -42.9143 C.2       2 UNK         0.5000 
     61 O          -3.9809  -16.4983  -41.8675 O.2       2 UNK        -0.5000 
     62 CA         -3.5748  -16.9539  -44.1849 C.3       2 UNK         0.1400 
     63 CB         -5.0384  -17.2115  -44.5765 C.3       2 UNK        -0.1800 
     64 N          -2.8798  -16.3641  -45.3309 N.am      2 UNK        -0.5000 
     65 C          -1.5931  -16.5764  -45.6398 C.2       1 UNK         0.5000 
     66 O          -0.8758  -17.3817  -45.0505 O.2       1 UNK        -0.5000 
     67 C          -1.9674  -21.4360  -47.4120 C.2       11 UNK         0.5000 
     68 O          -3.0124  -21.1007  -47.9682 O.2       11 UNK        -0.5000 
     69 N          -1.7133  -21.2218  -46.1144 N.am      12 UNK        -0.5000 
     70 CA         -2.6505  -20.6117  -45.1713 C.3       12 UNK         0.1400 
     71 CB         -1.9759  -20.4784  -43.7992 C.3       12 UNK        -0.1800 
     72 C          -3.9766  -21.3813  -45.0398 C.2       12 UNK         0.5000 
     73 O          -5.0381  -20.7587  -45.0100 O.2       12 UNK        -0.5000 
     74 N          -3.8892  -22.7173  -44.9914 N.am      13 UNK        -0.5000 
     75 CA         -5.0443  -23.6131  -44.9681 C.3       13 UNK         0.1400 
     76 CB         -4.6087  -24.9989  -44.4682 C.3       13 UNK        -0.1800 
     77 C          -5.7125  -23.7123  -46.3499 C.2       13 UNK         0.5000 
     78 O          -6.9410  -23.7104  -46.4376 O.2       13 UNK        -0.5000 
     79 N          -4.8944  -23.7609  -47.4088 N.am      14 UNK        -0.5000 
     80 CA         -5.3012  -23.8607  -48.8103 C.3       14 UNK         0.1400 
     81 CB         -4.1426  -24.4745  -49.6095 C.3       14 UNK        -0.1800 
     82 C          -5.7874  -22.5191  -49.4039 C.2       14 UNK         0.5000 
     83 O          -5.3383  -22.1180  -50.4815 O.2       14 UNK        -0.5000 
     84 N          -6.7265  -21.8717  -48.7010 N.am      15 UNK        -0.5000 
     85 CA         -7.4699  -20.6697  -49.0922 C.3       15 UNK         0.1400 
     86 CB         -8.4316  -21.0004  -50.2534 C.3       15 UNK        -0.1800 
     87 C          -6.5735  -19.4496  -49.3906 C.2       15 UNK         0.5000 
     88 O          -6.8382  -18.7137  -50.3414 O.2       15 UNK        -0.5000 
     89 N          -5.5219  -19.2653  -48.5783 N.am      16 UNK        -0.5000 
     90 CA         -4.4902  -18.2294  -48.7093 C.3       16 UNK         0.1400 
     91 CB         -5.0740  -16.8220  -48.4610 C.3       16 UNK        -0.1800 
     92 C          -3.7375  -18.3486  -50.0519 C.2       16 UNK         0.5000 
     93 O          -3.6967  -17.4018  -50.8374 O.2       16 UNK        -0.5000 
     94 N          -3.1886  -19.5479  -50.2808 N.am      17 UNK        -0.5000 
     95 CA         -2.4289  -20.0209  -51.4434 C.3       17 UNK         0.1400 
     96 CB         -1.2528  -19.0791  -51.7767 C.3       17 UNK        -0.1800 
     97 C          -3.2739  -20.3007  -52.6996 C.2       17 UNK         0.5000 
     98 O          -2.7474  -20.9092  -53.6321 O.2       17 UNK        -0.5000 
     99 N          -4.5445  -19.8760  -52.7230 N.am      18 UNK        -0.5000 
    100 CA        -5.4197  -19.9368  -53.8929 C.3       18 UNK         0.1400 
    101 CB        -6.6728  -19.0853  -53.6452 C.3       18 UNK        -0.1800 
    102 C         -5.8130  -21.3646  -54.3051 C.2       18 UNK         0.5000 
    103 O         -5.8643  -21.6453  -55.5030 O.2       18 UNK        -0.5000 
    104 N         -6.0679  -22.2451  -53.3261 N.am      19 UNK        -0.5000 
    105 CA        -6.4314  -23.6425  -53.5838 C.3       19 UNK         0.1400 
    106 CB        -7.2514  -24.2000  -52.4108 C.3       19 UNK        -0.1800 
    107 C         -5.1945  -24.5160  -53.8577 C.2       19 UNK         0.5000 
    108 O         -5.3029  -25.5153  -54.5689 O.2       19 UNK        -0.5000 
    109 N         -4.0397  -24.1132  -53.3095 N.am      20 UNK        -0.5000 
    110 CA        -2.7420  -24.7419  -53.5593 C.3       20 UNK         0.1400 
    111 CB        -1.7749  -24.3766  -52.4194 C.3       20 UNK        -0.1800 
    112 C         -2.1310  -24.3292  -54.9104 C.2       20 UNK         0.5000 
    113 O         -1.2382  -25.0221  -55.3991 O.2       20 UNK        -0.5000 
    114 N         -2.5651  -23.1786  -55.4488 N.am      21 UNK        -0.5000 
    115 CA        -1.9823  -22.4547  -56.5850 C.3       21 UNK         0.1400 
    116 CB        -2.2239  -23.2184  -57.9031 C.3       21 UNK        -0.1800 
    117 C         -0.4957  -22.1151  -56.3355 C.2       21 UNK         0.5000 
    118 O          0.3383  -22.2731  -57.2285 O.2       21 UNK        -0.5000 
    119 N         -0.1998  -21.7166  -55.0898 N.am      22 UNK        -0.5000 
    120 CA         1.1442  -21.5403  -54.5096 C.3       22 UNK         0.1400 
    121 C          1.9762  -22.8520  -54.3415 C.2       22 UNK         0.5000 
    122 N          1.4412  -24.0410  -54.5924 N.am      22 UNK        -0.7600 
    123 O          3.1338  -22.7971  -53.9360 O.2       22 UNK        -0.5000 
    124 C124        1.9677  -20.4156  -55.2001 C.3       23 UNK        -0.0398 
    125 S125        1.2454  -18.7566  -54.9550 S.3       23 UNK        -0.2404 
    126 C126        2.5464  -17.9305  -53.9785 C.3       23 UNK        -0.0205 
    127 H127       -1.7887  -11.3467  -46.7186 H         1 UNK         0.0600 
    128 H128       -3.0032  -12.3299  -47.5424 H         1 UNK         0.0600 
    129 H129       -3.2078  -11.9205  -45.8361 H         1 UNK         0.0600 
    130 H130       -2.2154  -14.3977  -47.8995 H         1 UNK         0.3000 
    131 H131        0.0019  -15.4671  -46.4879 H         1 UNK         0.0600 
    132 H132       -0.2472  -17.4589  -47.9124 H         1 UNK         0.0800 
    133 H133       -1.8555  -16.9731  -48.3758 H         1 UNK         0.0800 
    134 H134        1.8471  -16.1899  -48.3833 H         1 UNK         0.0800 
    135 H135        2.1057  -15.1578  -49.7633 H         1 UNK         0.0800 
    136 H136        1.8337  -16.0918  -52.1042 H         1 UNK         0.1150 
    137 H137        2.9247  -20.2204  -52.5039 H         1 UNK         0.1150 
    138 H138        2.0106  -18.6079  -48.6419 H         1 UNK         0.1150 
    139 H139        3.5389  -21.4270  -50.4117 H         1 UNK         0.0800 
    140 H140        3.0150  -20.8442  -48.8531 H         1 UNK         0.0800 
    141 H141        0.7232  -20.7410  -48.0227 H         1 UNK         0.0800 
    142 H142       -0.3766  -20.3699  -49.3188 H         1 UNK         0.0800 
    143 H143       -1.4112  -22.6634  -49.0573 H         1 UNK         0.0600 
    144 H144        0.7499  -23.1792  -47.3540 H         1 UNK         0.3000 
    145 H145       -0.5412  -25.6880  -45.2917 H         1 UNK         0.0600 
    146 H146        0.9311  -27.2676  -46.5292 H         1 UNK         0.0600 
    147 H147       -0.5633  -26.9982  -47.4119 H         1 UNK         0.0600 
    148 H148        0.9175  -26.2087  -47.9406 H         1 UNK         0.0600 
    149 H149        2.0980  -24.8948  -46.2341 H         1 UNK         0.3000 
    150 H150        3.2378  -23.7300  -43.6651 H         1 UNK         0.0600 
    151 H151        3.8923  -24.1198  -46.0101 H         1 UNK         0.0600 
    152 H152        4.5256  -22.5705  -45.5023 H         1 UNK         0.0600 
    153 H153        3.1005  -22.6319  -46.5311 H         1 UNK         0.0600 
    154 H154        2.9944  -21.6341  -42.9981 H         1 UNK         0.3000 
    155 H155        1.1262  -18.8309  -44.1849 H         1 UNK         0.0600 
    156 H156        0.4678  -20.4044  -42.1643 H         1 UNK         0.0600 
    157 H157        0.8962  -18.7550  -41.7847 H         1 UNK         0.0600 
    158 H158        2.0656  -20.0490  -41.5330 H         1 UNK         0.0600 
    159 H159        3.8644  -19.5589  -43.9647 H         1 UNK         0.3000 
    160 H160        1.4659  -16.9278  -43.1737 H         1 UNK         0.0600 
    161 H161        3.5377  -15.8807  -41.1774 H         1 UNK         0.0600 
    162 H162        2.5820  -17.3265  -40.8954 H         1 UNK         0.0600 
    163 H163        1.7812  -15.7771  -41.0596 H         1 UNK         0.0600 
    164 H164        2.8082  -14.5103  -43.0276 H         1 UNK         0.3000 
    165 H165        3.8060  -13.4283  -45.3088 H         1 UNK         0.0600 
    166 H166        2.5635  -12.3959  -47.2014 H         1 UNK         0.0600 
    167 H167        2.9394  -14.0712  -47.5510 H         1 UNK         0.0600 
    168 H168        1.3048  -13.6182  -47.0740 H         1 UNK         0.0600 
    169 H169        1.1242  -13.1174  -44.1598 H         1 UNK         0.3000 
    170 H170        2.0143   -9.8910  -42.8989 H         1 UNK         0.0600 
    171 H171        0.6782   -9.3921  -44.9642 H         1 UNK         0.0600 
    172 H172       -0.3949  -10.7367  -44.5955 H         1 UNK         0.0600 
    173 H173       -0.3166   -9.3432  -43.5175 H         1 UNK         0.0600 
    174 H174       -0.1897  -11.5088  -42.2529 H         1 UNK         0.3000 
    175 H175        1.1327  -13.7953  -40.0420 H         1 UNK         0.0600 
    176 H176        0.1668  -11.0621  -39.0501 H         1 UNK         0.0600 
    177 H177        0.1270  -12.5701  -38.1348 H         1 UNK         0.0600 
    178 H178        1.6663  -11.8506  -38.5757 H         1 UNK         0.0600 
    179 H179       -1.4442  -12.5699  -40.1388 H         1 UNK         0.3000 
    180 H180       -3.1360  -14.2816  -41.0211 H         1 UNK         0.0600 
    181 H181       -2.5778  -12.1809  -43.1974 H         1 UNK         0.0600 
    182 H182       -4.1867  -12.6360  -42.6458 H         1 UNK         0.0600 
    183 H183       -3.0696  -11.8634  -41.5384 H         1 UNK         0.0600 
    184 H184       -2.3654  -14.6863  -43.8773 H         1 UNK         0.3000 
    185 H185       -3.1218  -17.9117  -43.9334 H         1 UNK         0.0600 
    186 H186       -5.1027  -17.8994  -45.4196 H         1 UNK         0.0600 
    187 H187       -5.5921  -17.6658  -43.7539 H         1 UNK         0.0600 
    188 H188       -5.5521  -16.2893  -44.8504 H         1 UNK         0.0600 
    189 H189       -3.3884  -15.6675  -45.8558 H         1 UNK         0.3000 
    190 H190       -0.7975  -21.4703  -45.7556 H         1 UNK         0.3000 
    191 H191       -2.8862  -19.6137  -45.5443 H         1 UNK         0.0600 
    192 H192       -2.6753  -20.1178  -43.0438 H         1 UNK         0.0600 
    193 H193       -1.1548  -19.7658  -43.8435 H         1 UNK         0.0600 
    194 H194       -1.5782  -21.4322  -43.4500 H         1 UNK         0.0600 
    195 H195       -2.9791  -23.1486  -45.0708 H         1 UNK         0.3000 
    196 H196       -5.7806  -23.2161  -44.2658 H         1 UNK         0.0600 
    197 H197       -5.4603  -25.6784  -44.4150 H         1 UNK         0.0600 
    198 H198       -4.1778  -24.9395  -43.4687 H         1 UNK         0.0600 
    199 H199       -3.8675  -25.4540  -45.1259 H         1 UNK         0.0600 
    200 H200       -3.8937  -23.7785  -47.2371 H         1 UNK         0.3000 
    201 H201       -6.1419  -24.5545  -48.8718 H         1 UNK         0.0600 
    202 H202       -3.7972  -25.4054  -49.1595 H         1 UNK         0.0600 
    203 H203       -3.2951  -23.7932  -49.6629 H         1 UNK         0.0600 
    204 H204       -4.4495  -24.7054  -50.6284 H         1 UNK         0.0600 
    205 H205       -7.0101  -22.3011  -47.8255 H         1 UNK         0.3000 
    206 H206       -8.0777  -20.3926  -48.2300 H         1 UNK         0.0600 
    207 H207       -9.0711  -21.8480  -50.0071 H         1 UNK         0.0600 
    208 H208       -9.0857  -20.1563  -50.4750 H         1 UNK         0.0600 
    209 H209       -7.8915  -21.2440  -51.1680 H         1 UNK         0.0600 
    210 H210       -5.3549  -19.9602  -47.8625 H         1 UNK         0.3000 
    211 H211       -3.7622  -18.4238  -47.9203 H         1 UNK         0.0600 
    212 H212       -5.7726  -16.5259  -49.2439 H         1 UNK         0.0600 
    213 H213       -4.2829  -16.0723  -48.4334 H         1 UNK         0.0600 
    214 H214       -5.6033  -16.7733  -47.5103 H         1 UNK         0.0600 
    215 H215       -3.3242  -20.2471  -49.5526 H         1 UNK         0.3000 
    216 H216       -2.0088  -20.9812  -51.1421 H         1 UNK         0.0600 
    217 H217       -1.5897  -18.1691  -52.2740 H         1 UNK         0.0600 
    218 H218       -0.5439  -19.5656  -52.4466 H         1 UNK         0.0600 
    219 H219       -0.7024  -18.7773  -50.8871 H         1 UNK         0.0600 
    220 H220       -4.9086  -19.4042  -51.9064 H         1 UNK         0.3000 
    221 H221       -4.8753  -19.4927  -54.7290 H         1 UNK         0.0600 
    222 H222       -7.2912  -19.5011  -52.8498 H         1 UNK         0.0600 
    223 H223       -6.4104  -18.0643  -53.3671 H         1 UNK         0.0600 
    224 H224       -7.2901  -19.0308  -54.5427 H         1 UNK         0.0600 
    225 H225       -5.9457  -21.9685  -52.3556 H         1 UNK         0.3000 
    226 H226       -7.0664  -23.6833  -54.4716 H         1 UNK         0.0600 
    227 H227       -8.1106  -23.5669  -52.1898 H         1 UNK         0.0600 
    228 H228       -7.6329  -25.1942  -52.6462 H         1 UNK         0.0600 
    229 H229       -6.6562  -24.2916  -51.5051 H         1 UNK         0.0600 
    230 H230       -4.0462  -23.2808  -52.7380 H         1 UNK         0.3000 
    231 H231       -2.8645  -25.8270  -53.5702 H         1 UNK         0.0600 
    232 H232       -1.6906  -23.2976  -52.2866 H         1 UNK         0.0600 
    233 H233       -2.0959  -24.8123  -51.4753 H         1 UNK         0.0600 
    234 H234       -0.7721  -24.7593  -52.6147 H         1 UNK         0.0600 
    235 H235       -3.2505  -22.6537  -54.9216 H         1 UNK         0.3000 
    236 H236       -2.5103  -21.5020  -56.6486 H         1 UNK         0.0600 
    237 H237       -3.2831  -23.4346  -58.0427 H         1 UNK         0.0600 
    238 H238       -1.8971  -22.6291  -58.7605 H         1 UNK         0.0600 
    239 H239       -1.6820  -24.1641  -57.9306 H         1 UNK         0.0600 
    240 H240       -0.9759  -21.5802  -54.4509 H         1 UNK         0.3000 
    241 H241        0.9589  -21.2243  -53.4830 H         1 UNK         0.0600 
    242 H242        0.4974  -24.1440  -54.9463 H         1 UNK         0.3800 
    243 H243        2.0076  -24.8634  -54.4601 H         1 UNK         0.3800 
    244 H244        2.0543  -20.5985  -56.2710 H         1 UNK         0.0800 
    245 H245        2.9947  -20.4037  -54.8352 H         1 UNK         0.0800 
    246 H246        3.5362  -18.2646  -54.2915 H         1 UNK         0.0800 
    247 H247        2.5112  -16.8655  -54.2125 H         1 UNK         0.0800 
@<TRIPOS>BOND
     1    1    2 1    
     2    1  127 1    
     3    1  128 1    
     4    1  129 1    
     5    2    3 2    
     6    2    4 am   BACKBONE|DICT|INTERRES
     7    4    5 1    
     8    4  130 1    
     9    5    6 1    
    10    5   65 1    
    11    5  131 1    
    12    6    7 1    
    13    6  132 1    
    14    6  133 1    
    15    7    8 1    
    16    8    9 1    
    17    8  134 1    
    18    8  135 1    
    19    9   10 ar   
    20    9   14 ar   
    21   10   11 ar   
    22   10  136 1    
    23   11   12 ar   
    24   11  126 1    
    25   12   13 ar   
    26   12  137 1    
    27   13   14 ar   
    28   13   15 1    
    29   14  138 1    
    30   15   16 1    
    31   15  139 1    
    32   15  140 1    
    33   16   17 1    
    34   17   18 1    
    35   17  141 1    
    36   17  142 1    
    37   18   19 1    
    38   18   67 1    
    39   18  143 1    
    40   19   20 am   BACKBONE|DICT|INTERRES
    41   19  144 1    
    42   20   21 2    
    43   20   22 1    
    44   22   23 1    
    45   22   24 1    
    46   22  145 1    
    47   23  146 1    
    48   23  147 1    
    49   23  148 1    
    50   24   25 am   BACKBONE|DICT|INTERRES
    51   24  149 1    
    52   25   26 2    
    53   25   27 1    
    54   27   28 1    
    55   27   29 1    
    56   27  150 1    
    57   28  151 1    
    58   28  152 1    
    59   28  153 1    
    60   29   30 am   BACKBONE|DICT|INTERRES
    61   29  154 1    
    62   30   31 2    
    63   30   32 1    
    64   32   33 1    
    65   32   34 1    
    66   32  155 1    
    67   33  156 1    
    68   33  157 1    
    69   33  158 1    
    70   34   35 am   BACKBONE|DICT|INTERRES
    71   34  159 1    
    72   35   36 2    
    73   35   37 1    
    74   37   38 1    
    75   37   39 1    
    76   37  160 1    
    77   38  161 1    
    78   38  162 1    
    79   38  163 1    
    80   39   40 am   BACKBONE|DICT|INTERRES
    81   39  164 1    
    82   40   41 2    
    83   40   42 1    
    84   42   43 1    
    85   42   44 1    
    86   42  165 1    
    87   43  166 1    
    88   43  167 1    
    89   43  168 1    
    90   44   45 am   BACKBONE|DICT|INTERRES
    91   44  169 1    
    92   45   46 2    
    93   45   47 1    
    94   47   48 1    
    95   47   49 1    
    96   47  170 1    
    97   48  171 1    
    98   48  172 1    
    99   48  173 1    
   100   49   50 am   BACKBONE|DICT|INTERRES
   101   49  174 1    
   102   50   51 2    
   103   50   52 1    
   104   52   53 1    
   105   52   54 1    
   106   52  175 1    
   107   53  176 1    
   108   53  177 1    
   109   53  178 1    
   110   54   55 am   BACKBONE|DICT|INTERRES
   111   54  179 1    
   112   55   56 2    
   113   55   57 1    
   114   57   58 1    
   115   57   59 1    
   116   57  180 1    
   117   58  181 1    
   118   58  182 1    
   119   58  183 1    
   120   59   60 am   BACKBONE|DICT|INTERRES
   121   59  184 1    
   122   60   61 2    
   123   60   62 1    
   124   62   63 1    
   125   62   64 1    
   126   62  185 1    
   127   63  186 1    
   128   63  187 1    
   129   63  188 1    
   130   64   65 am   BACKBONE|DICT|INTERRES
   131   64  189 1    
   132   65   66 2    
   133   67   68 2    
   134   67   69 am   BACKBONE|DICT|INTERRES
   135   69   70 1    
   136   69  190 1    
   137   70   71 1    
   138   70   72 1    
   139   70  191 1    
   140   71  192 1    
   141   71  193 1    
   142   71  194 1    
   143   72   73 2    
   144   72   74 am   BACKBONE|DICT|INTERRES
   145   74   75 1    
   146   74  195 1    
   147   75   76 1    
   148   75   77 1    
   149   75  196 1    
   150   76  197 1    
   151   76  198 1    
   152   76  199 1    
   153   77   78 2    
   154   77   79 am   BACKBONE|DICT|INTERRES
   155   79   80 1    
   156   79  200 1    
   157   80   81 1    
   158   80   82 1    
   159   80  201 1    
   160   81  202 1    
   161   81  203 1    
   162   81  204 1    
   163   82   83 2    
   164   82   84 am   BACKBONE|DICT|INTERRES
   165   84   85 1    
   166   84  205 1    
   167   85   86 1    
   168   85   87 1    
   169   85  206 1    
   170   86  207 1    
   171   86  208 1    
   172   86  209 1    
   173   87   88 2    
   174   87   89 am   BACKBONE|DICT|INTERRES
   175   89   90 1    
   176   89  210 1    
   177   90   91 1    
   178   90   92 1    
   179   90  211 1    
   180   91  212 1    
   181   91  213 1    
   182   91  214 1    
   183   92   93 2    
   184   92   94 am   BACKBONE|DICT|INTERRES
   185   94   95 1    
   186   94  215 1    
   187   95   96 1    
   188   95   97 1    
   189   95  216 1    
   190   96  217 1    
   191   96  218 1    
   192   96  219 1    
   193   97   98 2    
   194   97   99 am   BACKBONE|DICT|INTERRES
   195   99  100 1    
   196   99  220 1    
   197  100  101 1    
   198  100  102 1    
   199  100  221 1    
   200  101  222 1    
   201  101  223 1    
   202  101  224 1    
   203  102  103 2    
   204  102  104 am   BACKBONE|DICT|INTERRES
   205  104  105 1    
   206  104  225 1    
   207  105  106 1    
   208  105  107 1    
   209  105  226 1    
   210  106  227 1    
   211  106  228 1    
   212  106  229 1    
   213  107  108 2    
   214  107  109 am   BACKBONE|DICT|INTERRES
   215  109  110 1    
   216  109  230 1    
   217  110  111 1    
   218  110  112 1    
   219  110  231 1    
   220  111  232 1    
   221  111  233 1    
   222  111  234 1    
   223  112  113 2    
   224  112  114 am   BACKBONE|DICT|INTERRES
   225  114  115 1    
   226  114  235 1    
   227  115  116 1    
   228  115  117 1    
   229  115  236 1    
   230  116  237 1    
   231  116  238 1    
   232  116  239 1    
   233  117  118 2    
   234  117  119 am   BACKBONE|DICT|INTERRES
   235  119  120 1    
   236  119  240 1    
   237  120  121 1    
   238  120  124 1    
   239  120  241 1    
   240  121  122 am   BACKBONE|DICT|INTERRES
   241  121  123 2    
   242  122  242 1    
   243  122  243 1    
   244  124  125 1    
   245  124  244 1    
   246  124  245 1    
   247  125  126 1    
   248  126  246 1    
   249  126  247 1    
@<TRIPOS>SUBSTRUCTURE
     1 UNK         1 GROUP             0       ****    0 ROOT    
