@<TRIPOS>MOLECULE
3R540
247   249    1
SMALL
USER_CHARGES


@<TRIPOS>ATOM
      1 CA         -5.6654  -14.9773  -52.6591 C.3       0 UNK        -0.1800 
      2 C          -4.7188  -14.4085  -51.6111 C.2       0 UNK         0.5000 
      3 O          -5.0622  -13.4387  -50.9350 O.2       0 UNK        -0.5000 
      4 N          -3.5290  -15.0048  -51.4797 N.am      1 UNK        -0.5000 
      5 CA         -2.5196  -14.6736  -50.4731 C.3       1 UNK         0.1400 
      6 C6         -1.1592  -15.3106  -50.8425 C.3       23 UNK        -0.0398 
      7 S7          0.2634  -14.5132  -50.0194 S.3       23 UNK        -0.2404 
      8 C8          1.3450  -14.0960  -51.4308 C.3       23 UNK        -0.0205 
      9 C9          1.7574  -15.3291  -52.2255 C.ar      23 UNK        -0.0193 
     10 C10         1.2481  -15.5445  -53.5096 C.ar      23 UNK        -0.1150 
     11 C11         1.5691  -16.7061  -54.2176 C.ar      23 UNK        -0.0193 
     12 C12         2.4096  -17.6574  -53.6293 C.ar      23 UNK        -0.1150 
     13 C13         2.9398  -17.4465  -52.3543 C.ar      23 UNK        -0.0193 
     14 C14         2.6232  -16.2715  -51.6646 C.ar      23 UNK        -0.1150 
     15 C15         3.8135  -18.5101  -51.7003 C.3       23 UNK        -0.0205 
     16 S16         2.8442  -19.9581  -51.1540 S.3       23 UNK        -0.2404 
     17 C17         1.5009  -19.1454  -50.2254 C.3       23 UNK        -0.0398 
     18 CA          0.9526  -19.9589  -49.0267 C.3       11 UNK         0.1400 
     19 N           2.0250  -20.2614  -48.0707 N.am      11 UNK        -0.5000 
     20 C           2.0060  -21.1511  -47.0710 C.2       10 UNK         0.5000 
     21 O           1.0292  -21.8561  -46.8019 O.2       10 UNK        -0.5000 
     22 CA          3.3000  -21.2767  -46.2441 C.3       10 UNK         0.1400 
     23 CB          4.0696  -19.9470  -46.1116 C.3       10 UNK        -0.1800 
     24 N           2.9821  -21.7803  -44.9118 N.am      10 UNK        -0.5000 
     25 C           3.6417  -22.7468  -44.2612 C.2       9 UNK         0.5000 
     26 O           4.6474  -23.3060  -44.7008 O.2       9 UNK        -0.5000 
     27 CA          3.0828  -23.1726  -42.8908 C.3       9 UNK         0.1400 
     28 CB          3.8222  -22.4451  -41.7570 C.3       9 UNK        -0.1800 
     29 N           1.6528  -22.8833  -42.7892 N.am      9 UNK        -0.5000 
     30 C           0.6696  -23.7641  -43.0137 C.2       8 UNK         0.5000 
     31 O           0.8691  -24.9588  -43.2382 O.2       8 UNK        -0.5000 
     32 CA         -0.7765  -23.2209  -43.0372 C.3       8 UNK         0.1400 
     33 CB         -1.7814  -24.1562  -42.3340 C.3       8 UNK        -0.1800 
     34 N          -0.9160  -21.8384  -42.5673 N.am      8 UNK        -0.5000 
     35 C          -0.7445  -21.3569  -41.3291 C.2       7 UNK         0.5000 
     36 O          -0.4493  -22.0366  -40.3453 O.2       7 UNK        -0.5000 
     37 CA         -0.8826  -19.8276  -41.1986 C.3       7 UNK         0.1400 
     38 CB         -1.7442  -19.4453  -39.9847 C.3       7 UNK        -0.1800 
     39 N           0.4083  -19.1428  -41.1104 N.am      7 UNK        -0.5000 
     40 C           1.4423  -19.2610  -41.9586 C.2       6 UNK         0.5000 
     41 O           1.4488  -20.0108  -42.9384 O.2       6 UNK        -0.5000 
     42 CA          2.6603  -18.3690  -41.6617 C.3       6 UNK         0.1400 
     43 CB          3.6483  -18.2892  -42.8389 C.3       6 UNK        -0.1800 
     44 N           2.2027  -17.0225  -41.3334 N.am      6 UNK        -0.5000 
     45 C           2.6106  -16.2826  -40.2947 C.2       5 UNK         0.5000 
     46 O           3.4553  -16.6588  -39.4813 O.2       5 UNK        -0.5000 
     47 CA          1.9753  -14.8846  -40.1264 C.3       5 UNK         0.1400 
     48 CB          2.9658  -13.7911  -40.5560 C.3       5 UNK        -0.1800 
     49 N           0.7302  -14.7096  -40.8780 N.am      5 UNK        -0.5000 
     50 C          -0.4314  -15.3151  -40.5956 C.2       4 UNK         0.5000 
     51 O          -0.6023  -16.0290  -39.6075 O.2       4 UNK        -0.5000 
     52 CA         -1.5831  -15.1254  -41.6051 C.3       4 UNK         0.1400 
     53 CB         -2.5565  -14.0430  -41.1155 C.3       4 UNK        -0.1800 
     54 N          -1.1552  -14.7980  -42.9713 N.am      4 UNK        -0.5000 
     55 C          -0.3890  -15.5748  -43.7509 C.2       3 UNK         0.5000 
     56 O           0.1228  -16.6253  -43.3638 O.2       3 UNK        -0.5000 
     57 CA         -0.1538  -15.0807  -45.1942 C.3       3 UNK         0.1400 
     58 CB          0.5975  -16.1073  -46.0630 C.3       3 UNK        -0.1800 
     59 N          -1.3640  -14.6080  -45.8823 N.am      3 UNK        -0.5000 
     60 C          -2.5840  -15.1695  -45.9367 C.2       2 UNK         0.5000 
     61 O          -2.9147  -16.2158  -45.3769 O.2       2 UNK        -0.5000 
     62 CA         -3.6195  -14.4146  -46.7863 C.3       2 UNK         0.1400 
     63 CB         -4.0271  -13.0905  -46.1205 C.3       2 UNK        -0.1800 
     64 N          -3.1326  -14.1592  -48.1428 N.am      2 UNK        -0.5000 
     65 C          -3.0114  -15.1128  -49.0763 C.2       1 UNK         0.5000 
     66 O          -3.3074  -16.2920  -48.8802 O.2       1 UNK        -0.5000 
     67 C          -0.2290  -19.2066  -48.3656 C.2       11 UNK         0.5000 
     68 O          -0.5447  -18.0896  -48.7731 O.2       11 UNK        -0.5000 
     69 N          -0.8257  -19.7908  -47.3240 N.am      12 UNK        -0.5000 
     70 CA         -1.8311  -19.1407  -46.4927 C.3       12 UNK         0.1400 
     71 CB         -1.5241  -19.4647  -45.0241 C.3       12 UNK        -0.1800 
     72 C          -3.2517  -19.5933  -46.8360 C.2       12 UNK         0.5000 
     73 O          -3.4652  -20.7483  -47.2095 O.2       12 UNK        -0.5000 
     74 N          -4.2141  -18.6998  -46.5753 N.am      13 UNK        -0.5000 
     75 CA         -5.6547  -18.9603  -46.6570 C.3       13 UNK         0.1400 
     76 CB         -6.4120  -17.6347  -46.4970 C.3       13 UNK        -0.1800 
     77 C          -6.1422  -20.0056  -45.6343 C.2       13 UNK         0.5000 
     78 O          -7.1509  -20.6688  -45.8746 O.2       13 UNK        -0.5000 
     79 N          -5.3796  -20.1871  -44.5462 N.am      14 UNK        -0.5000 
     80 CA         -5.5395  -21.2605  -43.5624 C.3       14 UNK         0.1400 
     81 CB         -4.5738  -21.0041  -42.3957 C.3       14 UNK        -0.1800 
     82 C          -5.3201  -22.6744  -44.1457 C.2       14 UNK         0.5000 
     83 O          -5.8222  -23.6415  -43.5735 O.2       14 UNK        -0.5000 
     84 N          -4.6045  -22.7675  -45.2762 N.am      15 UNK        -0.5000 
     85 CA         -4.4089  -23.9853  -46.0634 C.3       15 UNK         0.1400 
     86 CB         -2.9003  -24.2394  -46.2336 C.3       15 UNK        -0.1800 
     87 C          -5.1777  -23.9196  -47.4018 C.2       15 UNK         0.5000 
     88 O          -4.8106  -24.6102  -48.3543 O.2       15 UNK        -0.5000 
     89 N          -6.2512  -23.1128  -47.4401 N.am      16 UNK        -0.5000 
     90 CA         -7.2327  -22.9651  -48.5172 C.3       16 UNK         0.1400 
     91 CB         -8.1405  -24.2138  -48.5774 C.3       16 UNK        -0.1800 
     92 C          -6.5844  -22.6004  -49.8668 C.2       16 UNK         0.5000 
     93 O          -6.1525  -21.4601  -50.0394 O.2       16 UNK        -0.5000 
     94 N          -6.5103  -23.5738  -50.7864 N.am      17 UNK        -0.5000 
     95 CA         -5.9553  -23.4570  -52.1379 C.3       17 UNK         0.1400 
     96 CB         -6.1411  -24.7950  -52.8686 C.3       17 UNK        -0.1800 
     97 C          -4.4801  -23.0147  -52.1935 C.2       17 UNK         0.5000 
     98 O          -4.0535  -22.4853  -53.2202 O.2       17 UNK        -0.5000 
     99 N          -3.7409  -23.1819  -51.0860 N.am      18 UNK        -0.5000 
    100 CA        -2.3778  -22.6789  -50.8978 C.3       18 UNK         0.1400 
    101 CB        -1.8642  -23.1230  -49.5235 C.3       18 UNK        -0.1800 
    102 C         -2.2530  -21.1485  -51.0485 C.2       18 UNK         0.5000 
    103 O         -1.1832  -20.6716  -51.4200 O.2       18 UNK        -0.5000 
    104 N         -3.3503  -20.4086  -50.8296 N.am      19 UNK        -0.5000 
    105 CA        -3.4606  -18.9728  -51.0998 C.3       19 UNK         0.1400 
    106 CB        -4.8340  -18.4867  -50.6172 C.3       19 UNK        -0.1800 
    107 C         -3.2781  -18.5968  -52.5851 C.2       19 UNK         0.5000 
    108 O         -2.9590  -17.4436  -52.8770 O.2       19 UNK        -0.5000 
    109 N         -3.4958  -19.5608  -53.4890 N.am      20 UNK        -0.5000 
    110 CA        -3.4050  -19.4158  -54.9383 C.3       20 UNK         0.1400 
    111 CB        -4.8119  -19.5864  -55.5384 C.3       20 UNK        -0.1800 
    112 C         -2.3890  -20.4161  -55.5231 C.2       20 UNK         0.5000 
    113 O         -2.5639  -20.8768  -56.6532 O.2       20 UNK        -0.5000 
    114 N         -1.3247  -20.7197  -54.7615 N.am      21 UNK        -0.5000 
    115 CA        -0.2520  -21.6631  -55.1129 C.3       21 UNK         0.1400 
    116 CB         0.7414  -21.7476  -53.9434 C.3       21 UNK        -0.1800 
    117 C          0.4989  -21.3472  -56.4254 C.2       21 UNK         0.5000 
    118 O          1.0993  -22.2477  -57.0133 O.2       21 UNK        -0.5000 
    119 N          0.4357  -20.0857  -56.8650 N.am      22 UNK        -0.5000 
    120 CA         0.9404  -19.5994  -58.1580 C.3       22 UNK         0.1400 
    121 C          0.1045  -20.0688  -59.3869 C.2       22 UNK         0.5000 
    122 N         -1.0983  -20.6081  -59.2179 N.am      22 UNK        -0.7600 
    123 O          0.5609  -19.9437  -60.5201 O.2       22 UNK        -0.5000 
    124 C124        1.0905  -18.0548  -58.1676 C.3       23 UNK        -0.0398 
    125 S125        2.1812  -17.4349  -56.8418 S.3       23 UNK        -0.2404 
    126 C126        0.9491  -16.9589  -55.5845 C.3       23 UNK        -0.0205 
    127 H127       -6.5734  -15.3465  -52.1825 H         1 UNK         0.0600 
    128 H128       -5.2124  -15.8017  -53.2106 H         1 UNK         0.0600 
    129 H129       -5.9438  -14.2033  -53.3742 H         1 UNK         0.0600 
    130 H130       -3.3212  -15.8234  -52.0480 H         1 UNK         0.3000 
    131 H131       -2.4002  -13.5879  -50.4828 H         1 UNK         0.0600 
    132 H132       -1.0175  -15.2325  -51.9201 H         1 UNK         0.0800 
    133 H133       -1.1465  -16.3801  -50.6296 H         1 UNK         0.0800 
    134 H134        2.2390  -13.5961  -51.0558 H         1 UNK         0.0800 
    135 H135        0.8358  -13.3734  -52.0704 H         1 UNK         0.0800 
    136 H136        0.5762  -14.8191  -53.9466 H         1 UNK         0.1150 
    137 H137        2.6377  -18.5735  -54.1561 H         1 UNK         0.1150 
    138 H138        3.0131  -16.1075  -50.6698 H         1 UNK         0.1150 
    139 H139        4.5775  -18.8384  -52.4063 H         1 UNK         0.0800 
    140 H140        4.3466  -18.0946  -50.8437 H         1 UNK         0.0800 
    141 H141        1.8619  -18.1828  -49.8613 H         1 UNK         0.0800 
    142 H142        0.7068  -18.9200  -50.9397 H         1 UNK         0.0800 
    143 H143        0.5655  -20.9051  -49.4060 H         1 UNK         0.0600 
    144 H144        2.8718  -19.7297  -48.2057 H         1 UNK         0.3000 
    145 H145        3.9325  -21.9941  -46.7705 H         1 UNK         0.0600 
    146 H146        3.4285  -19.1509  -45.7318 H         1 UNK         0.0600 
    147 H147        4.9146  -20.0480  -45.4303 H         1 UNK         0.0600 
    148 H148        4.4752  -19.6213  -47.0698 H         1 UNK         0.0600 
    149 H149        2.1616  -21.3745  -44.4786 H         1 UNK         0.3000 
    150 H150        3.2595  -24.2440  -42.7761 H         1 UNK         0.0600 
    151 H151        4.8892  -22.6699  -41.7808 H         1 UNK         0.0600 
    152 H152        3.4462  -22.7531  -40.7812 H         1 UNK         0.0600 
    153 H153        3.7142  -21.3635  -41.8310 H         1 UNK         0.0600 
    154 H154        1.4043  -21.9087  -42.6501 H         1 UNK         0.3000 
    155 H155       -1.0463  -23.1870  -44.0925 H         1 UNK         0.0600 
    156 H156       -2.7972  -23.7673  -42.4039 H         1 UNK         0.0600 
    157 H157       -1.5430  -24.2893  -41.2788 H         1 UNK         0.0600 
    158 H158       -1.7840  -25.1453  -42.7932 H         1 UNK         0.0600 
    159 H159       -1.0659  -21.1619  -43.3012 H         1 UNK         0.3000 
    160 H160       -1.3873  -19.4458  -42.0872 H         1 UNK         0.0600 
    161 H161       -1.2534  -19.7006  -39.0448 H         1 UNK         0.0600 
    162 H162       -2.7033  -19.9645  -40.0065 H         1 UNK         0.0600 
    163 H163       -1.9571  -18.3767  -39.9728 H         1 UNK         0.0600 
    164 H164        0.5054  -18.4898  -40.3462 H         1 UNK         0.3000 
    165 H165        3.1731  -18.8189  -40.8095 H         1 UNK         0.0600 
    166 H166        3.1769  -17.8546  -43.7210 H         1 UNK         0.0600 
    167 H167        4.5129  -17.6759  -42.5856 H         1 UNK         0.0600 
    168 H168        4.0206  -19.2768  -43.1119 H         1 UNK         0.0600 
    169 H169        1.4716  -16.6656  -41.9431 H         1 UNK         0.3000 
    170 H170        1.7558  -14.7509  -39.0650 H         1 UNK         0.0600 
    171 H171        3.8972  -13.8633  -39.9929 H         1 UNK         0.0600 
    172 H172        3.2158  -13.8688  -41.6149 H         1 UNK         0.0600 
    173 H173        2.5574  -12.7960  -40.3782 H         1 UNK         0.0600 
    174 H174        0.7789  -14.1388  -41.7088 H         1 UNK         0.3000 
    175 H175       -2.1236  -16.0732  -41.6533 H         1 UNK         0.0600 
    176 H176       -2.0813  -13.0619  -41.0791 H         1 UNK         0.0600 
    177 H177       -3.4277  -13.9716  -41.7671 H         1 UNK         0.0600 
    178 H178       -2.9211  -14.2689  -40.1125 H         1 UNK         0.0600 
    179 H179       -1.5345  -13.9511  -43.3685 H         1 UNK         0.3000 
    180 H180        0.4935  -14.2073  -45.1045 H         1 UNK         0.0600 
    181 H181        0.0864  -17.0655  -46.0881 H         1 UNK         0.0600 
    182 H182        1.5981  -16.2907  -45.6700 H         1 UNK         0.0600 
    183 H183        0.7089  -15.7596  -47.0901 H         1 UNK         0.0600 
    184 H184       -1.2417  -13.7488  -46.3985 H         1 UNK         0.3000 
    185 H185       -4.5130  -15.0391  -46.8532 H         1 UNK         0.0600 
    186 H186       -4.3858  -13.2596  -45.1042 H         1 UNK         0.0600 
    187 H187       -3.1955  -12.3873  -46.0630 H         1 UNK         0.0600 
    188 H188       -4.8343  -12.6077  -46.6716 H         1 UNK         0.0600 
    189 H189       -2.9010  -13.2047  -48.3761 H         1 UNK         0.3000 
    190 H190       -0.5046  -20.7105  -47.0378 H         1 UNK         0.3000 
    191 H191       -1.7852  -18.0625  -46.6333 H         1 UNK         0.0600 
    192 H192       -2.2068  -18.9373  -44.3569 H         1 UNK         0.0600 
    193 H193       -0.5121  -19.1596  -44.7553 H         1 UNK         0.0600 
    194 H194       -1.6209  -20.5329  -44.8341 H         1 UNK         0.0600 
    195 H195       -3.9347  -17.7799  -46.2489 H         1 UNK         0.3000 
    196 H196       -5.8740  -19.3679  -47.6449 H         1 UNK         0.0600 
    197 H197       -7.4903  -17.7898  -46.5514 H         1 UNK         0.0600 
    198 H198       -6.1450  -16.9348  -47.2893 H         1 UNK         0.0600 
    199 H199       -6.1939  -17.1593  -45.5398 H         1 UNK         0.0600 
    200 H200       -4.5851  -19.5779  -44.4248 H         1 UNK         0.3000 
    201 H201       -6.5617  -21.2190  -43.1809 H         1 UNK         0.0600 
    202 H202       -4.7875  -20.0536  -41.9065 H         1 UNK         0.0600 
    203 H203       -3.5397  -20.9816  -42.7357 H         1 UNK         0.0600 
    204 H204       -4.6542  -21.7845  -41.6377 H         1 UNK         0.0600 
    205 H205       -4.2535  -21.9209  -45.7115 H         1 UNK         0.3000 
    206 H206       -4.8227  -24.8482  -45.5385 H         1 UNK         0.0600 
    207 H207       -2.4633  -24.5652  -45.2913 H         1 UNK         0.0600 
    208 H208       -2.6964  -25.0273  -46.9594 H         1 UNK         0.0600 
    209 H209       -2.3698  -23.3428  -46.5528 H         1 UNK         0.0600 
    210 H210       -6.4368  -22.5382  -46.6271 H         1 UNK         0.3000 
    211 H211       -7.8620  -22.1160  -48.2465 H         1 UNK         0.0600 
    212 H212       -7.5772  -25.1287  -48.7643 H         1 UNK         0.0600 
    213 H213       -8.8931  -24.1173  -49.3612 H         1 UNK         0.0600 
    214 H214       -8.6756  -24.3472  -47.6370 H         1 UNK         0.0600 
    215 H215       -6.8545  -24.4868  -50.5272 H         1 UNK         0.3000 
    216 H216       -6.5359  -22.6960  -52.6630 H         1 UNK         0.0600 
    217 H217       -5.6072  -25.6033  -52.3672 H         1 UNK         0.0600 
    218 H218       -5.7659  -24.7383  -53.8915 H         1 UNK         0.0600 
    219 H219       -7.1941  -25.0714  -52.9262 H         1 UNK         0.0600 
    220 H220       -4.1744  -23.6243  -50.2838 H         1 UNK         0.3000 
    221 H221       -1.7504  -23.1368  -51.6650 H         1 UNK         0.0600 
    222 H222       -2.4429  -22.6588  -48.7267 H         1 UNK         0.0600 
    223 H223       -1.9301  -24.2044  -49.4029 H         1 UNK         0.0600 
    224 H224       -0.8208  -22.8421  -49.3801 H         1 UNK         0.0600 
    225 H225       -4.1980  -20.8716  -50.5178 H         1 UNK         0.3000 
    226 H226       -2.6854  -18.4594  -50.5281 H         1 UNK         0.0600 
    227 H227       -4.9412  -18.6387  -49.5459 H         1 UNK         0.0600 
    228 H228       -4.9657  -17.4209  -50.8016 H         1 UNK         0.0600 
    229 H229       -5.6488  -19.0088  -51.1198 H         1 UNK         0.0600 
    230 H230       -3.7202  -20.4971  -53.1659 H         1 UNK         0.3000 
    231 H231       -3.0423  -18.4202  -55.2007 H         1 UNK         0.0600 
    232 H232       -4.8032  -19.4292  -56.6176 H         1 UNK         0.0600 
    233 H233       -5.5105  -18.8657  -55.1131 H         1 UNK         0.0600 
    234 H234       -5.2066  -20.5861  -55.3521 H         1 UNK         0.0600 
    235 H235       -1.2706  -20.3138  -53.8364 H         1 UNK         0.3000 
    236 H236       -0.7126  -22.6446  -55.2406 H         1 UNK         0.0600 
    237 H237        1.1420  -20.7664  -53.6859 H         1 UNK         0.0600 
    238 H238        0.2698  -22.1625  -53.0536 H         1 UNK         0.0600 
    239 H239        1.5860  -22.3939  -54.1856 H         1 UNK         0.0600 
    240 H240       -0.0859  -19.4244  -56.3136 H         1 UNK         0.3000 
    241 H241        1.9362  -20.0255  -58.2943 H         1 UNK         0.0600 
    242 H242       -1.5048  -20.7176  -58.2936 H         1 UNK         0.3800 
    243 H243       -1.6207  -20.9087  -60.0253 H         1 UNK         0.3800 
    244 H244        1.5186  -17.7245  -59.1158 H         1 UNK         0.0800 
    245 H245        0.1148  -17.5710  -58.0951 H         1 UNK         0.0800 
    246 H246        0.4181  -16.0737  -55.9383 H         1 UNK         0.0800 
    247 H247        0.2010  -17.7425  -55.4717 H         1 UNK         0.0800 
@<TRIPOS>BOND
     1    1    2 1    
     2    1  127 1    
     3    1  128 1    
     4    1  129 1    
     5    2    3 2    
     6    2    4 am   BACKBONE|DICT|INTERRES
     7    4    5 1    
     8    4  130 1    
     9    5    6 1    
    10    5   65 1    
    11    5  131 1    
    12    6    7 1    
    13    6  132 1    
    14    6  133 1    
    15    7    8 1    
    16    8    9 1    
    17    8  134 1    
    18    8  135 1    
    19    9   10 ar   
    20    9   14 ar   
    21   10   11 ar   
    22   10  136 1    
    23   11   12 ar   
    24   11  126 1    
    25   12   13 ar   
    26   12  137 1    
    27   13   14 ar   
    28   13   15 1    
    29   14  138 1    
    30   15   16 1    
    31   15  139 1    
    32   15  140 1    
    33   16   17 1    
    34   17   18 1    
    35   17  141 1    
    36   17  142 1    
    37   18   19 1    
    38   18   67 1    
    39   18  143 1    
    40   19   20 am   BACKBONE|DICT|INTERRES
    41   19  144 1    
    42   20   21 2    
    43   20   22 1    
    44   22   23 1    
    45   22   24 1    
    46   22  145 1    
    47   23  146 1    
    48   23  147 1    
    49   23  148 1    
    50   24   25 am   BACKBONE|DICT|INTERRES
    51   24  149 1    
    52   25   26 2    
    53   25   27 1    
    54   27   28 1    
    55   27   29 1    
    56   27  150 1    
    57   28  151 1    
    58   28  152 1    
    59   28  153 1    
    60   29   30 am   BACKBONE|DICT|INTERRES
    61   29  154 1    
    62   30   31 2    
    63   30   32 1    
    64   32   33 1    
    65   32   34 1    
    66   32  155 1    
    67   33  156 1    
    68   33  157 1    
    69   33  158 1    
    70   34   35 am   BACKBONE|DICT|INTERRES
    71   34  159 1    
    72   35   36 2    
    73   35   37 1    
    74   37   38 1    
    75   37   39 1    
    76   37  160 1    
    77   38  161 1    
    78   38  162 1    
    79   38  163 1    
    80   39   40 am   BACKBONE|DICT|INTERRES
    81   39  164 1    
    82   40   41 2    
    83   40   42 1    
    84   42   43 1    
    85   42   44 1    
    86   42  165 1    
    87   43  166 1    
    88   43  167 1    
    89   43  168 1    
    90   44   45 am   BACKBONE|DICT|INTERRES
    91   44  169 1    
    92   45   46 2    
    93   45   47 1    
    94   47   48 1    
    95   47   49 1    
    96   47  170 1    
    97   48  171 1    
    98   48  172 1    
    99   48  173 1    
   100   49   50 am   BACKBONE|DICT|INTERRES
   101   49  174 1    
   102   50   51 2    
   103   50   52 1    
   104   52   53 1    
   105   52   54 1    
   106   52  175 1    
   107   53  176 1    
   108   53  177 1    
   109   53  178 1    
   110   54   55 am   BACKBONE|DICT|INTERRES
   111   54  179 1    
   112   55   56 2    
   113   55   57 1    
   114   57   58 1    
   115   57   59 1    
   116   57  180 1    
   117   58  181 1    
   118   58  182 1    
   119   58  183 1    
   120   59   60 am   BACKBONE|DICT|INTERRES
   121   59  184 1    
   122   60   61 2    
   123   60   62 1    
   124   62   63 1    
   125   62   64 1    
   126   62  185 1    
   127   63  186 1    
   128   63  187 1    
   129   63  188 1    
   130   64   65 am   BACKBONE|DICT|INTERRES
   131   64  189 1    
   132   65   66 2    
   133   67   68 2    
   134   67   69 am   BACKBONE|DICT|INTERRES
   135   69   70 1    
   136   69  190 1    
   137   70   71 1    
   138   70   72 1    
   139   70  191 1    
   140   71  192 1    
   141   71  193 1    
   142   71  194 1    
   143   72   73 2    
   144   72   74 am   BACKBONE|DICT|INTERRES
   145   74   75 1    
   146   74  195 1    
   147   75   76 1    
   148   75   77 1    
   149   75  196 1    
   150   76  197 1    
   151   76  198 1    
   152   76  199 1    
   153   77   78 2    
   154   77   79 am   BACKBONE|DICT|INTERRES
   155   79   80 1    
   156   79  200 1    
   157   80   81 1    
   158   80   82 1    
   159   80  201 1    
   160   81  202 1    
   161   81  203 1    
   162   81  204 1    
   163   82   83 2    
   164   82   84 am   BACKBONE|DICT|INTERRES
   165   84   85 1    
   166   84  205 1    
   167   85   86 1    
   168   85   87 1    
   169   85  206 1    
   170   86  207 1    
   171   86  208 1    
   172   86  209 1    
   173   87   88 2    
   174   87   89 am   BACKBONE|DICT|INTERRES
   175   89   90 1    
   176   89  210 1    
   177   90   91 1    
   178   90   92 1    
   179   90  211 1    
   180   91  212 1    
   181   91  213 1    
   182   91  214 1    
   183   92   93 2    
   184   92   94 am   BACKBONE|DICT|INTERRES
   185   94   95 1    
   186   94  215 1    
   187   95   96 1    
   188   95   97 1    
   189   95  216 1    
   190   96  217 1    
   191   96  218 1    
   192   96  219 1    
   193   97   98 2    
   194   97   99 am   BACKBONE|DICT|INTERRES
   195   99  100 1    
   196   99  220 1    
   197  100  101 1    
   198  100  102 1    
   199  100  221 1    
   200  101  222 1    
   201  101  223 1    
   202  101  224 1    
   203  102  103 2    
   204  102  104 am   BACKBONE|DICT|INTERRES
   205  104  105 1    
   206  104  225 1    
   207  105  106 1    
   208  105  107 1    
   209  105  226 1    
   210  106  227 1    
   211  106  228 1    
   212  106  229 1    
   213  107  108 2    
   214  107  109 am   BACKBONE|DICT|INTERRES
   215  109  110 1    
   216  109  230 1    
   217  110  111 1    
   218  110  112 1    
   219  110  231 1    
   220  111  232 1    
   221  111  233 1    
   222  111  234 1    
   223  112  113 2    
   224  112  114 am   BACKBONE|DICT|INTERRES
   225  114  115 1    
   226  114  235 1    
   227  115  116 1    
   228  115  117 1    
   229  115  236 1    
   230  116  237 1    
   231  116  238 1    
   232  116  239 1    
   233  117  118 2    
   234  117  119 am   BACKBONE|DICT|INTERRES
   235  119  120 1    
   236  119  240 1    
   237  120  121 1    
   238  120  124 1    
   239  120  241 1    
   240  121  122 am   BACKBONE|DICT|INTERRES
   241  121  123 2    
   242  122  242 1    
   243  122  243 1    
   244  124  125 1    
   245  124  244 1    
   246  124  245 1    
   247  125  126 1    
   248  126  246 1    
   249  126  247 1    
@<TRIPOS>SUBSTRUCTURE
     1 UNK         1 GROUP             0       ****    0 ROOT    
