@<TRIPOS>MOLECULE
3R540
247   249    1
SMALL
USER_CHARGES


@<TRIPOS>ATOM
      1 CA         -0.9103  -16.6250  -42.0577 C.3       0 UNK        -0.1800 
      2 C          -2.1875  -16.6539  -42.8853 C.2       0 UNK         0.5000 
      3 O          -3.2283  -16.1811  -42.4285 O.2       0 UNK        -0.5000 
      4 N          -2.1106  -17.2104  -44.0984 N.am      1 UNK        -0.5000 
      5 CA         -3.1857  -17.2244  -45.0937 C.3       1 UNK         0.1400 
      6 C6         -2.9544  -18.3171  -46.1683 C.3       23 UNK        -0.0398 
      7 S7         -1.2858  -18.2738  -46.9079 S.3       23 UNK        -0.2404 
      8 C8         -1.6140  -18.9441  -48.5610 C.3       23 UNK        -0.0205 
      9 C9         -0.3032  -19.1711  -49.2873 C.ar      23 UNK        -0.0193 
     10 C10         0.3176  -18.1283  -49.9786 C.ar      23 UNK        -0.1150 
     11 C11         1.5845  -18.3097  -50.5409 C.ar      23 UNK        -0.0193 
     12 C12         2.2277  -19.5457  -50.4071 C.ar      23 UNK        -0.1150 
     13 C13         1.6092  -20.5955  -49.7219 C.ar      23 UNK        -0.0193 
     14 C14         0.3284  -20.4113  -49.1981 C.ar      23 UNK        -0.1150 
     15 C15         2.3318  -21.9159  -49.4975 C.3       23 UNK        -0.0205 
     16 S16         3.4368  -21.8796  -48.0381 S.3       23 UNK        -0.2404 
     17 C17         2.3449  -21.3045  -46.6894 C.3       23 UNK        -0.0398 
     18 CA          1.3666  -22.4006  -46.2024 C.3       11 UNK         0.1400 
     19 N           1.9968  -23.3188  -45.2547 N.am      11 UNK        -0.5000 
     20 C           1.6796  -24.6122  -45.1203 C.2       10 UNK         0.5000 
     21 O           0.8625  -25.1961  -45.8321 O.2       10 UNK        -0.5000 
     22 CA          2.3860  -25.3859  -43.9892 C.3       10 UNK         0.1400 
     23 CB          3.6784  -26.0336  -44.5087 C.3       10 UNK        -0.1800 
     24 N           2.7018  -24.5597  -42.8211 N.am      10 UNK        -0.5000 
     25 C           1.7881  -23.9954  -42.0196 C.2       9 UNK         0.5000 
     26 O           0.5736  -24.1069  -42.1820 O.2       9 UNK        -0.5000 
     27 CA          2.3203  -23.1167  -40.8710 C.3       9 UNK         0.1400 
     28 CB          2.6658  -23.9833  -39.6508 C.3       9 UNK        -0.1800 
     29 N           3.4768  -22.2785  -41.2125 N.am      9 UNK        -0.5000 
     30 C           3.5517  -21.4330  -42.2491 C.2       8 UNK         0.5000 
     31 O           2.7003  -21.3594  -43.1385 O.2       8 UNK        -0.5000 
     32 CA          4.8053  -20.5425  -42.3269 C.3       8 UNK         0.1400 
     33 CB          5.9567  -21.3061  -42.9991 C.3       8 UNK        -0.1800 
     34 N           4.5379  -19.3248  -43.0936 N.am      8 UNK        -0.5000 
     35 C           3.7185  -18.3414  -42.7013 C.2       7 UNK         0.5000 
     36 O           3.2191  -18.2612  -41.5749 O.2       7 UNK        -0.5000 
     37 CA          3.3734  -17.2947  -43.7676 C.3       7 UNK         0.1400 
     38 CB          2.4028  -17.8862  -44.8094 C.3       7 UNK        -0.1800 
     39 N           2.7659  -16.1316  -43.1288 N.am      7 UNK        -0.5000 
     40 C           2.6986  -14.9132  -43.6710 C.2       6 UNK         0.5000 
     41 O           3.1893  -14.6217  -44.7641 O.2       6 UNK        -0.5000 
     42 CA          1.9521  -13.8363  -42.8749 C.3       6 UNK         0.1400 
     43 CB          2.9252  -12.8787  -42.1694 C.3       6 UNK        -0.1800 
     44 N           1.1308  -13.0987  -43.8248 N.am      6 UNK        -0.5000 
     45 C          -0.1019  -12.6325  -43.6109 C.2       5 UNK         0.5000 
     46 O          -0.6519  -12.6469  -42.5093 O.2       5 UNK        -0.5000 
     47 CA         -0.8771  -12.1028  -44.8343 C.3       5 UNK         0.1400 
     48 CB         -0.6298  -10.5999  -45.0651 C.3       5 UNK        -0.1800 
     49 N          -0.6652  -12.9014  -46.0495 N.am      5 UNK        -0.5000 
     50 C           0.4078  -12.9753  -46.8506 C.2       4 UNK         0.5000 
     51 O           1.4128  -12.2782  -46.7156 O.2       4 UNK        -0.5000 
     52 CA          0.3779  -14.0404  -47.9607 C.3       4 UNK         0.1400 
     53 CB          1.0111  -15.3390  -47.4437 C.3       4 UNK        -0.1800 
     54 N          -0.9838  -14.3305  -48.4148 N.am      4 UNK        -0.5000 
     55 C          -1.4980  -13.9240  -49.5838 C.2       3 UNK         0.5000 
     56 O          -0.8656  -13.2774  -50.4193 O.2       3 UNK        -0.5000 
     57 CA         -2.9619  -14.3037  -49.8885 C.3       3 UNK         0.1400 
     58 CB         -3.0187  -15.5178  -50.8261 C.3       3 UNK        -0.1800 
     59 N          -3.7533  -14.5884  -48.6898 N.am      3 UNK        -0.5000 
     60 C          -4.2080  -13.6515  -47.8466 C.2       2 UNK         0.5000 
     61 O          -4.0362  -12.4436  -48.0118 O.2       2 UNK        -0.5000 
     62 CA         -4.9675  -14.1410  -46.5962 C.3       2 UNK         0.1400 
     63 CB         -6.4824  -14.1225  -46.8515 C.3       2 UNK        -0.1800 
     64 N          -4.5828  -15.4722  -46.1084 N.am      2 UNK        -0.5000 
     65 C          -3.3490  -15.8249  -45.7229 C.2       1 UNK         0.5000 
     66 O          -2.3619  -15.1006  -45.8692 O.2       1 UNK        -0.5000 
     67 C           0.0982  -21.7857  -45.5841 C.2       11 UNK         0.5000 
     68 O          -0.9253  -21.7145  -46.2602 O.2       11 UNK        -0.5000 
     69 N           0.1572  -21.3874  -44.3063 N.am      12 UNK        -0.5000 
     70 CA         -0.9623  -20.7862  -43.5774 C.3       12 UNK         0.1400 
     71 CB         -0.4820  -20.3326  -42.1920 C.3       12 UNK        -0.1800 
     72 C          -2.1935  -21.7081  -43.4602 C.2       12 UNK         0.5000 
     73 O          -3.3220  -21.2168  -43.4860 O.2       12 UNK        -0.5000 
     74 N          -1.9533  -23.0220  -43.3628 N.am      13 UNK        -0.5000 
     75 CA         -2.9785  -24.0640  -43.3127 C.3       13 UNK         0.1400 
     76 CB         -2.4699  -25.2016  -42.4108 C.3       13 UNK        -0.1800 
     77 C          -3.3780  -24.6095  -44.7013 C.2       13 UNK         0.5000 
     78 O          -4.1916  -25.5342  -44.7558 O.2       13 UNK        -0.5000 
     79 N          -2.8051  -24.0804  -45.7942 N.am      14 UNK        -0.5000 
     80 CA         -3.0849  -24.5280  -47.1623 C.3       14 UNK         0.1400 
     81 CB         -2.0373  -23.9465  -48.1249 C.3       14 UNK        -0.1800 
     82 C          -4.5068  -24.1621  -47.6322 C.2       14 UNK         0.5000 
     83 O          -5.1122  -23.2151  -47.1224 O.2       14 UNK        -0.5000 
     84 N          -5.0024  -24.9237  -48.6151 N.am      15 UNK        -0.5000 
     85 CA         -6.2994  -24.7251  -49.2613 C.3       15 UNK         0.1400 
     86 CB         -6.5961  -25.9493  -50.1425 C.3       15 UNK        -0.1800 
     87 C          -6.3430  -23.4426  -50.1117 C.2       15 UNK         0.5000 
     88 O          -5.3005  -22.9636  -50.5654 O.2       15 UNK        -0.5000 
     89 N          -7.5603  -22.9474  -50.3723 N.am      16 UNK        -0.5000 
     90 CA         -7.8266  -21.7543  -51.1829 C.3       16 UNK         0.1400 
     91 CB         -9.3374  -21.4790  -51.2024 C.3       16 UNK        -0.1800 
     92 C          -7.2763  -21.8455  -52.6195 C.2       16 UNK         0.5000 
     93 O          -6.7866  -20.8480  -53.1464 O.2       16 UNK        -0.5000 
     94 N          -7.3200  -23.0508  -53.2044 N.am      17 UNK        -0.5000 
     95 CA         -6.7733  -23.3549  -54.5280 C.3       17 UNK         0.1400 
     96 CB         -7.2445  -24.7534  -54.9547 C.3       17 UNK        -0.1800 
     97 C          -5.2358  -23.2614  -54.5917 C.2       17 UNK         0.5000 
     98 O          -4.6972  -22.9209  -55.6451 O.2       17 UNK        -0.5000 
     99 N          -4.5605  -23.5506  -53.4703 N.am      18 UNK        -0.5000 
    100 CA        -3.1139  -23.3997  -53.3224 C.3       18 UNK         0.1400 
    101 CB        -2.6039  -24.3383  -52.2182 C.3       18 UNK        -0.1800 
    102 C         -2.7437  -21.9383  -53.0239 C.2       18 UNK         0.5000 
    103 O         -1.8027  -21.4178  -53.6220 O.2       18 UNK        -0.5000 
    104 N         -3.5179  -21.2909  -52.1395 N.am      19 UNK        -0.5000 
    105 CA        -3.3736  -19.8821  -51.7646 C.3       19 UNK         0.1400 
    106 CB        -4.3983  -19.5392  -50.6730 C.3       19 UNK        -0.1800 
    107 C         -3.5157  -18.9169  -52.9559 C.2       19 UNK         0.5000 
    108 O         -2.7808  -17.9335  -53.0277 O.2       19 UNK        -0.5000 
    109 N         -4.4170  -19.2477  -53.8924 N.am      20 UNK        -0.5000 
    110 CA        -4.6931  -18.5141  -55.1313 C.3       20 UNK         0.1400 
    111 CB        -5.8822  -19.1773  -55.8451 C.3       20 UNK        -0.1800 
    112 C         -3.4982  -18.3711  -56.0990 C.2       20 UNK         0.5000 
    113 O         -3.5737  -17.5558  -57.0196 O.2       20 UNK        -0.5000 
    114 N         -2.4176  -19.1377  -55.8876 N.am      21 UNK        -0.5000 
    115 CA        -1.1443  -18.9732  -56.5922 C.3       21 UNK         0.1400 
    116 CB        -0.2611  -20.2026  -56.3316 C.3       21 UNK        -0.1800 
    117 C         -0.3991  -17.6810  -56.1934 C.2       21 UNK         0.5000 
    118 O          0.4190  -17.1950  -56.9759 O.2       21 UNK        -0.5000 
    119 N         -0.6947  -17.1520  -55.0003 N.am      22 UNK        -0.5000 
    120 CA        -0.1660  -15.8942  -54.4606 C.3       22 UNK         0.1400 
    121 C         -1.2316  -14.7641  -54.5105 C.2       22 UNK         0.5000 
    122 N         -0.8125  -13.5122  -54.3832 N.am      22 UNK        -0.7600 
    123 O         -2.4302  -14.9947  -54.6545 O.2       22 UNK        -0.5000 
    124 C124        0.3711  -16.1000  -53.0215 C.3       23 UNK        -0.0398 
    125 S125        1.8921  -17.1083  -53.0170 S.3       23 UNK        -0.2404 
    126 C126        2.2850  -17.1572  -51.2430 C.3       23 UNK        -0.0205 
    127 H127       -1.0251  -17.2422  -41.1669 H         1 UNK         0.0600 
    128 H128       -0.6966  -15.6046  -41.7407 H         1 UNK         0.0600 
    129 H129       -0.0536  -16.9945  -42.6214 H         1 UNK         0.0600 
    130 H130       -1.2186  -17.5299  -44.4467 H         1 UNK         0.3000 
    131 H131       -4.1168  -17.4643  -44.5756 H         1 UNK         0.0600 
    132 H132       -3.0874  -19.3022  -45.7187 H         1 UNK         0.0800 
    133 H133       -3.7091  -18.2524  -46.9541 H         1 UNK         0.0800 
    134 H134       -2.1647  -19.8821  -48.4712 H         1 UNK         0.0800 
    135 H135       -2.2437  -18.2527  -49.1171 H         1 UNK         0.0800 
    136 H136       -0.1673  -17.1648  -50.0420 H         1 UNK         0.1150 
    137 H137        3.2200  -19.6829  -50.8133 H         1 UNK         0.1150 
    138 H138       -0.1509  -21.2153  -48.6595 H         1 UNK         0.1150 
    139 H139        1.6108  -22.7270  -49.3870 H         1 UNK         0.0800 
    140 H140        2.9245  -22.1613  -50.3800 H         1 UNK         0.0800 
    141 H141        1.8276  -20.4018  -47.0149 H         1 UNK         0.0800 
    142 H142        2.9802  -20.9804  -45.8646 H         1 UNK         0.0800 
    143 H143        1.0329  -22.9668  -47.0736 H         1 UNK         0.0600 
    144 H144        2.6237  -22.9006  -44.5789 H         1 UNK         0.3000 
    145 H145        1.7112  -26.1810  -43.6648 H         1 UNK         0.0600 
    146 H146        4.1455  -26.6530  -43.7427 H         1 UNK         0.0600 
    147 H147        3.4755  -26.6769  -45.3660 H         1 UNK         0.0600 
    148 H148        4.4050  -25.2841  -44.8255 H         1 UNK         0.0600 
    149 H149        3.6787  -24.4025  -42.6220 H         1 UNK         0.3000 
    150 H150        1.5136  -22.4421  -40.5811 H         1 UNK         0.0600 
    151 H151        3.5066  -24.6478  -39.8537 H         1 UNK         0.0600 
    152 H152        1.8181  -24.6055  -39.3600 H         1 UNK         0.0600 
    153 H153        2.9242  -23.3676  -38.7890 H         1 UNK         0.0600 
    154 H154        4.2374  -22.2902  -40.5483 H         1 UNK         0.3000 
    155 H155        5.1033  -20.2602  -41.3150 H         1 UNK         0.0600 
    156 H156        5.6987  -21.6128  -44.0139 H         1 UNK         0.0600 
    157 H157        6.2113  -22.2067  -42.4390 H         1 UNK         0.0600 
    158 H158        6.8575  -20.6943  -43.0524 H         1 UNK         0.0600 
    159 H159        4.8801  -19.3188  -44.0428 H         1 UNK         0.3000 
    160 H160        4.3006  -16.9915  -44.2589 H         1 UNK         0.0600 
    161 H161        2.1332  -17.1532  -45.5670 H         1 UNK         0.0600 
    162 H162        1.4825  -18.2471  -44.3484 H         1 UNK         0.0600 
    163 H163        2.8589  -18.7243  -45.3332 H         1 UNK         0.0600 
    164 H164        2.4109  -16.3095  -42.1973 H         1 UNK         0.3000 
    165 H165        1.3192  -14.3209  -42.1292 H         1 UNK         0.0600 
    166 H166        3.5582  -13.4169  -41.4630 H         1 UNK         0.0600 
    167 H167        3.5795  -12.3740  -42.8815 H         1 UNK         0.0600 
    168 H168        2.3872  -12.1139  -41.6091 H         1 UNK         0.0600 
    169 H169        1.5100  -13.0497  -44.7656 H         1 UNK         0.3000 
    170 H170       -1.9365  -12.2224  -44.6016 H         1 UNK         0.0600 
    171 H171       -0.9479  -10.0204  -44.1978 H         1 UNK         0.0600 
    172 H172        0.4243  -10.3770  -45.2310 H         1 UNK         0.0600 
    173 H173       -1.1919  -10.2351  -45.9248 H         1 UNK         0.0600 
    174 H174       -1.3799  -13.6125  -46.1863 H         1 UNK         0.3000 
    175 H175        0.9900  -13.6746  -48.7875 H         1 UNK         0.0600 
    176 H176        1.0276  -16.1084  -48.2127 H         1 UNK         0.0600 
    177 H177        2.0436  -15.1725  -47.1362 H         1 UNK         0.0600 
    178 H178        0.4682  -15.7345  -46.5843 H         1 UNK         0.0600 
    179 H179       -1.5780  -14.8288  -47.7628 H         1 UNK         0.3000 
    180 H180       -3.4179  -13.4583  -50.4083 H         1 UNK         0.0600 
    181 H181       -2.5341  -16.3898  -50.3908 H         1 UNK         0.0600 
    182 H182       -2.5134  -15.3035  -51.7680 H         1 UNK         0.0600 
    183 H183       -4.0463  -15.7882  -51.0692 H         1 UNK         0.0600 
    184 H184       -3.9443  -15.5569  -48.4829 H         1 UNK         0.3000 
    185 H185       -4.7508  -13.4305  -45.7958 H         1 UNK         0.0600 
    186 H186       -7.0395  -14.3532  -45.9433 H         1 UNK         0.0600 
    187 H187       -6.8110  -13.1388  -47.1899 H         1 UNK         0.0600 
    188 H188       -6.7697  -14.8454  -47.6161 H         1 UNK         0.0600 
    189 H189       -5.3412  -16.1249  -45.9716 H         1 UNK         0.3000 
    190 H190        1.0444  -21.4534  -43.8108 H         1 UNK         0.3000 
    191 H191       -1.2695  -19.9011  -44.1348 H         1 UNK         0.0600 
    192 H192       -0.1758  -21.1805  -41.5804 H         1 UNK         0.0600 
    193 H193       -1.2763  -19.8118  -41.6561 H         1 UNK         0.0600 
    194 H194        0.3646  -19.6496  -42.2681 H         1 UNK         0.0600 
    195 H195       -0.9913  -23.3367  -43.2890 H         1 UNK         0.3000 
    196 H196       -3.8834  -23.6576  -42.8565 H         1 UNK         0.0600 
    197 H197       -3.2364  -25.9637  -42.2650 H         1 UNK         0.0600 
    198 H198       -2.1930  -24.8298  -41.4241 H         1 UNK         0.0600 
    199 H199       -1.5959  -25.6926  -42.8408 H         1 UNK         0.0600 
    200 H200       -2.1848  -23.2848  -45.6983 H         1 UNK         0.3000 
    201 H201       -2.9880  -25.6157  -47.1765 H         1 UNK         0.0600 
    202 H202       -2.1206  -24.4015  -49.1112 H         1 UNK         0.0600 
    203 H203       -2.1602  -22.8704  -48.2527 H         1 UNK         0.0600 
    204 H204       -1.0242  -24.1354  -47.7708 H         1 UNK         0.0600 
    205 H205       -4.4262  -25.6586  -48.9971 H         1 UNK         0.3000 
    206 H206       -7.0624  -24.6533  -48.4834 H         1 UNK         0.0600 
    207 H207       -6.5983  -26.8673  -49.5545 H         1 UNK         0.0600 
    208 H208       -7.5760  -25.8686  -50.6147 H         1 UNK         0.0600 
    209 H209       -5.8574  -26.0619  -50.9375 H         1 UNK         0.0600 
    210 H210       -8.3682  -23.4071  -49.9774 H         1 UNK         0.3000 
    211 H211       -7.3366  -20.9113  -50.6938 H         1 UNK         0.0600 
    212 H212       -9.8926  -22.3063  -51.6463 H         1 UNK         0.0600 
    213 H213       -9.5633  -20.5831  -51.7825 H         1 UNK         0.0600 
    214 H214       -9.7224  -21.3173  -50.1954 H         1 UNK         0.0600 
    215 H215       -7.7392  -23.8158  -52.6972 H         1 UNK         0.3000 
    216 H216       -7.1765  -22.6267  -55.2351 H         1 UNK         0.0600 
    217 H217       -6.8736  -25.0037  -55.9496 H         1 UNK         0.0600 
    218 H218       -8.3326  -24.8091  -54.9917 H         1 UNK         0.0600 
    219 H219       -6.8908  -25.5243  -54.2688 H         1 UNK         0.0600 
    220 H220       -5.0795  -23.7569  -52.6278 H         1 UNK         0.3000 
    221 H221       -2.6257  -23.6869  -54.2563 H         1 UNK         0.0600 
    222 H222       -3.0618  -24.1170  -51.2552 H         1 UNK         0.0600 
    223 H223       -2.8172  -25.3800  -52.4580 H         1 UNK         0.0600 
    224 H224       -1.5239  -24.2459  -52.0963 H         1 UNK         0.0600 
    225 H225       -4.2463  -21.8154  -51.6624 H         1 UNK         0.3000 
    226 H226       -2.3705  -19.7543  -51.3539 H         1 UNK         0.0600 
    227 H227       -4.2791  -18.5106  -50.3320 H         1 UNK         0.0600 
    228 H228       -5.4185  -19.6380  -51.0409 H         1 UNK         0.0600 
    229 H229       -4.2903  -20.1908  -49.8056 H         1 UNK         0.0600 
    230 H230       -5.0187  -20.0441  -53.7085 H         1 UNK         0.3000 
    231 H231       -4.9872  -17.5017  -54.8477 H         1 UNK         0.0600 
    232 H232       -5.6754  -20.2220  -56.0804 H         1 UNK         0.0600 
    233 H233       -6.1165  -18.6688  -56.7812 H         1 UNK         0.0600 
    234 H234       -6.7809  -19.1424  -55.2294 H         1 UNK         0.0600 
    235 H235       -2.4247  -19.7910  -55.1138 H         1 UNK         0.3000 
    236 H236       -1.3498  -18.9225  -57.6634 H         1 UNK         0.0600 
    237 H237        0.6609  -20.1496  -56.9118 H         1 UNK         0.0600 
    238 H238        0.0190  -20.2786  -55.2801 H         1 UNK         0.0600 
    239 H239       -0.7708  -21.1247  -56.6116 H         1 UNK         0.0600 
    240 H240       -1.4317  -17.5737  -54.4432 H         1 UNK         0.3000 
    241 H241        0.6628  -15.5538  -55.0842 H         1 UNK         0.0600 
    242 H242        0.1629  -13.2856  -54.2662 H         1 UNK         0.3800 
    243 H243       -1.4913  -12.7674  -54.4085 H         1 UNK         0.3800 
    244 H244       -0.3838  -16.5789  -52.3964 H         1 UNK         0.0800 
    245 H245        0.6041  -15.1442  -52.5485 H         1 UNK         0.0800 
    246 H246        2.0240  -16.2079  -50.7724 H         1 UNK         0.0800 
    247 H247        3.3651  -17.2613  -51.1290 H         1 UNK         0.0800 
@<TRIPOS>BOND
     1    1    2 1    
     2    1  127 1    
     3    1  128 1    
     4    1  129 1    
     5    2    3 2    
     6    2    4 am   BACKBONE|DICT|INTERRES
     7    4    5 1    
     8    4  130 1    
     9    5    6 1    
    10    5   65 1    
    11    5  131 1    
    12    6    7 1    
    13    6  132 1    
    14    6  133 1    
    15    7    8 1    
    16    8    9 1    
    17    8  134 1    
    18    8  135 1    
    19    9   10 ar   
    20    9   14 ar   
    21   10   11 ar   
    22   10  136 1    
    23   11   12 ar   
    24   11  126 1    
    25   12   13 ar   
    26   12  137 1    
    27   13   14 ar   
    28   13   15 1    
    29   14  138 1    
    30   15   16 1    
    31   15  139 1    
    32   15  140 1    
    33   16   17 1    
    34   17   18 1    
    35   17  141 1    
    36   17  142 1    
    37   18   19 1    
    38   18   67 1    
    39   18  143 1    
    40   19   20 am   BACKBONE|DICT|INTERRES
    41   19  144 1    
    42   20   21 2    
    43   20   22 1    
    44   22   23 1    
    45   22   24 1    
    46   22  145 1    
    47   23  146 1    
    48   23  147 1    
    49   23  148 1    
    50   24   25 am   BACKBONE|DICT|INTERRES
    51   24  149 1    
    52   25   26 2    
    53   25   27 1    
    54   27   28 1    
    55   27   29 1    
    56   27  150 1    
    57   28  151 1    
    58   28  152 1    
    59   28  153 1    
    60   29   30 am   BACKBONE|DICT|INTERRES
    61   29  154 1    
    62   30   31 2    
    63   30   32 1    
    64   32   33 1    
    65   32   34 1    
    66   32  155 1    
    67   33  156 1    
    68   33  157 1    
    69   33  158 1    
    70   34   35 am   BACKBONE|DICT|INTERRES
    71   34  159 1    
    72   35   36 2    
    73   35   37 1    
    74   37   38 1    
    75   37   39 1    
    76   37  160 1    
    77   38  161 1    
    78   38  162 1    
    79   38  163 1    
    80   39   40 am   BACKBONE|DICT|INTERRES
    81   39  164 1    
    82   40   41 2    
    83   40   42 1    
    84   42   43 1    
    85   42   44 1    
    86   42  165 1    
    87   43  166 1    
    88   43  167 1    
    89   43  168 1    
    90   44   45 am   BACKBONE|DICT|INTERRES
    91   44  169 1    
    92   45   46 2    
    93   45   47 1    
    94   47   48 1    
    95   47   49 1    
    96   47  170 1    
    97   48  171 1    
    98   48  172 1    
    99   48  173 1    
   100   49   50 am   BACKBONE|DICT|INTERRES
   101   49  174 1    
   102   50   51 2    
   103   50   52 1    
   104   52   53 1    
   105   52   54 1    
   106   52  175 1    
   107   53  176 1    
   108   53  177 1    
   109   53  178 1    
   110   54   55 am   BACKBONE|DICT|INTERRES
   111   54  179 1    
   112   55   56 2    
   113   55   57 1    
   114   57   58 1    
   115   57   59 1    
   116   57  180 1    
   117   58  181 1    
   118   58  182 1    
   119   58  183 1    
   120   59   60 am   BACKBONE|DICT|INTERRES
   121   59  184 1    
   122   60   61 2    
   123   60   62 1    
   124   62   63 1    
   125   62   64 1    
   126   62  185 1    
   127   63  186 1    
   128   63  187 1    
   129   63  188 1    
   130   64   65 am   BACKBONE|DICT|INTERRES
   131   64  189 1    
   132   65   66 2    
   133   67   68 2    
   134   67   69 am   BACKBONE|DICT|INTERRES
   135   69   70 1    
   136   69  190 1    
   137   70   71 1    
   138   70   72 1    
   139   70  191 1    
   140   71  192 1    
   141   71  193 1    
   142   71  194 1    
   143   72   73 2    
   144   72   74 am   BACKBONE|DICT|INTERRES
   145   74   75 1    
   146   74  195 1    
   147   75   76 1    
   148   75   77 1    
   149   75  196 1    
   150   76  197 1    
   151   76  198 1    
   152   76  199 1    
   153   77   78 2    
   154   77   79 am   BACKBONE|DICT|INTERRES
   155   79   80 1    
   156   79  200 1    
   157   80   81 1    
   158   80   82 1    
   159   80  201 1    
   160   81  202 1    
   161   81  203 1    
   162   81  204 1    
   163   82   83 2    
   164   82   84 am   BACKBONE|DICT|INTERRES
   165   84   85 1    
   166   84  205 1    
   167   85   86 1    
   168   85   87 1    
   169   85  206 1    
   170   86  207 1    
   171   86  208 1    
   172   86  209 1    
   173   87   88 2    
   174   87   89 am   BACKBONE|DICT|INTERRES
   175   89   90 1    
   176   89  210 1    
   177   90   91 1    
   178   90   92 1    
   179   90  211 1    
   180   91  212 1    
   181   91  213 1    
   182   91  214 1    
   183   92   93 2    
   184   92   94 am   BACKBONE|DICT|INTERRES
   185   94   95 1    
   186   94  215 1    
   187   95   96 1    
   188   95   97 1    
   189   95  216 1    
   190   96  217 1    
   191   96  218 1    
   192   96  219 1    
   193   97   98 2    
   194   97   99 am   BACKBONE|DICT|INTERRES
   195   99  100 1    
   196   99  220 1    
   197  100  101 1    
   198  100  102 1    
   199  100  221 1    
   200  101  222 1    
   201  101  223 1    
   202  101  224 1    
   203  102  103 2    
   204  102  104 am   BACKBONE|DICT|INTERRES
   205  104  105 1    
   206  104  225 1    
   207  105  106 1    
   208  105  107 1    
   209  105  226 1    
   210  106  227 1    
   211  106  228 1    
   212  106  229 1    
   213  107  108 2    
   214  107  109 am   BACKBONE|DICT|INTERRES
   215  109  110 1    
   216  109  230 1    
   217  110  111 1    
   218  110  112 1    
   219  110  231 1    
   220  111  232 1    
   221  111  233 1    
   222  111  234 1    
   223  112  113 2    
   224  112  114 am   BACKBONE|DICT|INTERRES
   225  114  115 1    
   226  114  235 1    
   227  115  116 1    
   228  115  117 1    
   229  115  236 1    
   230  116  237 1    
   231  116  238 1    
   232  116  239 1    
   233  117  118 2    
   234  117  119 am   BACKBONE|DICT|INTERRES
   235  119  120 1    
   236  119  240 1    
   237  120  121 1    
   238  120  124 1    
   239  120  241 1    
   240  121  122 am   BACKBONE|DICT|INTERRES
   241  121  123 2    
   242  122  242 1    
   243  122  243 1    
   244  124  125 1    
   245  124  244 1    
   246  124  245 1    
   247  125  126 1    
   248  126  246 1    
   249  126  247 1    
@<TRIPOS>SUBSTRUCTURE
     1 UNK         1 GROUP             0       ****    0 ROOT    
