@<TRIPOS>MOLECULE
3R540
247   249    1
SMALL
USER_CHARGES


@<TRIPOS>ATOM
      1 CA          4.1713  -10.7350  -50.7360 C.3       0 UNK        -0.1800 
      2 C           4.3591  -12.1854  -50.3144 C.2       0 UNK         0.5000 
      3 O           5.3528  -12.5123  -49.6633 O.2       0 UNK        -0.5000 
      4 N           3.4101  -13.0574  -50.6771 N.am      1 UNK        -0.5000 
      5 CA          3.3857  -14.4820  -50.3312 C.3       1 UNK         0.1400 
      6 C6          2.5694  -15.2892  -51.3732 C.3       23 UNK        -0.0398 
      7 S7          2.8988  -17.0857  -51.2850 S.3       23 UNK        -0.2404 
      8 C8          1.3736  -17.7956  -51.9929 C.3       23 UNK        -0.0205 
      9 C9          0.1207  -17.3635  -51.2434 C.ar      23 UNK        -0.0193 
     10 C10        -0.8639  -16.6141  -51.8935 C.ar      23 UNK        -0.1150 
     11 C11        -2.0031  -16.1861  -51.2059 C.ar      23 UNK        -0.0193 
     12 C12        -2.1532  -16.5118  -49.8546 C.ar      23 UNK        -0.1150 
     13 C13        -1.1679  -17.2491  -49.1902 C.ar      23 UNK        -0.0193 
     14 C14        -0.0416  -17.6846  -49.8934 C.ar      23 UNK        -0.1150 
     15 C15        -1.2913  -17.5264  -47.7009 C.3       23 UNK        -0.0205 
     16 S16        -2.1653  -19.0823  -47.3600 S.3       23 UNK        -0.2404 
     17 C17        -0.8883  -20.3111  -47.8096 C.3       23 UNK        -0.0398 
     18 CA         -1.0621  -21.6812  -47.1128 C.3       11 UNK         0.1400 
     19 N          -0.9811  -21.5792  -45.6499 N.am      11 UNK        -0.5000 
     20 C          -1.0766  -22.5968  -44.7804 C.2       10 UNK         0.5000 
     21 O          -1.1728  -23.7763  -45.1231 O.2       10 UNK        -0.5000 
     22 CA         -1.1368  -22.2530  -43.2814 C.3       10 UNK         0.1400 
     23 CB          0.2007  -22.5799  -42.6023 C.3       10 UNK        -0.1800 
     24 N          -1.5084  -20.8657  -42.9879 N.am      10 UNK        -0.5000 
     25 C          -2.6902  -20.2986  -43.2778 C.2       9 UNK         0.5000 
     26 O          -3.5837  -20.8707  -43.9040 O.2       9 UNK        -0.5000 
     27 CA         -2.8994  -18.8490  -42.8101 C.3       9 UNK         0.1400 
     28 CB         -3.2504  -18.8101  -41.3142 C.3       9 UNK        -0.1800 
     29 N          -1.6969  -18.0493  -43.0421 N.am      9 UNK        -0.5000 
     30 C          -1.5938  -17.0572  -43.9372 C.2       8 UNK         0.5000 
     31 O          -2.5423  -16.6379  -44.6006 O.2       8 UNK        -0.5000 
     32 CA         -0.2057  -16.4085  -44.1310 C.3       8 UNK         0.1400 
     33 CB         -0.1760  -14.9967  -43.5254 C.3       8 UNK        -0.1800 
     34 N           0.8946  -17.1905  -43.5644 N.am      8 UNK        -0.5000 
     35 C           1.3465  -18.3516  -44.0639 C.2       7 UNK         0.5000 
     36 O           0.8984  -18.8766  -45.0829 O.2       7 UNK        -0.5000 
     37 CA          2.4503  -19.0781  -43.2666 C.3       7 UNK         0.1400 
     38 CB          3.8376  -18.7142  -43.8162 C.3       7 UNK        -0.1800 
     39 N           2.4271  -18.8096  -41.8256 N.am      7 UNK        -0.5000 
     40 C           1.3841  -19.0007  -41.0041 C.2       6 UNK         0.5000 
     41 O           0.3153  -19.4935  -41.3649 O.2       6 UNK        -0.5000 
     42 CA          1.5302  -18.4941  -39.5555 C.3       6 UNK         0.1400 
     43 CB          1.9501  -19.6455  -38.6300 C.3       6 UNK        -0.1800 
     44 N           2.4669  -17.3746  -39.3889 N.am      6 UNK        -0.5000 
     45 C           2.3973  -16.1961  -40.0247 C.2       5 UNK         0.5000 
     46 O           1.5614  -15.9354  -40.8943 O.2       5 UNK        -0.5000 
     47 CA          3.4905  -15.1715  -39.6710 C.3       5 UNK         0.1400 
     48 CB          4.7948  -15.5120  -40.4111 C.3       5 UNK        -0.1800 
     49 N           3.1018  -13.8098  -40.0289 N.am      5 UNK        -0.5000 
     50 C           2.1465  -13.0797  -39.4444 C.2       4 UNK         0.5000 
     51 O           1.5230  -13.4481  -38.4474 O.2       4 UNK        -0.5000 
     52 CA          1.8279  -11.7043  -40.0716 C.3       4 UNK         0.1400 
     53 CB          2.8274  -10.6352  -39.5893 C.3       4 UNK        -0.1800 
     54 N           1.7013  -11.6894  -41.5400 N.am      4 UNK        -0.5000 
     55 C           2.6342  -11.9352  -42.4705 C.2       3 UNK         0.5000 
     56 O           3.8000  -12.2564  -42.2198 O.2       3 UNK        -0.5000 
     57 CA          2.1976  -11.8021  -43.9351 C.3       3 UNK         0.1400 
     58 CB          2.4400  -10.3714  -44.4502 C.3       3 UNK        -0.1800 
     59 N           2.9722  -12.7657  -44.7082 N.am      3 UNK        -0.5000 
     60 C           2.7027  -13.1959  -45.9436 C.2       2 UNK         0.5000 
     61 O           1.7683  -12.7683  -46.6242 O.2       2 UNK        -0.5000 
     62 CA          3.6456  -14.2971  -46.4702 C.3       2 UNK         0.1400 
     63 CB          3.2465  -15.6829  -45.9235 C.3       2 UNK        -0.1800 
     64 N           3.7909  -14.3096  -47.9300 N.am      2 UNK        -0.5000 
     65 C           2.9039  -14.6654  -48.8712 C.2       1 UNK         0.5000 
     66 O           1.7704  -15.0856  -48.6381 O.2       1 UNK        -0.5000 
     67 C          -2.3321  -22.4022  -47.6165 C.2       11 UNK         0.5000 
     68 O          -2.2806  -23.0389  -48.6696 O.2       11 UNK        -0.5000 
     69 N          -3.4241  -22.3432  -46.8383 N.am      12 UNK        -0.5000 
     70 CA         -4.6745  -23.0670  -47.0699 C.3       12 UNK         0.1400 
     71 CB         -5.6849  -22.6824  -45.9801 C.3       12 UNK        -0.1800 
     72 C          -4.5026  -24.5978  -47.1331 C.2       12 UNK         0.5000 
     73 O          -5.2477  -25.2558  -47.8587 O.2       12 UNK        -0.5000 
     74 N          -3.5123  -25.1249  -46.4019 N.am      13 UNK        -0.5000 
     75 CA         -3.1222  -26.5310  -46.4177 C.3       13 UNK         0.1400 
     76 CB         -2.9433  -27.0197  -44.9711 C.3       13 UNK        -0.1800 
     77 C          -1.8258  -26.7273  -47.2193 C.2       13 UNK         0.5000 
     78 O          -1.7676  -27.6167  -48.0679 O.2       13 UNK        -0.5000 
     79 N          -0.8104  -25.8974  -46.9397 N.am      14 UNK        -0.5000 
     80 CA          0.5544  -26.0438  -47.4514 C.3       14 UNK         0.1400 
     81 CB          1.4915  -25.1279  -46.6487 C.3       14 UNK        -0.1800 
     82 C           0.7029  -25.7763  -48.9601 C.2       14 UNK         0.5000 
     83 O           1.5568  -26.3951  -49.5966 O.2       14 UNK        -0.5000 
     84 N          -0.1195  -24.8698  -49.5012 N.am      15 UNK        -0.5000 
     85 CA         -0.1323  -24.4866  -50.9151 C.3       15 UNK         0.1400 
     86 CB          0.2912  -23.0102  -51.0280 C.3       15 UNK        -0.1800 
     87 C          -1.5145  -24.7166  -51.5533 C.2       15 UNK         0.5000 
     88 O          -1.7354  -24.2734  -52.6811 O.2       15 UNK        -0.5000 
     89 N          -2.4357  -25.3581  -50.8162 N.am      16 UNK        -0.5000 
     90 CA         -3.8455  -25.5790  -51.1601 C.3       16 UNK         0.1400 
     91 CB         -3.9651  -26.6086  -52.3032 C.3       16 UNK        -0.1800 
     92 C          -4.5978  -24.2625  -51.4584 C.2       16 UNK         0.5000 
     93 O          -5.3814  -24.2028  -52.4060 O.2       16 UNK        -0.5000 
     94 N          -4.2972  -23.2146  -50.6751 N.am      17 UNK        -0.5000 
     95 CA         -4.7580  -21.8301  -50.8334 C.3       17 UNK         0.1400 
     96 CB         -6.2825  -21.7201  -50.6199 C.3       17 UNK        -0.1800 
     97 C          -4.2886  -21.2238  -52.1707 C.2       17 UNK         0.5000 
     98 O          -5.0819  -20.6128  -52.8877 O.2       17 UNK        -0.5000 
     99 N          -3.0047  -21.4494  -52.4884 N.am      18 UNK        -0.5000 
    100 CA        -2.3217  -21.0877  -53.7345 C.3       18 UNK         0.1400 
    101 CB        -2.1973  -19.5562  -53.8599 C.3       18 UNK        -0.1800 
    102 C         -2.9885  -21.7467  -54.9587 C.2       18 UNK         0.5000 
    103 O         -3.3291  -21.0630  -55.9239 O.2       18 UNK        -0.5000 
    104 N         -3.2082  -23.0670  -54.8636 N.am      19 UNK        -0.5000 
    105 CA        -3.9547  -23.9049  -55.8109 C.3       19 UNK         0.1400 
    106 CB        -3.1617  -24.0817  -57.1222 C.3       19 UNK        -0.1800 
    107 C         -5.3953  -23.3905  -56.0333 C.2       19 UNK         0.5000 
    108 O         -5.8443  -23.2496  -57.1722 O.2       19 UNK        -0.5000 
    109 N         -6.0700  -23.0879  -54.9164 N.am      20 UNK        -0.5000 
    110 CA        -7.4220  -22.5412  -54.7749 C.3       20 UNK         0.1400 
    111 CB        -8.4695  -23.5030  -55.3732 C.3       20 UNK        -0.1800 
    112 C         -7.6116  -21.0920  -55.2768 C.2       20 UNK         0.5000 
    113 O         -8.7412  -20.5956  -55.2350 O.2       20 UNK        -0.5000 
    114 N         -6.5386  -20.4132  -55.7099 N.am      21 UNK        -0.5000 
    115 CA        -6.5858  -19.0342  -56.2066 C.3       21 UNK         0.1400 
    116 CB        -5.2821  -18.7095  -56.9518 C.3       21 UNK        -0.1800 
    117 C         -6.8391  -17.9929  -55.0986 C.2       21 UNK         0.5000 
    118 O         -7.4297  -16.9485  -55.3780 O.2       21 UNK        -0.5000 
    119 N         -6.3980  -18.2975  -53.8735 N.am      22 UNK        -0.5000 
    120 CA        -6.5343  -17.4566  -52.6741 C.3       22 UNK         0.1400 
    121 C         -7.5920  -18.0080  -51.6732 C.2       22 UNK         0.5000 
    122 N         -8.4176  -18.9800  -52.0460 N.am      22 UNK        -0.7600 
    123 O         -7.6866  -17.5342  -50.5444 O.2       22 UNK        -0.5000 
    124 C124       -5.1559  -17.2130  -52.0023 C.3       23 UNK        -0.0398 
    125 S125       -4.0210  -16.3018  -53.1054 S.3       23 UNK        -0.2404 
    126 C126       -3.0415  -15.3328  -51.9188 C.3       23 UNK        -0.0205 
    127 H127        3.2595  -10.5963  -51.3184 H         1 UNK         0.0600 
    128 H128        5.0160  -10.4086  -51.3433 H         1 UNK         0.0600 
    129 H129        4.1141  -10.0935  -49.8560 H         1 UNK         0.0600 
    130 H130        2.6025  -12.7193  -51.1813 H         1 UNK         0.3000 
    131 H131        4.4131  -14.8513  -50.3800 H         1 UNK         0.0600 
    132 H132        2.8371  -14.9699  -52.3814 H         1 UNK         0.0800 
    133 H133        1.5043  -15.0802  -51.2684 H         1 UNK         0.0800 
    134 H134        1.4438  -18.8838  -51.9669 H         1 UNK         0.0800 
    135 H135        1.3113  -17.5173  -53.0462 H         1 UNK         0.0800 
    136 H136       -0.7435  -16.3532  -52.9358 H         1 UNK         0.1150 
    137 H137       -3.0232  -16.1703  -49.3113 H         1 UNK         0.1150 
    138 H138        0.7308  -18.2406  -49.3813 H         1 UNK         0.1150 
    139 H139       -0.3035  -17.5469  -47.2384 H         1 UNK         0.0800 
    140 H140       -1.8318  -16.7085  -47.2231 H         1 UNK         0.0800 
    141 H141       -0.8862  -20.4282  -48.8948 H         1 UNK         0.0800 
    142 H142        0.0926  -19.9079  -47.5541 H         1 UNK         0.0800 
    143 H143       -0.2213  -22.3044  -47.4212 H         1 UNK         0.0600 
    144 H144       -0.8935  -20.6420  -45.2798 H         1 UNK         0.3000 
    145 H145       -1.9032  -22.8936  -42.8405 H         1 UNK         0.0600 
    146 H146        0.1556  -22.3962  -41.5284 H         1 UNK         0.0600 
    147 H147        1.0143  -21.9833  -43.0116 H         1 UNK         0.0600 
    148 H148        0.4633  -23.6295  -42.7415 H         1 UNK         0.0600 
    149 H149       -0.8369  -20.3393  -42.4325 H         1 UNK         0.3000 
    150 H150       -3.7476  -18.4446  -43.3667 H         1 UNK         0.0600 
    151 H151       -4.1410  -19.4050  -41.1067 H         1 UNK         0.0600 
    152 H152       -3.4564  -17.7909  -40.9866 H         1 UNK         0.0600 
    153 H153       -2.4407  -19.2017  -40.6968 H         1 UNK         0.0600 
    154 H154       -0.8663  -18.3316  -42.5347 H         1 UNK         0.3000 
    155 H155       -0.0339  -16.3149  -45.2045 H         1 UNK         0.0600 
    156 H156       -0.8975  -14.3448  -44.0196 H         1 UNK         0.0600 
    157 H157        0.8072  -14.5411  -43.6386 H         1 UNK         0.0600 
    158 H158       -0.4192  -15.0093  -42.4622 H         1 UNK         0.0600 
    159 H159        1.2837  -16.8423  -42.6932 H         1 UNK         0.3000 
    160 H160        2.3017  -20.1486  -43.4083 H         1 UNK         0.0600 
    161 H161        4.0819  -17.6677  -43.6313 H         1 UNK         0.0600 
    162 H162        3.8896  -18.8800  -44.8935 H         1 UNK         0.0600 
    163 H163        4.6155  -19.3250  -43.3573 H         1 UNK         0.0600 
    164 H164        3.2583  -18.3913  -41.4353 H         1 UNK         0.3000 
    165 H165        0.5453  -18.1433  -39.2398 H         1 UNK         0.0600 
    166 H166        1.9521  -19.3328  -37.5854 H         1 UNK         0.0600 
    167 H167        1.2595  -20.4862  -38.7141 H         1 UNK         0.0600 
    168 H168        2.9475  -20.0144  -38.8736 H         1 UNK         0.0600 
    169 H169        3.2000  -17.5116  -38.7072 H         1 UNK         0.3000 
    170 H170        3.6696  -15.2072  -38.5941 H         1 UNK         0.0600 
    171 H171        4.6594  -15.4893  -41.4940 H         1 UNK         0.0600 
    172 H172        5.5861  -14.8055  -40.1590 H         1 UNK         0.0600 
    173 H173        5.1544  -16.5068  -40.1449 H         1 UNK         0.0600 
    174 H174        3.5397  -13.4097  -40.8551 H         1 UNK         0.3000 
    175 H175        0.8445  -11.4176  -39.6947 H         1 UNK         0.0600 
    176 H176        3.8450  -10.8484  -39.9183 H         1 UNK         0.0600 
    177 H177        2.5554   -9.6466  -39.9592 H         1 UNK         0.0600 
    178 H178        2.8433  -10.5813  -38.4998 H         1 UNK         0.0600 
    179 H179        0.7723  -11.4630  -41.8682 H         1 UNK         0.3000 
    180 H180        1.1368  -12.0487  -44.0164 H         1 UNK         0.0600 
    181 H181        1.8938   -9.6423  -43.8502 H         1 UNK         0.0600 
    182 H182        2.1052  -10.2556  -45.4812 H         1 UNK         0.0600 
    183 H183        3.4971  -10.1050  -44.4098 H         1 UNK         0.0600 
    184 H184        3.7550  -13.1518  -44.1936 H         1 UNK         0.3000 
    185 H185        4.6434  -14.0708  -46.0900 H         1 UNK         0.0600 
    186 H186        2.2414  -15.9720  -46.2312 H         1 UNK         0.0600 
    187 H187        3.9362  -16.4564  -46.2616 H         1 UNK         0.0600 
    188 H188        3.2603  -15.6880  -44.8331 H         1 UNK         0.0600 
    189 H189        4.6463  -13.8847  -48.2726 H         1 UNK         0.3000 
    190 H190       -3.3774  -21.7934  -45.9884 H         1 UNK         0.3000 
    191 H191       -5.0714  -22.7396  -48.0294 H         1 UNK         0.0600 
    192 H192       -5.8723  -21.6083  -45.9780 H         1 UNK         0.0600 
    193 H193       -5.3295  -22.9613  -44.9871 H         1 UNK         0.0600 
    194 H194       -6.6426  -23.1795  -46.1397 H         1 UNK         0.0600 
    195 H195       -2.9213  -24.5018  -45.8633 H         1 UNK         0.3000 
    196 H196       -3.8993  -27.1412  -46.8831 H         1 UNK         0.0600 
    197 H197       -3.8773  -26.9433  -44.4141 H         1 UNK         0.0600 
    198 H198       -2.1888  -26.4413  -44.4362 H         1 UNK         0.0600 
    199 H199       -2.6352  -28.0658  -44.9470 H         1 UNK         0.0600 
    200 H200       -0.9439  -25.1789  -46.2308 H         1 UNK         0.3000 
    201 H201        0.8634  -27.0762  -47.2742 H         1 UNK         0.0600 
    202 H202        1.4513  -25.3583  -45.5839 H         1 UNK         0.0600 
    203 H203        1.2328  -24.0765  -46.7722 H         1 UNK         0.0600 
    204 H204        2.5271  -25.2505  -46.9687 H         1 UNK         0.0600 
    205 H205       -0.8010  -24.4013  -48.9144 H         1 UNK         0.3000 
    206 H206        0.5746  -25.0897  -51.4880 H         1 UNK         0.0600 
    207 H207        1.2696  -22.8468  -50.5758 H         1 UNK         0.0600 
    208 H208       -0.4190  -22.3461  -50.5353 H         1 UNK         0.0600 
    209 H209        0.3640  -22.6995  -52.0708 H         1 UNK         0.0600 
    210 H210       -2.1475  -25.7034  -49.9121 H         1 UNK         0.3000 
    211 H211       -4.3182  -26.0101  -50.2774 H         1 UNK         0.0600 
    212 H212       -3.5451  -26.2310  -53.2356 H         1 UNK         0.0600 
    213 H213       -5.0085  -26.8632  -52.4934 H         1 UNK         0.0600 
    214 H214       -3.4469  -27.5344  -52.0536 H         1 UNK         0.0600 
    215 H215       -3.5943  -23.3516  -49.9525 H         1 UNK         0.3000 
    216 H216       -4.2723  -21.2508  -50.0466 H         1 UNK         0.0600 
    217 H217       -6.5885  -20.6753  -50.5700 H         1 UNK         0.0600 
    218 H218       -6.5949  -22.1920  -49.6896 H         1 UNK         0.0600 
    219 H219       -6.8432  -22.1850  -51.4302 H         1 UNK         0.0600 
    220 H220       -2.4650  -22.0223  -51.8570 H         1 UNK         0.3000 
    221 H221       -1.3135  -21.4988  -53.6702 H         1 UNK         0.0600 
    222 H222       -3.1683  -19.0799  -53.9951 H         1 UNK         0.0600 
    223 H223       -1.7363  -19.1267  -52.9718 H         1 UNK         0.0600 
    224 H224       -1.5789  -19.2826  -54.7147 H         1 UNK         0.0600 
    225 H225       -2.8571  -23.5413  -54.0348 H         1 UNK         0.3000 
    226 H226       -4.0484  -24.8872  -55.3460 H         1 UNK         0.0600 
    227 H227       -2.1617  -24.4701  -56.9279 H         1 UNK         0.0600 
    228 H228       -3.6605  -24.7879  -57.7872 H         1 UNK         0.0600 
    229 H229       -3.0567  -23.1409  -57.6633 H         1 UNK         0.0600 
    230 H230       -5.6141  -23.2885  -54.0287 H         1 UNK         0.3000 
    231 H231       -7.5998  -22.4996  -53.6995 H         1 UNK         0.0600 
    232 H232       -9.4820  -23.1848  -55.1230 H         1 UNK         0.0600 
    233 H233       -8.3442  -24.5139  -54.9840 H         1 UNK         0.0600 
    234 H234       -8.4043  -23.5496  -56.4607 H         1 UNK         0.0600 
    235 H235       -5.6284  -20.8588  -55.6841 H         1 UNK         0.3000 
    236 H236       -7.4081  -18.9639  -56.9225 H         1 UNK         0.0600 
    237 H237       -4.4285  -18.6821  -56.2728 H         1 UNK         0.0600 
    238 H238       -5.0729  -19.4462  -57.7288 H         1 UNK         0.0600 
    239 H239       -5.3437  -17.7333  -57.4340 H         1 UNK         0.0600 
    240 H240       -5.9335  -19.1907  -53.7200 H         1 UNK         0.3000 
    241 H241       -6.9229  -16.4786  -52.9631 H         1 UNK         0.0600 
    242 H242       -9.1083  -19.3213  -51.3968 H         1 UNK         0.3800 
    243 H243       -8.3777  -19.3501  -52.9828 H         1 UNK         0.3800 
    244 H244       -4.6877  -18.1559  -51.7171 H         1 UNK         0.0800 
    245 H245       -5.2762  -16.6398  -51.0819 H         1 UNK         0.0800 
    246 H246       -3.7026  -14.8380  -51.2058 H         1 UNK         0.0800 
    247 H247       -2.5312  -14.5346  -52.4600 H         1 UNK         0.0800 
@<TRIPOS>BOND
     1    1    2 1    
     2    1  127 1    
     3    1  128 1    
     4    1  129 1    
     5    2    3 2    
     6    2    4 am   BACKBONE|DICT|INTERRES
     7    4    5 1    
     8    4  130 1    
     9    5    6 1    
    10    5   65 1    
    11    5  131 1    
    12    6    7 1    
    13    6  132 1    
    14    6  133 1    
    15    7    8 1    
    16    8    9 1    
    17    8  134 1    
    18    8  135 1    
    19    9   10 ar   
    20    9   14 ar   
    21   10   11 ar   
    22   10  136 1    
    23   11   12 ar   
    24   11  126 1    
    25   12   13 ar   
    26   12  137 1    
    27   13   14 ar   
    28   13   15 1    
    29   14  138 1    
    30   15   16 1    
    31   15  139 1    
    32   15  140 1    
    33   16   17 1    
    34   17   18 1    
    35   17  141 1    
    36   17  142 1    
    37   18   19 1    
    38   18   67 1    
    39   18  143 1    
    40   19   20 am   BACKBONE|DICT|INTERRES
    41   19  144 1    
    42   20   21 2    
    43   20   22 1    
    44   22   23 1    
    45   22   24 1    
    46   22  145 1    
    47   23  146 1    
    48   23  147 1    
    49   23  148 1    
    50   24   25 am   BACKBONE|DICT|INTERRES
    51   24  149 1    
    52   25   26 2    
    53   25   27 1    
    54   27   28 1    
    55   27   29 1    
    56   27  150 1    
    57   28  151 1    
    58   28  152 1    
    59   28  153 1    
    60   29   30 am   BACKBONE|DICT|INTERRES
    61   29  154 1    
    62   30   31 2    
    63   30   32 1    
    64   32   33 1    
    65   32   34 1    
    66   32  155 1    
    67   33  156 1    
    68   33  157 1    
    69   33  158 1    
    70   34   35 am   BACKBONE|DICT|INTERRES
    71   34  159 1    
    72   35   36 2    
    73   35   37 1    
    74   37   38 1    
    75   37   39 1    
    76   37  160 1    
    77   38  161 1    
    78   38  162 1    
    79   38  163 1    
    80   39   40 am   BACKBONE|DICT|INTERRES
    81   39  164 1    
    82   40   41 2    
    83   40   42 1    
    84   42   43 1    
    85   42   44 1    
    86   42  165 1    
    87   43  166 1    
    88   43  167 1    
    89   43  168 1    
    90   44   45 am   BACKBONE|DICT|INTERRES
    91   44  169 1    
    92   45   46 2    
    93   45   47 1    
    94   47   48 1    
    95   47   49 1    
    96   47  170 1    
    97   48  171 1    
    98   48  172 1    
    99   48  173 1    
   100   49   50 am   BACKBONE|DICT|INTERRES
   101   49  174 1    
   102   50   51 2    
   103   50   52 1    
   104   52   53 1    
   105   52   54 1    
   106   52  175 1    
   107   53  176 1    
   108   53  177 1    
   109   53  178 1    
   110   54   55 am   BACKBONE|DICT|INTERRES
   111   54  179 1    
   112   55   56 2    
   113   55   57 1    
   114   57   58 1    
   115   57   59 1    
   116   57  180 1    
   117   58  181 1    
   118   58  182 1    
   119   58  183 1    
   120   59   60 am   BACKBONE|DICT|INTERRES
   121   59  184 1    
   122   60   61 2    
   123   60   62 1    
   124   62   63 1    
   125   62   64 1    
   126   62  185 1    
   127   63  186 1    
   128   63  187 1    
   129   63  188 1    
   130   64   65 am   BACKBONE|DICT|INTERRES
   131   64  189 1    
   132   65   66 2    
   133   67   68 2    
   134   67   69 am   BACKBONE|DICT|INTERRES
   135   69   70 1    
   136   69  190 1    
   137   70   71 1    
   138   70   72 1    
   139   70  191 1    
   140   71  192 1    
   141   71  193 1    
   142   71  194 1    
   143   72   73 2    
   144   72   74 am   BACKBONE|DICT|INTERRES
   145   74   75 1    
   146   74  195 1    
   147   75   76 1    
   148   75   77 1    
   149   75  196 1    
   150   76  197 1    
   151   76  198 1    
   152   76  199 1    
   153   77   78 2    
   154   77   79 am   BACKBONE|DICT|INTERRES
   155   79   80 1    
   156   79  200 1    
   157   80   81 1    
   158   80   82 1    
   159   80  201 1    
   160   81  202 1    
   161   81  203 1    
   162   81  204 1    
   163   82   83 2    
   164   82   84 am   BACKBONE|DICT|INTERRES
   165   84   85 1    
   166   84  205 1    
   167   85   86 1    
   168   85   87 1    
   169   85  206 1    
   170   86  207 1    
   171   86  208 1    
   172   86  209 1    
   173   87   88 2    
   174   87   89 am   BACKBONE|DICT|INTERRES
   175   89   90 1    
   176   89  210 1    
   177   90   91 1    
   178   90   92 1    
   179   90  211 1    
   180   91  212 1    
   181   91  213 1    
   182   91  214 1    
   183   92   93 2    
   184   92   94 am   BACKBONE|DICT|INTERRES
   185   94   95 1    
   186   94  215 1    
   187   95   96 1    
   188   95   97 1    
   189   95  216 1    
   190   96  217 1    
   191   96  218 1    
   192   96  219 1    
   193   97   98 2    
   194   97   99 am   BACKBONE|DICT|INTERRES
   195   99  100 1    
   196   99  220 1    
   197  100  101 1    
   198  100  102 1    
   199  100  221 1    
   200  101  222 1    
   201  101  223 1    
   202  101  224 1    
   203  102  103 2    
   204  102  104 am   BACKBONE|DICT|INTERRES
   205  104  105 1    
   206  104  225 1    
   207  105  106 1    
   208  105  107 1    
   209  105  226 1    
   210  106  227 1    
   211  106  228 1    
   212  106  229 1    
   213  107  108 2    
   214  107  109 am   BACKBONE|DICT|INTERRES
   215  109  110 1    
   216  109  230 1    
   217  110  111 1    
   218  110  112 1    
   219  110  231 1    
   220  111  232 1    
   221  111  233 1    
   222  111  234 1    
   223  112  113 2    
   224  112  114 am   BACKBONE|DICT|INTERRES
   225  114  115 1    
   226  114  235 1    
   227  115  116 1    
   228  115  117 1    
   229  115  236 1    
   230  116  237 1    
   231  116  238 1    
   232  116  239 1    
   233  117  118 2    
   234  117  119 am   BACKBONE|DICT|INTERRES
   235  119  120 1    
   236  119  240 1    
   237  120  121 1    
   238  120  124 1    
   239  120  241 1    
   240  121  122 am   BACKBONE|DICT|INTERRES
   241  121  123 2    
   242  122  242 1    
   243  122  243 1    
   244  124  125 1    
   245  124  244 1    
   246  124  245 1    
   247  125  126 1    
   248  126  246 1    
   249  126  247 1    
@<TRIPOS>SUBSTRUCTURE
     1 UNK         1 GROUP             0       ****    0 ROOT    
