@<TRIPOS>MOLECULE
3R540
247   249    1
SMALL
USER_CHARGES


@<TRIPOS>ATOM
      1 CA          1.2321  -15.1303  -50.7941 C.3       0 UNK        -0.1800 
      2 C           0.9742  -14.6551  -49.3717 C.2       0 UNK         0.5000 
      3 O           1.9151  -14.2979  -48.6614 O.2       0 UNK        -0.5000 
      4 N          -0.2975  -14.6385  -48.9548 N.am      1 UNK        -0.5000 
      5 CA         -0.7628  -14.1754  -47.6434 C.3       1 UNK         0.1400 
      6 C6         -2.1426  -14.7784  -47.2770 C.3       23 UNK        -0.0398 
      7 S7         -2.0571  -16.5562  -46.8785 S.3       23 UNK        -0.2404 
      8 C8         -2.8174  -17.3540  -48.3381 C.3       23 UNK        -0.0205 
      9 C9         -1.8480  -17.8988  -49.3893 C.ar      23 UNK        -0.0193 
     10 C10        -2.3743  -18.2919  -50.6233 C.ar      23 UNK        -0.1150 
     11 C11        -1.5570  -18.8026  -51.6356 C.ar      23 UNK        -0.0193 
     12 C12        -0.1841  -18.9286  -51.3932 C.ar      23 UNK        -0.1150 
     13 C13         0.3629  -18.5502  -50.1653 C.ar      23 UNK        -0.0193 
     14 C14        -0.4722  -18.0452  -49.1645 C.ar      23 UNK        -0.1150 
     15 C15         1.8656  -18.6502  -49.9490 C.3       23 UNK        -0.0205 
     16 S16         2.3882  -20.3321  -49.4954 S.3       23 UNK        -0.2404 
     17 C17         2.0364  -20.3411  -47.7077 C.3       23 UNK        -0.0398 
     18 CA          1.3900  -21.6575  -47.2195 C.3       11 UNK         0.1400 
     19 N           1.5581  -21.8302  -45.7747 N.am      11 UNK        -0.5000 
     20 C           1.2682  -22.9457  -45.0917 C.2       10 UNK         0.5000 
     21 O           0.8784  -23.9873  -45.6187 O.2       10 UNK        -0.5000 
     22 CA          1.3861  -22.8676  -43.5575 C.3       10 UNK         0.1400 
     23 CB          2.8423  -23.0526  -43.1064 C.3       10 UNK        -0.1800 
     24 N           0.8580  -21.6114  -43.0214 N.am      10 UNK        -0.5000 
     25 C          -0.4297  -21.2445  -43.0954 C.2       9 UNK         0.5000 
     26 O          -1.3162  -21.9670  -43.5513 O.2       9 UNK        -0.5000 
     27 CA         -0.7780  -19.8155  -42.6352 C.3       9 UNK         0.1400 
     28 CB         -0.9440  -19.7522  -41.1099 C.3       9 UNK        -0.1800 
     29 N           0.2104  -18.8239  -43.0635 N.am      9 UNK        -0.5000 
     30 C           0.4920  -18.5353  -44.3418 C.2       8 UNK         0.5000 
     31 O          -0.0816  -19.0487  -45.2981 O.2       8 UNK        -0.5000 
     32 CA          1.6553  -17.5658  -44.6022 C.3       8 UNK         0.1400 
     33 CB          1.2072  -16.1075  -44.4461 C.3       8 UNK        -0.1800 
     34 N           2.7959  -17.8382  -43.7287 N.am      8 UNK        -0.5000 
     35 C           3.5577  -18.9386  -43.8071 C.2       7 UNK         0.5000 
     36 O           3.4049  -19.8145  -44.6574 O.2       7 UNK        -0.5000 
     37 CA          4.6418  -19.1086  -42.7278 C.3       7 UNK         0.1400 
     38 CB          5.9157  -18.3429  -43.1143 C.3       7 UNK        -0.1800 
     39 N           4.1891  -18.6640  -41.4091 N.am      7 UNK        -0.5000 
     40 C           3.2255  -19.2649  -40.6959 C.2       6 UNK         0.5000 
     41 O           2.6519  -20.2938  -41.0530 O.2       6 UNK        -0.5000 
     42 CA          2.7947  -18.5601  -39.3946 C.3       6 UNK         0.1400 
     43 CB          3.7030  -18.9737  -38.2274 C.3       6 UNK        -0.1800 
     44 N           2.7880  -17.0975  -39.5161 N.am      6 UNK        -0.5000 
     45 C           1.9888  -16.4184  -40.3493 C.2       5 UNK         0.5000 
     46 O           1.1610  -16.9615  -41.0840 O.2       5 UNK        -0.5000 
     47 CA          2.2055  -14.8963  -40.4267 C.3       5 UNK         0.1400 
     48 CB          3.4128  -14.5755  -41.3228 C.3       5 UNK        -0.1800 
     49 N           1.0347  -14.2153  -40.9750 N.am      5 UNK        -0.5000 
     50 C          -0.1006  -13.9720  -40.3119 C.2       4 UNK         0.5000 
     51 O          -0.2518  -14.2244  -39.1147 O.2       4 UNK        -0.5000 
     52 CA         -1.2411  -13.3156  -41.1238 C.3       4 UNK         0.1400 
     53 CB         -2.4454  -12.9247  -40.2477 C.3       4 UNK        -0.1800 
     54 N          -0.7951  -12.1298  -41.8638 N.am      4 UNK        -0.5000 
     55 C          -0.1419  -12.1469  -43.0310 C.2       3 UNK         0.5000 
     56 O           0.1814  -13.1854  -43.6146 O.2       3 UNK        -0.5000 
     57 CA          0.2463  -10.7878  -43.6290 C.3       3 UNK         0.1400 
     58 CB          1.4860  -10.2062  -42.9271 C.3       3 UNK        -0.1800 
     59 N           0.5300  -10.9912  -45.0430 N.am      3 UNK        -0.5000 
     60 C           0.4135  -10.0882  -46.0215 C.2       2 UNK         0.5000 
     61 O           0.1158   -8.9081  -45.8325 O.2       2 UNK        -0.5000 
     62 CA          0.6597  -10.5930  -47.4587 C.3       2 UNK         0.1400 
     63 CB          2.0936  -10.2697  -47.9054 C.3       2 UNK        -0.1800 
     64 N           0.4311  -12.0333  -47.6072 N.am      2 UNK        -0.5000 
     65 C          -0.7668  -12.6311  -47.5756 C.2       1 UNK         0.5000 
     66 O          -1.8299  -12.0118  -47.5038 O.2       1 UNK        -0.5000 
     67 C          -0.0896  -21.7811  -47.6443 C.2       11 UNK         0.5000 
     68 O          -0.3844  -22.4980  -48.5990 O.2       11 UNK        -0.5000 
     69 N          -0.9964  -21.1436  -46.8894 N.am      12 UNK        -0.5000 
     70 CA         -2.4468  -21.2279  -47.0628 C.3       12 UNK         0.1400 
     71 CB         -3.1472  -20.3013  -46.0570 C.3       12 UNK        -0.1800 
     72 C          -2.9759  -22.6632  -46.9094 C.2       12 UNK         0.5000 
     73 O          -3.7962  -23.0942  -47.7191 O.2       12 UNK        -0.5000 
     74 N          -2.4764  -23.3831  -45.8946 N.am      13 UNK        -0.5000 
     75 CA         -2.7864  -24.7898  -45.6447 C.3       13 UNK         0.1400 
     76 CB         -2.2169  -25.2148  -44.2831 C.3       13 UNK        -0.1800 
     77 C          -2.2838  -25.7112  -46.7706 C.2       13 UNK         0.5000 
     78 O          -3.0372  -26.5733  -47.2230 O.2       13 UNK        -0.5000 
     79 N          -1.0475  -25.4840  -47.2383 N.am      14 UNK        -0.5000 
     80 CA         -0.4390  -26.1930  -48.3681 C.3       14 UNK         0.1400 
     81 CB          1.0433  -25.8056  -48.4807 C.3       14 UNK        -0.1800 
     82 C          -1.1747  -25.9455  -49.7001 C.2       14 UNK         0.5000 
     83 O          -1.3406  -26.8784  -50.4865 O.2       14 UNK        -0.5000 
     84 N          -1.6412  -24.7069  -49.9048 N.am      15 UNK        -0.5000 
     85 CA         -2.4723  -24.2894  -51.0348 C.3       15 UNK         0.1400 
     86 CB         -2.4208  -22.7559  -51.1482 C.3       15 UNK        -0.1800 
     87 C          -3.9367  -24.7640  -50.9377 C.2       15 UNK         0.5000 
     88 O          -4.6823  -24.5807  -51.8985 O.2       15 UNK        -0.5000 
     89 N          -4.3398  -25.3247  -49.7869 N.am      16 UNK        -0.5000 
     90 CA         -5.6978  -25.7554  -49.4352 C.3       16 UNK         0.1400 
     91 CB         -6.1249  -26.9686  -50.2872 C.3       16 UNK        -0.1800 
     92 C          -6.7176  -24.5955  -49.4721 C.2       16 UNK         0.5000 
     93 O          -7.8568  -24.7814  -49.9035 O.2       16 UNK        -0.5000 
     94 N          -6.2683  -23.4128  -49.0264 N.am      17 UNK        -0.5000 
     95 CA         -6.9841  -22.1341  -48.9751 C.3       17 UNK         0.1400 
     96 CB         -8.1696  -22.2093  -47.9905 C.3       17 UNK        -0.1800 
     97 C          -7.3868  -21.5693  -50.3566 C.2       17 UNK         0.5000 
     98 O          -8.2913  -20.7348  -50.4307 O.2       17 UNK        -0.5000 
     99 N          -6.7076  -22.0083  -51.4258 N.am      18 UNK        -0.5000 
    100 CA        -6.8678  -21.4838  -52.7826 C.3       18 UNK         0.1400 
    101 CB        -6.2220  -22.4634  -53.7734 C.3       18 UNK        -0.1800 
    102 C         -6.2625  -20.0735  -52.9355 C.2       18 UNK         0.5000 
    103 O         -5.4368  -19.6567  -52.1189 O.2       18 UNK        -0.5000 
    104 N         -6.6785  -19.3752  -53.9954 N.am      19 UNK        -0.5000 
    105 CA        -6.1809  -18.0635  -54.3959 C.3       19 UNK         0.1400 
    106 CB        -7.2351  -16.9974  -54.0579 C.3       19 UNK        -0.1800 
    107 C         -5.8876  -18.0895  -55.9022 C.2       19 UNK         0.5000 
    108 O         -6.4962  -18.8806  -56.6294 O.2       19 UNK        -0.5000 
    109 N         -4.9605  -17.2249  -56.3377 N.am      20 UNK        -0.5000 
    110 CA        -4.3917  -17.0895  -57.6878 C.3       20 UNK         0.1400 
    111 CB        -5.4681  -16.7799  -58.7470 C.3       20 UNK        -0.1800 
    112 C         -3.5106  -18.2878  -58.0926 C.2       20 UNK         0.5000 
    113 O         -2.3341  -18.0971  -58.4032 O.2       20 UNK        -0.5000 
    114 N         -4.0784  -19.4960  -58.0376 N.am      21 UNK        -0.5000 
    115 CA        -3.3566  -20.7626  -58.0616 C.3       21 UNK         0.1400 
    116 CB        -4.2040  -21.8106  -58.7989 C.3       21 UNK        -0.1800 
    117 C         -3.1079  -21.1889  -56.6070 C.2       21 UNK         0.5000 
    118 O         -4.0178  -21.0739  -55.7832 O.2       21 UNK        -0.5000 
    119 N         -1.8928  -21.6624  -56.3153 N.am      22 UNK        -0.5000 
    120 CA        -1.4491  -22.0353  -54.9587 C.3       22 UNK         0.1400 
    121 C         -0.8647  -23.4758  -54.8820 C.2       22 UNK         0.5000 
    122 N         -1.0190  -24.3106  -55.9029 N.am      22 UNK        -0.7600 
    123 O         -0.2694  -23.8534  -53.8777 O.2       22 UNK        -0.5000 
    124 C124       -0.4868  -20.9832  -54.3355 C.3       23 UNK        -0.0398 
    125 S125       -1.1033  -19.2624  -54.4101 S.3       23 UNK        -0.2404 
    126 C126       -2.2100  -19.2032  -52.9597 C.3       23 UNK        -0.0205 
    127 H127        0.3683  -15.6516  -51.2081 H         1 UNK         0.0600 
    128 H128        2.0818  -15.8117  -50.8167 H         1 UNK         0.0600 
    129 H129        1.4609  -14.2803  -51.4366 H         1 UNK         0.0600 
    130 H130       -1.0226  -14.9429  -49.5878 H         1 UNK         0.3000 
    131 H131       -0.0481  -14.5088  -46.8892 H         1 UNK         0.0600 
    132 H132       -2.8721  -14.5926  -48.0663 H         1 UNK         0.0800 
    133 H133       -2.5417  -14.2942  -46.3836 H         1 UNK         0.0800 
    134 H134       -3.4280  -18.1861  -47.9896 H         1 UNK         0.0800 
    135 H135       -3.5136  -16.6600  -48.8101 H         1 UNK         0.0800 
    136 H136       -3.4375  -18.1996  -50.8001 H         1 UNK         0.1150 
    137 H137        0.4756  -19.3147  -52.1552 H         1 UNK         0.1150 
    138 H138       -0.0393  -17.7580  -48.2180 H         1 UNK         0.1150 
    139 H139        2.3792  -18.3665  -50.8687 H         1 UNK         0.0800 
    140 H140        2.1966  -17.9391  -49.1903 H         1 UNK         0.0800 
    141 H141        1.4253  -19.4823  -47.4317 H         1 UNK         0.0800 
    142 H142        2.9961  -20.1942  -47.2119 H         1 UNK         0.0800 
    143 H143        1.9281  -22.4851  -47.6870 H         1 UNK         0.0600 
    144 H144        1.9215  -21.0316  -45.2653 H         1 UNK         0.3000 
    145 H145        0.7958  -23.6847  -43.1377 H         1 UNK         0.0600 
    146 H146        2.9192  -23.0612  -42.0190 H         1 UNK         0.0600 
    147 H147        3.2454  -23.9988  -43.4693 H         1 UNK         0.0600 
    148 H148        3.4863  -22.2565  -43.4797 H         1 UNK         0.0600 
    149 H149        1.5207  -20.9877  -42.5720 H         1 UNK         0.3000 
    150 H150       -1.7327  -19.5456  -43.0913 H         1 UNK         0.0600 
    151 H151       -1.7133  -20.4479  -40.7727 H         1 UNK         0.0600 
    152 H152       -1.2417  -18.7543  -40.7870 H         1 UNK         0.0600 
    153 H153       -0.0199  -20.0086  -40.5923 H         1 UNK         0.0600 
    154 H154        0.6917  -18.3093  -42.3306 H         1 UNK         0.3000 
    155 H155        1.9782  -17.7060  -45.6360 H         1 UNK         0.0600 
    156 H156        0.3495  -15.8975  -45.0837 H         1 UNK         0.0600 
    157 H157        0.9057  -15.8800  -43.4252 H         1 UNK         0.0600 
    158 H158        2.0000  -15.4141  -44.7266 H         1 UNK         0.0600 
    159 H159        2.9515  -17.1940  -42.9695 H         1 UNK         0.3000 
    160 H160        4.8863  -20.1711  -42.6646 H         1 UNK         0.0600 
    161 H161        5.7406  -17.2677  -43.1698 H         1 UNK         0.0600 
    162 H162        6.2841  -18.6665  -44.0888 H         1 UNK         0.0600 
    163 H163        6.7141  -18.5166  -42.3926 H         1 UNK         0.0600 
    164 H164        4.6132  -17.8273  -41.0375 H         1 UNK         0.3000 
    165 H165        1.7770  -18.8829  -39.1654 H         1 UNK         0.0600 
    166 H166        3.3564  -18.5447  -37.2870 H         1 UNK         0.0600 
    167 H167        3.7109  -20.0577  -38.1050 H         1 UNK         0.0600 
    168 H168        4.7337  -18.6533  -38.3837 H         1 UNK         0.0600 
    169 H169        3.4495  -16.5925  -38.9438 H         1 UNK         0.3000 
    170 H170        2.3988  -14.5176  -39.4209 H         1 UNK         0.0600 
    171 H171        3.2640  -14.9281  -42.3441 H         1 UNK         0.0600 
    172 H172        3.5939  -13.5013  -41.3661 H         1 UNK         0.0600 
    173 H173        4.3235  -15.0401  -40.9428 H         1 UNK         0.0600 
    174 H174        1.0457  -14.0079  -41.9672 H         1 UNK         0.3000 
    175 H175       -1.5873  -14.0651  -41.8391 H         1 UNK         0.0600 
    176 H176       -3.2538  -12.5110  -40.8509 H         1 UNK         0.0600 
    177 H177       -2.1729  -12.1824  -39.4966 H         1 UNK         0.0600 
    178 H178       -2.8478  -13.7925  -39.7234 H         1 UNK         0.0600 
    179 H179       -0.9851  -11.2396  -41.4261 H         1 UNK         0.3000 
    180 H180       -0.5995  -10.1058  -43.5196 H         1 UNK         0.0600 
    181 H181        1.7663   -9.2431  -43.3539 H         1 UNK         0.0600 
    182 H182        2.3450  -10.8730  -43.0135 H         1 UNK         0.0600 
    183 H183        1.2985  -10.0470  -41.8647 H         1 UNK         0.0600 
    184 H184        0.7330  -11.9539  -45.2814 H         1 UNK         0.3000 
    185 H185       -0.0322  -10.0648  -48.1181 H         1 UNK         0.0600 
    186 H186        2.2931   -9.1996  -47.8355 H         1 UNK         0.0600 
    187 H187        2.8321  -10.7831  -47.2883 H         1 UNK         0.0600 
    188 H188        2.2594  -10.5637  -48.9420 H         1 UNK         0.0600 
    189 H189        1.2475  -12.6213  -47.7432 H         1 UNK         0.3000 
    190 H190       -0.6652  -20.5175  -46.1575 H         1 UNK         0.3000 
    191 H191       -2.6755  -20.8812  -48.0726 H         1 UNK         0.0600 
    192 H192       -2.7140  -19.3032  -46.0636 H         1 UNK         0.0600 
    193 H193       -4.2071  -20.2031  -46.2937 H         1 UNK         0.0600 
    194 H194       -3.0751  -20.6770  -45.0368 H         1 UNK         0.0600 
    195 H195       -1.8448  -22.9302  -45.2413 H         1 UNK         0.3000 
    196 H196       -3.8732  -24.8855  -45.5993 H         1 UNK         0.0600 
    197 H197       -2.4675  -26.2531  -44.0625 H         1 UNK         0.0600 
    198 H198       -2.6246  -24.6030  -43.4781 H         1 UNK         0.0600 
    199 H199       -1.1312  -25.1255  -44.2514 H         1 UNK         0.0600 
    200 H200       -0.4748  -24.7785  -46.7830 H         1 UNK         0.3000 
    201 H201       -0.4934  -27.2625  -48.1550 H         1 UNK         0.0600 
    202 H202        1.5835  -26.0431  -47.5641 H         1 UNK         0.0600 
    203 H203        1.1681  -24.7403  -48.6752 H         1 UNK         0.0600 
    204 H204        1.5276  -26.3468  -49.2944 H         1 UNK         0.0600 
    205 H205       -1.3843  -23.9769  -49.2442 H         1 UNK         0.3000 
    206 H206       -2.0539  -24.7155  -51.9484 H         1 UNK         0.0600 
    207 H207       -3.0223  -22.4032  -51.9860 H         1 UNK         0.0600 
    208 H208       -2.8016  -22.2726  -50.2481 H         1 UNK         0.0600 
    209 H209       -1.4010  -22.4056  -51.3088 H         1 UNK         0.0600 
    210 H210       -3.6561  -25.4146  -49.0460 H         1 UNK         0.3000 
    211 H211       -5.6512  -26.0834  -48.3959 H         1 UNK         0.0600 
    212 H212       -6.2518  -26.7032  -51.3371 H         1 UNK         0.0600 
    213 H213       -7.0731  -27.3775  -49.9367 H         1 UNK         0.0600 
    214 H214       -5.3865  -27.7684  -50.2299 H         1 UNK         0.0600 
    215 H215       -5.3134  -23.3779  -48.6703 H         1 UNK         0.3000 
    216 H216       -6.2694  -21.4187  -48.5660 H         1 UNK         0.0600 
    217 H217       -8.6023  -21.2228  -47.8208 H         1 UNK         0.0600 
    218 H218       -7.8525  -22.5925  -47.0206 H         1 UNK         0.0600 
    219 H219       -8.9656  -22.8544  -48.3633 H         1 UNK         0.0600 
    220 H220       -5.9849  -22.7030  -51.2945 H         1 UNK         0.3000 
    221 H221       -7.9358  -21.4251  -53.0024 H         1 UNK         0.0600 
    222 H222       -5.1421  -22.5219  -53.6319 H         1 UNK         0.0600 
    223 H223       -6.6309  -23.4679  -53.6626 H         1 UNK         0.0600 
    224 H224       -6.3985  -22.1540  -54.8042 H         1 UNK         0.0600 
    225 H225       -7.2815  -19.8161  -54.6775 H         1 UNK         0.3000 
    226 H226       -5.2527  -17.8303  -53.8706 H         1 UNK         0.0600 
    227 H227       -7.4422  -16.9759  -52.9878 H         1 UNK         0.0600 
    228 H228       -6.8924  -16.0020  -54.3430 H         1 UNK         0.0600 
    229 H229       -8.1761  -17.1833  -54.5774 H         1 UNK         0.0600 
    230 H230       -4.5249  -16.6290  -55.6474 H         1 UNK         0.3000 
    231 H231       -3.7330  -16.2208  -57.6397 H         1 UNK         0.0600 
    232 H232       -6.1549  -17.6129  -58.8967 H         1 UNK         0.0600 
    233 H233       -5.0079  -16.5649  -59.7121 H         1 UNK         0.0600 
    234 H234       -6.0567  -15.9066  -58.4660 H         1 UNK         0.0600 
    235 H235       -5.0276  -19.5375  -57.6758 H         1 UNK         0.3000 
    236 H236       -2.4034  -20.6509  -58.5826 H         1 UNK         0.0600 
    237 H237       -4.3992  -21.5054  -59.8271 H         1 UNK         0.0600 
    238 H238       -3.6903  -22.7719  -58.8356 H         1 UNK         0.0600 
    239 H239       -5.1656  -21.9691  -58.3086 H         1 UNK         0.0600 
    240 H240       -1.1930  -21.7274  -57.0407 H         1 UNK         0.3000 
    241 H241       -2.3210  -22.0869  -54.3056 H         1 UNK         0.0600 
    242 H242       -1.5347  -24.0371  -56.7239 H         1 UNK         0.3800 
    243 H243       -0.6376  -25.2417  -55.8398 H         1 UNK         0.3800 
    244 H244       -0.2761  -21.2341  -53.2948 H         1 UNK         0.0800 
    245 H245        0.4743  -21.0083  -54.8510 H         1 UNK         0.0800 
    246 H246       -2.7119  -20.1627  -52.8376 H         1 UNK         0.0800 
    247 H247       -2.9960  -18.4839  -53.1912 H         1 UNK         0.0800 
@<TRIPOS>BOND
     1    1    2 1    
     2    1  127 1    
     3    1  128 1    
     4    1  129 1    
     5    2    3 2    
     6    2    4 am   BACKBONE|DICT|INTERRES
     7    4    5 1    
     8    4  130 1    
     9    5    6 1    
    10    5   65 1    
    11    5  131 1    
    12    6    7 1    
    13    6  132 1    
    14    6  133 1    
    15    7    8 1    
    16    8    9 1    
    17    8  134 1    
    18    8  135 1    
    19    9   10 ar   
    20    9   14 ar   
    21   10   11 ar   
    22   10  136 1    
    23   11   12 ar   
    24   11  126 1    
    25   12   13 ar   
    26   12  137 1    
    27   13   14 ar   
    28   13   15 1    
    29   14  138 1    
    30   15   16 1    
    31   15  139 1    
    32   15  140 1    
    33   16   17 1    
    34   17   18 1    
    35   17  141 1    
    36   17  142 1    
    37   18   19 1    
    38   18   67 1    
    39   18  143 1    
    40   19   20 am   BACKBONE|DICT|INTERRES
    41   19  144 1    
    42   20   21 2    
    43   20   22 1    
    44   22   23 1    
    45   22   24 1    
    46   22  145 1    
    47   23  146 1    
    48   23  147 1    
    49   23  148 1    
    50   24   25 am   BACKBONE|DICT|INTERRES
    51   24  149 1    
    52   25   26 2    
    53   25   27 1    
    54   27   28 1    
    55   27   29 1    
    56   27  150 1    
    57   28  151 1    
    58   28  152 1    
    59   28  153 1    
    60   29   30 am   BACKBONE|DICT|INTERRES
    61   29  154 1    
    62   30   31 2    
    63   30   32 1    
    64   32   33 1    
    65   32   34 1    
    66   32  155 1    
    67   33  156 1    
    68   33  157 1    
    69   33  158 1    
    70   34   35 am   BACKBONE|DICT|INTERRES
    71   34  159 1    
    72   35   36 2    
    73   35   37 1    
    74   37   38 1    
    75   37   39 1    
    76   37  160 1    
    77   38  161 1    
    78   38  162 1    
    79   38  163 1    
    80   39   40 am   BACKBONE|DICT|INTERRES
    81   39  164 1    
    82   40   41 2    
    83   40   42 1    
    84   42   43 1    
    85   42   44 1    
    86   42  165 1    
    87   43  166 1    
    88   43  167 1    
    89   43  168 1    
    90   44   45 am   BACKBONE|DICT|INTERRES
    91   44  169 1    
    92   45   46 2    
    93   45   47 1    
    94   47   48 1    
    95   47   49 1    
    96   47  170 1    
    97   48  171 1    
    98   48  172 1    
    99   48  173 1    
   100   49   50 am   BACKBONE|DICT|INTERRES
   101   49  174 1    
   102   50   51 2    
   103   50   52 1    
   104   52   53 1    
   105   52   54 1    
   106   52  175 1    
   107   53  176 1    
   108   53  177 1    
   109   53  178 1    
   110   54   55 am   BACKBONE|DICT|INTERRES
   111   54  179 1    
   112   55   56 2    
   113   55   57 1    
   114   57   58 1    
   115   57   59 1    
   116   57  180 1    
   117   58  181 1    
   118   58  182 1    
   119   58  183 1    
   120   59   60 am   BACKBONE|DICT|INTERRES
   121   59  184 1    
   122   60   61 2    
   123   60   62 1    
   124   62   63 1    
   125   62   64 1    
   126   62  185 1    
   127   63  186 1    
   128   63  187 1    
   129   63  188 1    
   130   64   65 am   BACKBONE|DICT|INTERRES
   131   64  189 1    
   132   65   66 2    
   133   67   68 2    
   134   67   69 am   BACKBONE|DICT|INTERRES
   135   69   70 1    
   136   69  190 1    
   137   70   71 1    
   138   70   72 1    
   139   70  191 1    
   140   71  192 1    
   141   71  193 1    
   142   71  194 1    
   143   72   73 2    
   144   72   74 am   BACKBONE|DICT|INTERRES
   145   74   75 1    
   146   74  195 1    
   147   75   76 1    
   148   75   77 1    
   149   75  196 1    
   150   76  197 1    
   151   76  198 1    
   152   76  199 1    
   153   77   78 2    
   154   77   79 am   BACKBONE|DICT|INTERRES
   155   79   80 1    
   156   79  200 1    
   157   80   81 1    
   158   80   82 1    
   159   80  201 1    
   160   81  202 1    
   161   81  203 1    
   162   81  204 1    
   163   82   83 2    
   164   82   84 am   BACKBONE|DICT|INTERRES
   165   84   85 1    
   166   84  205 1    
   167   85   86 1    
   168   85   87 1    
   169   85  206 1    
   170   86  207 1    
   171   86  208 1    
   172   86  209 1    
   173   87   88 2    
   174   87   89 am   BACKBONE|DICT|INTERRES
   175   89   90 1    
   176   89  210 1    
   177   90   91 1    
   178   90   92 1    
   179   90  211 1    
   180   91  212 1    
   181   91  213 1    
   182   91  214 1    
   183   92   93 2    
   184   92   94 am   BACKBONE|DICT|INTERRES
   185   94   95 1    
   186   94  215 1    
   187   95   96 1    
   188   95   97 1    
   189   95  216 1    
   190   96  217 1    
   191   96  218 1    
   192   96  219 1    
   193   97   98 2    
   194   97   99 am   BACKBONE|DICT|INTERRES
   195   99  100 1    
   196   99  220 1    
   197  100  101 1    
   198  100  102 1    
   199  100  221 1    
   200  101  222 1    
   201  101  223 1    
   202  101  224 1    
   203  102  103 2    
   204  102  104 am   BACKBONE|DICT|INTERRES
   205  104  105 1    
   206  104  225 1    
   207  105  106 1    
   208  105  107 1    
   209  105  226 1    
   210  106  227 1    
   211  106  228 1    
   212  106  229 1    
   213  107  108 2    
   214  107  109 am   BACKBONE|DICT|INTERRES
   215  109  110 1    
   216  109  230 1    
   217  110  111 1    
   218  110  112 1    
   219  110  231 1    
   220  111  232 1    
   221  111  233 1    
   222  111  234 1    
   223  112  113 2    
   224  112  114 am   BACKBONE|DICT|INTERRES
   225  114  115 1    
   226  114  235 1    
   227  115  116 1    
   228  115  117 1    
   229  115  236 1    
   230  116  237 1    
   231  116  238 1    
   232  116  239 1    
   233  117  118 2    
   234  117  119 am   BACKBONE|DICT|INTERRES
   235  119  120 1    
   236  119  240 1    
   237  120  121 1    
   238  120  124 1    
   239  120  241 1    
   240  121  122 am   BACKBONE|DICT|INTERRES
   241  121  123 2    
   242  122  242 1    
   243  122  243 1    
   244  124  125 1    
   245  124  244 1    
   246  124  245 1    
   247  125  126 1    
   248  126  246 1    
   249  126  247 1    
@<TRIPOS>SUBSTRUCTURE
     1 UNK         1 GROUP             0       ****    0 ROOT    
