@<TRIPOS>MOLECULE
3R540
247   249    1
SMALL
USER_CHARGES


@<TRIPOS>ATOM
      1 CA         -1.2367  -13.4089  -49.0064 C.3       0 UNK        -0.1800 
      2 C           0.1354  -12.7643  -48.8677 C.2       0 UNK         0.5000 
      3 O           0.4715  -11.8709  -49.6456 O.2       0 UNK        -0.5000 
      4 N           0.9295  -13.2133  -47.8870 N.am      1 UNK        -0.5000 
      5 CA          2.2545  -12.6679  -47.5679 C.3       1 UNK         0.1400 
      6 C6          3.0954  -13.5878  -46.6391 C.3       23 UNK        -0.0398 
      7 S7          2.9027  -15.3729  -46.9480 S.3       23 UNK        -0.2404 
      8 C8          4.0402  -15.6687  -48.3286 C.3       23 UNK        -0.0205 
      9 C9          3.7161  -17.0026  -48.9810 C.ar      23 UNK        -0.0193 
     10 C10         2.8746  -17.0496  -50.0959 C.ar      23 UNK        -0.1150 
     11 C11         2.5287  -18.2742  -50.6743 C.ar      23 UNK        -0.0193 
     12 C12         3.0477  -19.4565  -50.1399 C.ar      23 UNK        -0.1150 
     13 C13         3.8917  -19.4236  -49.0254 C.ar      23 UNK        -0.0193 
     14 C14         4.2241  -18.1927  -48.4512 C.ar      23 UNK        -0.1150 
     15 C15         4.4451  -20.7172  -48.4438 C.3       23 UNK        -0.0205 
     16 S16         3.3949  -21.3747  -47.1081 S.3       23 UNK        -0.2404 
     17 C17         1.8911  -21.8316  -48.0318 C.3       23 UNK        -0.0398 
     18 CA          1.0146  -22.8648  -47.2858 C.3       11 UNK         0.1400 
     19 N           0.3909  -22.3194  -46.0739 N.am      11 UNK        -0.5000 
     20 C          -0.3276  -23.0363  -45.1966 C.2       10 UNK         0.5000 
     21 O          -0.4842  -24.2548  -45.2777 O.2       10 UNK        -0.5000 
     22 CA         -1.0363  -22.2636  -44.0687 C.3       10 UNK         0.1400 
     23 CB         -0.0639  -21.9337  -42.9267 C.3       10 UNK        -0.1800 
     24 N          -1.6887  -21.0422  -44.5451 N.am      10 UNK        -0.5000 
     25 C          -2.7260  -21.0234  -45.3953 C.2       9 UNK         0.5000 
     26 O          -3.2719  -22.0395  -45.8222 O.2       9 UNK        -0.5000 
     27 CA         -3.2111  -19.6477  -45.8919 C.3       9 UNK         0.1400 
     28 CB         -4.1664  -18.9983  -44.8809 C.3       9 UNK        -0.1800 
     29 N          -2.1104  -18.7325  -46.1883 N.am      9 UNK        -0.5000 
     30 C          -1.1877  -18.9435  -47.1382 C.2       8 UNK         0.5000 
     31 O          -1.1998  -19.9059  -47.9051 O.2       8 UNK        -0.5000 
     32 CA         -0.0264  -17.9377  -47.1968 C.3       8 UNK         0.1400 
     33 CB         -0.4547  -16.6603  -47.9334 C.3       8 UNK        -0.1800 
     34 N           0.4782  -17.6017  -45.8630 N.am      8 UNK        -0.5000 
     35 C           1.0388  -18.4823  -45.0221 C.2       7 UNK         0.5000 
     36 O           1.2261  -19.6649  -45.2984 O.2       7 UNK        -0.5000 
     37 CA          1.3719  -17.9799  -43.6073 C.3       7 UNK         0.1400 
     38 CB          2.7246  -17.2543  -43.5730 C.3       7 UNK        -0.1800 
     39 N           0.3187  -17.1118  -43.0784 N.am      7 UNK        -0.5000 
     40 C          -0.8903  -17.5575  -42.7014 C.2       6 UNK         0.5000 
     41 O          -1.2108  -18.7453  -42.7267 O.2       6 UNK        -0.5000 
     42 CA         -1.9323  -16.5120  -42.2540 C.3       6 UNK         0.1400 
     43 CB         -1.8549  -16.2931  -40.7360 C.3       6 UNK        -0.1800 
     44 N          -1.7911  -15.2238  -42.9320 N.am      6 UNK        -0.5000 
     45 C          -1.9174  -15.0353  -44.2525 C.2       5 UNK         0.5000 
     46 O          -2.2653  -15.9227  -45.0322 O.2       5 UNK        -0.5000 
     47 CA         -1.5369  -13.6438  -44.8038 C.3       5 UNK         0.1400 
     48 CB         -2.7931  -12.8143  -45.1031 C.3       5 UNK        -0.1800 
     49 N          -0.6328  -12.8626  -43.9479 N.am      5 UNK        -0.5000 
     50 C           0.5941  -13.2491  -43.5696 C.2       4 UNK         0.5000 
     51 O           1.0717  -14.3441  -43.8667 O.2       4 UNK        -0.5000 
     52 CA          1.4013  -12.2583  -42.7151 C.3       4 UNK         0.1400 
     53 CB          2.8829  -12.6572  -42.5552 C.3       4 UNK        -0.1800 
     54 N           1.3013  -10.9034  -43.2569 N.am      4 UNK        -0.5000 
     55 C           1.4392   -9.7837  -42.5330 C.2       3 UNK         0.5000 
     56 O           1.5875   -9.7877  -41.3093 O.2       3 UNK        -0.5000 
     57 CA          1.3976   -8.4368  -43.2922 C.3       3 UNK         0.1400 
     58 CB          2.1644   -7.3144  -42.5610 C.3       3 UNK        -0.1800 
     59 N           1.8264   -8.5289  -44.6930 N.am      3 UNK        -0.5000 
     60 C           3.0265   -8.9048  -45.1596 C.2       2 UNK         0.5000 
     61 O           3.9897   -9.2057  -44.4520 O.2       2 UNK        -0.5000 
     62 CA          3.1435   -9.0055  -46.6943 C.3       2 UNK         0.1400 
     63 CB          4.4368   -8.3467  -47.2025 C.3       2 UNK        -0.1800 
     64 N           3.0915  -10.3889  -47.1771 N.am      2 UNK        -0.5000 
     65 C           2.1095  -11.2681  -46.9341 C.2       1 UNK         0.5000 
     66 O           1.1286  -11.0252  -46.2237 O.2       1 UNK        -0.5000 
     67 C          -0.0354  -23.4604  -48.2448 C.2       11 UNK         0.5000 
     68 O           0.1615  -24.5696  -48.7415 O.2       11 UNK        -0.5000 
     69 N          -1.1446  -22.7376  -48.4556 N.am      12 UNK        -0.5000 
     70 CA         -2.2793  -23.1846  -49.2602 C.3       12 UNK         0.1400 
     71 CB         -3.2943  -22.0464  -49.4042 C.3       12 UNK        -0.1800 
     72 C          -2.9488  -24.4437  -48.6861 C.2       12 UNK         0.5000 
     73 O          -3.1917  -25.3876  -49.4353 O.2       12 UNK        -0.5000 
     74 N          -3.1844  -24.4621  -47.3666 N.am      13 UNK        -0.5000 
     75 CA         -3.7386  -25.6040  -46.6384 C.3       13 UNK         0.1400 
     76 CB         -4.0084  -25.2097  -45.1789 C.3       13 UNK        -0.1800 
     77 C          -2.8429  -26.8539  -46.7131 C.2       13 UNK         0.5000 
     78 O          -3.3575  -27.9499  -46.9357 O.2       13 UNK        -0.5000 
     79 N          -1.5220  -26.6653  -46.5789 N.am      14 UNK        -0.5000 
     80 CA         -0.5116  -27.7160  -46.7274 C.3       14 UNK         0.1400 
     81 CB          0.8574  -27.1763  -46.2868 C.3       14 UNK        -0.1800 
     82 C          -0.4405  -28.2859  -48.1580 C.2       14 UNK         0.5000 
     83 O          -0.2505  -29.4913  -48.3235 O.2       14 UNK        -0.5000 
     84 N          -0.6266  -27.4183  -49.1615 N.am      15 UNK        -0.5000 
     85 CA         -0.7060  -27.7759  -50.5797 C.3       15 UNK         0.1400 
     86 CB         -0.4163  -26.5204  -51.4190 C.3       15 UNK        -0.1800 
     87 C          -2.0609  -28.3933  -50.9891 C.2       15 UNK         0.5000 
     88 O          -2.1659  -28.9107  -52.1019 O.2       15 UNK        -0.5000 
     89 N          -3.0673  -28.3106  -50.1049 N.am      16 UNK        -0.5000 
     90 CA         -4.4746  -28.6734  -50.3069 C.3       16 UNK         0.1400 
     91 CB         -4.6332  -30.1934  -50.5190 C.3       16 UNK        -0.1800 
     92 C          -5.1462  -27.8242  -51.4092 C.2       16 UNK         0.5000 
     93 O          -5.9208  -28.3435  -52.2155 O.2       16 UNK        -0.5000 
     94 N          -4.8188  -26.5286  -51.4214 N.am      17 UNK        -0.5000 
     95 CA         -5.2910  -25.5195  -52.3621 C.3       17 UNK         0.1400 
     96 CB         -4.0586  -24.9169  -53.0567 C.3       17 UNK        -0.1800 
     97 C          -6.0812  -24.4273  -51.6201 C.2       17 UNK         0.5000 
     98 O          -6.0826  -24.3818  -50.3872 O.2       17 UNK        -0.5000 
     99 N          -6.7381  -23.5517  -52.3900 N.am      18 UNK        -0.5000 
    100 CA        -7.4376  -22.3741  -51.8789 C.3       18 UNK         0.1400 
    101 CB        -8.3811  -21.8380  -52.9667 C.3       18 UNK        -0.1800 
    102 C         -6.4396  -21.2818  -51.4605 C.2       18 UNK         0.5000 
    103 O         -5.4581  -21.0497  -52.1724 O.2       18 UNK        -0.5000 
    104 N         -6.7282  -20.5967  -50.3462 N.am      19 UNK        -0.5000 
    105 CA        -5.9199  -19.4917  -49.8195 C.3       19 UNK         0.1400 
    106 CB        -6.3942  -19.1364  -48.4026 C.3       19 UNK        -0.1800 
    107 C         -5.9239  -18.2507  -50.7306 C.2       19 UNK         0.5000 
    108 O         -4.9193  -17.5438  -50.7916 O.2       19 UNK        -0.5000 
    109 N         -7.0272  -18.0413  -51.4635 N.am      20 UNK        -0.5000 
    110 CA        -7.1730  -16.9895  -52.4736 C.3       20 UNK         0.1400 
    111 CB        -8.6487  -16.8971  -52.8906 C.3       20 UNK        -0.1800 
    112 C         -6.2764  -17.2106  -53.7087 C.2       20 UNK         0.5000 
    113 O         -5.8458  -16.2377  -54.3284 O.2       20 UNK        -0.5000 
    114 N         -5.9984  -18.4818  -54.0291 N.am      21 UNK        -0.5000 
    115 CA        -5.0765  -18.8965  -55.0884 C.3       21 UNK         0.1400 
    116 CB        -5.5661  -20.2360  -55.6631 C.3       21 UNK        -0.1800 
    117 C         -3.6254  -19.0300  -54.5833 C.2       21 UNK         0.5000 
    118 O         -2.7145  -19.1716  -55.4000 O.2       21 UNK        -0.5000 
    119 N         -3.4392  -19.0007  -53.2567 N.am      22 UNK        -0.5000 
    120 CA        -2.1874  -19.2893  -52.5434 C.3       22 UNK         0.1400 
    121 C         -1.7406  -20.7792  -52.6624 C.2       22 UNK         0.5000 
    122 N         -2.6733  -21.7177  -52.7764 N.am      22 UNK        -0.7600 
    123 O         -0.5552  -21.0981  -52.6511 O.2       22 UNK        -0.5000 
    124 C124       -1.0690  -18.2533  -52.8557 C.3       23 UNK        -0.0398 
    125 S125       -0.0995  -17.8409  -51.3689 S.3       23 UNK        -0.2404 
    126 C126        1.5821  -18.3199  -51.8641 C.3       23 UNK        -0.0205 
    127 H127       -1.9686  -12.6731  -49.3397 H         1 UNK         0.0600 
    128 H128       -1.5869  -13.8183  -48.0602 H         1 UNK         0.0600 
    129 H129       -1.2019  -14.2133  -49.7413 H         1 UNK         0.0600 
    130 H130        0.6182  -13.9572  -47.2822 H         1 UNK         0.3000 
    131 H131        2.7955  -12.5635  -48.5108 H         1 UNK         0.0600 
    132 H132        4.1531  -13.3275  -46.7025 H         1 UNK         0.0800 
    133 H133        2.8182  -13.4369  -45.5968 H         1 UNK         0.0800 
    134 H134        5.0694  -15.6601  -47.9669 H         1 UNK         0.0800 
    135 H135        3.9544  -14.8621  -49.0582 H         1 UNK         0.0800 
    136 H136        2.4641  -16.1343  -50.4991 H         1 UNK         0.1150 
    137 H137        2.7837  -20.4054  -50.5848 H         1 UNK         0.1150 
    138 H138        4.8641  -18.1614  -47.5806 H         1 UNK         0.1150 
    139 H139        4.5592  -21.4692  -49.2260 H         1 UNK         0.0800 
    140 H140        5.4461  -20.5411  -48.0471 H         1 UNK         0.0800 
    141 H141        2.2061  -22.2331  -48.9968 H         1 UNK         0.0800 
    142 H142        1.3220  -20.9253  -48.2450 H         1 UNK         0.0800 
    143 H143        1.6584  -23.6896  -46.9727 H         1 UNK         0.0600 
    144 H144        0.5312  -21.3267  -45.9003 H         1 UNK         0.3000 
    145 H145       -1.8140  -22.9142  -43.6636 H         1 UNK         0.0600 
    146 H146       -0.5788  -21.4446  -42.0997 H         1 UNK         0.0600 
    147 H147        0.3950  -22.8414  -42.5331 H         1 UNK         0.0600 
    148 H148        0.7410  -21.2770  -43.2548 H         1 UNK         0.0600 
    149 H149       -1.3243  -20.1637  -44.1928 H         1 UNK         0.3000 
    150 H150       -3.7622  -19.8082  -46.8206 H         1 UNK         0.0600 
    151 H151       -5.0280  -19.6401  -44.6929 H         1 UNK         0.0600 
    152 H152       -4.5443  -18.0450  -45.2511 H         1 UNK         0.0600 
    153 H153       -3.6780  -18.8163  -43.9238 H         1 UNK         0.0600 
    154 H154       -2.0477  -17.8883  -45.6289 H         1 UNK         0.3000 
    155 H155        0.7846  -18.4021  -47.7628 H         1 UNK         0.0600 
    156 H156       -1.0630  -16.0136  -47.3051 H         1 UNK         0.0600 
    157 H157        0.4108  -16.0937  -48.2724 H         1 UNK         0.0600 
    158 H158       -1.0483  -16.8925  -48.8173 H         1 UNK         0.0600 
    159 H159        0.3500  -16.6521  -45.5473 H         1 UNK         0.3000 
    160 H160        1.4510  -18.8534  -42.9566 H         1 UNK         0.0600 
    161 H161        2.7187  -16.3545  -44.1862 H         1 UNK         0.0600 
    162 H162        3.5210  -17.8987  -43.9476 H         1 UNK         0.0600 
    163 H163        2.9899  -16.9629  -42.5568 H         1 UNK         0.0600 
    164 H164        0.5035  -16.1141  -43.0974 H         1 UNK         0.3000 
    165 H165       -2.9213  -16.9079  -42.4928 H         1 UNK         0.0600 
    166 H166       -2.6394  -15.6178  -40.3937 H         1 UNK         0.0600 
    167 H167       -1.9812  -17.2344  -40.1993 H         1 UNK         0.0600 
    168 H168       -0.8939  -15.8717  -40.4384 H         1 UNK         0.0600 
    169 H169       -1.5029  -14.4406  -42.3652 H         1 UNK         0.3000 
    170 H170       -1.0132  -13.8149  -45.7446 H         1 UNK         0.0600 
    171 H171       -3.4724  -13.3565  -45.7625 H         1 UNK         0.0600 
    172 H172       -3.3415  -12.5726  -44.1919 H         1 UNK         0.0600 
    173 H173       -2.5373  -11.8791  -45.6019 H         1 UNK         0.0600 
    174 H174       -0.9578  -11.9497  -43.6637 H         1 UNK         0.3000 
    175 H175        0.9380  -12.2818  -41.7267 H         1 UNK         0.0600 
    176 H176        3.4202  -12.5948  -43.5011 H         1 UNK         0.0600 
    177 H177        3.3915  -12.0060  -41.8443 H         1 UNK         0.0600 
    178 H178        2.9829  -13.6773  -42.1820 H         1 UNK         0.0600 
    179 H179        1.1738  -10.8333  -44.2640 H         1 UNK         0.3000 
    180 H180        0.3463   -8.1473  -43.3196 H         1 UNK         0.0600 
    181 H181        3.2174   -7.5638  -42.4273 H         1 UNK         0.0600 
    182 H182        1.7443   -7.1320  -41.5713 H         1 UNK         0.0600 
    183 H183        2.1093   -6.3753  -43.1116 H         1 UNK         0.0600 
    184 H184        1.0957   -8.3621  -45.3713 H         1 UNK         0.3000 
    185 H185        2.3030   -8.4705  -47.1413 H         1 UNK         0.0600 
    186 H186        4.5096   -7.3142  -46.8583 H         1 UNK         0.0600 
    187 H187        5.3245   -8.8734  -46.8499 H         1 UNK         0.0600 
    188 H188        4.4688   -8.3275  -48.2921 H         1 UNK         0.0600 
    189 H189        3.8712  -10.6792  -47.7490 H         1 UNK         0.3000 
    190 H190       -1.2124  -21.8066  -48.0521 H         1 UNK         0.3000 
    191 H191       -1.9022  -23.4286  -50.2554 H         1 UNK         0.0600 
    192 H192       -3.7306  -21.7634  -48.4470 H         1 UNK         0.0600 
    193 H193       -4.1099  -22.3466  -50.0606 H         1 UNK         0.0600 
    194 H194       -2.8329  -21.1598  -49.8376 H         1 UNK         0.0600 
    195 H195       -2.9976  -23.6235  -46.8224 H         1 UNK         0.3000 
    196 H196       -4.6943  -25.8549  -47.1033 H         1 UNK         0.0600 
    197 H197       -4.4396  -26.0425  -44.6221 H         1 UNK         0.0600 
    198 H198       -4.7124  -24.3795  -45.1194 H         1 UNK         0.0600 
    199 H199       -3.0942  -24.9096  -44.6666 H         1 UNK         0.0600 
    200 H200       -1.1815  -25.7353  -46.3495 H         1 UNK         0.3000 
    201 H201       -0.7835  -28.5355  -46.0590 H         1 UNK         0.0600 
    202 H202        0.8338  -26.8430  -45.2491 H         1 UNK         0.0600 
    203 H203        1.1748  -26.3330  -46.9006 H         1 UNK         0.0600 
    204 H204        1.6251  -27.9471  -46.3641 H         1 UNK         0.0600 
    205 H205       -0.7155  -26.4316  -48.9406 H         1 UNK         0.3000 
    206 H206        0.0681  -28.5149  -50.7959 H         1 UNK         0.0600 
    207 H207        0.5618  -26.1027  -51.1798 H         1 UNK         0.0600 
    208 H208       -0.4194  -26.7503  -52.4852 H         1 UNK         0.0600 
    209 H209       -1.1618  -25.7431  -51.2496 H         1 UNK         0.0600 
    210 H210       -2.8699  -27.8392  -49.2317 H         1 UNK         0.3000 
    211 H211       -4.9857  -28.4182  -49.3774 H         1 UNK         0.0600 
    212 H212       -4.2018  -30.5205  -51.4653 H         1 UNK         0.0600 
    213 H213       -5.6860  -30.4777  -50.5255 H         1 UNK         0.0600 
    214 H214       -4.1513  -30.7544  -49.7182 H         1 UNK         0.0600 
    215 H215       -4.2262  -26.1693  -50.6729 H         1 UNK         0.3000 
    216 H216       -5.9462  -25.9644  -53.1135 H         1 UNK         0.0600 
    217 H217       -4.3393  -24.1449  -53.7742 H         1 UNK         0.0600 
    218 H218       -3.5048  -25.6810  -53.6026 H         1 UNK         0.0600 
    219 H219       -3.3776  -24.4689  -52.3324 H         1 UNK         0.0600 
    220 H220       -6.6662  -23.6285  -53.3938 H         1 UNK         0.3000 
    221 H221       -8.0350  -22.6670  -51.0128 H         1 UNK         0.0600 
    222 H222       -7.8372  -21.5386  -53.8635 H         1 UNK         0.0600 
    223 H223       -9.1146  -22.5905  -53.2567 H         1 UNK         0.0600 
    224 H224       -8.9343  -20.9673  -52.6123 H         1 UNK         0.0600 
    225 H225       -7.5508  -20.8451  -49.8153 H         1 UNK         0.3000 
    226 H226       -4.8855  -19.8296  -49.7514 H         1 UNK         0.0600 
    227 H227       -6.3065  -19.9916  -47.7321 H         1 UNK         0.0600 
    228 H228       -5.7913  -18.3315  -47.9794 H         1 UNK         0.0600 
    229 H229       -7.4339  -18.8073  -48.3957 H         1 UNK         0.0600 
    230 H230       -7.8103  -18.6660  -51.3414 H         1 UNK         0.3000 
    231 H231       -6.8839  -16.0391  -52.0200 H         1 UNK         0.0600 
    232 H232       -8.7974  -16.1059  -53.6267 H         1 UNK         0.0600 
    233 H233       -9.2866  -16.6683  -52.0366 H         1 UNK         0.0600 
    234 H234       -9.0015  -17.8289  -53.3344 H         1 UNK         0.0600 
    235 H235       -6.3718  -19.2211  -53.4514 H         1 UNK         0.3000 
    236 H236       -5.0826  -18.1574  -55.8922 H         1 UNK         0.0600 
    237 H237       -6.5877  -20.1572  -56.0350 H         1 UNK         0.0600 
    238 H238       -4.9407  -20.5541  -56.4982 H         1 UNK         0.0600 
    239 H239       -5.5399  -21.0298  -54.9158 H         1 UNK         0.0600 
    240 H240       -4.2519  -18.8810  -52.6700 H         1 UNK         0.3000 
    241 H241       -2.4609  -19.1755  -51.4937 H         1 UNK         0.0600 
    242 H242       -3.6587  -21.4748  -52.7271 H         1 UNK         0.3800 
    243 H243       -2.3889  -22.6756  -52.8833 H         1 UNK         0.3800 
    244 H244       -0.4229  -18.5911  -53.6677 H         1 UNK         0.0800 
    245 H245       -1.5080  -17.3166  -53.2015 H         1 UNK         0.0800 
    246 H246        1.5605  -19.3208  -52.2979 H         1 UNK         0.0800 
    247 H247        1.9390  -17.6462  -52.6442 H         1 UNK         0.0800 
@<TRIPOS>BOND
     1    1    2 1    
     2    1  127 1    
     3    1  128 1    
     4    1  129 1    
     5    2    3 2    
     6    2    4 am   BACKBONE|DICT|INTERRES
     7    4    5 1    
     8    4  130 1    
     9    5    6 1    
    10    5   65 1    
    11    5  131 1    
    12    6    7 1    
    13    6  132 1    
    14    6  133 1    
    15    7    8 1    
    16    8    9 1    
    17    8  134 1    
    18    8  135 1    
    19    9   10 ar   
    20    9   14 ar   
    21   10   11 ar   
    22   10  136 1    
    23   11   12 ar   
    24   11  126 1    
    25   12   13 ar   
    26   12  137 1    
    27   13   14 ar   
    28   13   15 1    
    29   14  138 1    
    30   15   16 1    
    31   15  139 1    
    32   15  140 1    
    33   16   17 1    
    34   17   18 1    
    35   17  141 1    
    36   17  142 1    
    37   18   19 1    
    38   18   67 1    
    39   18  143 1    
    40   19   20 am   BACKBONE|DICT|INTERRES
    41   19  144 1    
    42   20   21 2    
    43   20   22 1    
    44   22   23 1    
    45   22   24 1    
    46   22  145 1    
    47   23  146 1    
    48   23  147 1    
    49   23  148 1    
    50   24   25 am   BACKBONE|DICT|INTERRES
    51   24  149 1    
    52   25   26 2    
    53   25   27 1    
    54   27   28 1    
    55   27   29 1    
    56   27  150 1    
    57   28  151 1    
    58   28  152 1    
    59   28  153 1    
    60   29   30 am   BACKBONE|DICT|INTERRES
    61   29  154 1    
    62   30   31 2    
    63   30   32 1    
    64   32   33 1    
    65   32   34 1    
    66   32  155 1    
    67   33  156 1    
    68   33  157 1    
    69   33  158 1    
    70   34   35 am   BACKBONE|DICT|INTERRES
    71   34  159 1    
    72   35   36 2    
    73   35   37 1    
    74   37   38 1    
    75   37   39 1    
    76   37  160 1    
    77   38  161 1    
    78   38  162 1    
    79   38  163 1    
    80   39   40 am   BACKBONE|DICT|INTERRES
    81   39  164 1    
    82   40   41 2    
    83   40   42 1    
    84   42   43 1    
    85   42   44 1    
    86   42  165 1    
    87   43  166 1    
    88   43  167 1    
    89   43  168 1    
    90   44   45 am   BACKBONE|DICT|INTERRES
    91   44  169 1    
    92   45   46 2    
    93   45   47 1    
    94   47   48 1    
    95   47   49 1    
    96   47  170 1    
    97   48  171 1    
    98   48  172 1    
    99   48  173 1    
   100   49   50 am   BACKBONE|DICT|INTERRES
   101   49  174 1    
   102   50   51 2    
   103   50   52 1    
   104   52   53 1    
   105   52   54 1    
   106   52  175 1    
   107   53  176 1    
   108   53  177 1    
   109   53  178 1    
   110   54   55 am   BACKBONE|DICT|INTERRES
   111   54  179 1    
   112   55   56 2    
   113   55   57 1    
   114   57   58 1    
   115   57   59 1    
   116   57  180 1    
   117   58  181 1    
   118   58  182 1    
   119   58  183 1    
   120   59   60 am   BACKBONE|DICT|INTERRES
   121   59  184 1    
   122   60   61 2    
   123   60   62 1    
   124   62   63 1    
   125   62   64 1    
   126   62  185 1    
   127   63  186 1    
   128   63  187 1    
   129   63  188 1    
   130   64   65 am   BACKBONE|DICT|INTERRES
   131   64  189 1    
   132   65   66 2    
   133   67   68 2    
   134   67   69 am   BACKBONE|DICT|INTERRES
   135   69   70 1    
   136   69  190 1    
   137   70   71 1    
   138   70   72 1    
   139   70  191 1    
   140   71  192 1    
   141   71  193 1    
   142   71  194 1    
   143   72   73 2    
   144   72   74 am   BACKBONE|DICT|INTERRES
   145   74   75 1    
   146   74  195 1    
   147   75   76 1    
   148   75   77 1    
   149   75  196 1    
   150   76  197 1    
   151   76  198 1    
   152   76  199 1    
   153   77   78 2    
   154   77   79 am   BACKBONE|DICT|INTERRES
   155   79   80 1    
   156   79  200 1    
   157   80   81 1    
   158   80   82 1    
   159   80  201 1    
   160   81  202 1    
   161   81  203 1    
   162   81  204 1    
   163   82   83 2    
   164   82   84 am   BACKBONE|DICT|INTERRES
   165   84   85 1    
   166   84  205 1    
   167   85   86 1    
   168   85   87 1    
   169   85  206 1    
   170   86  207 1    
   171   86  208 1    
   172   86  209 1    
   173   87   88 2    
   174   87   89 am   BACKBONE|DICT|INTERRES
   175   89   90 1    
   176   89  210 1    
   177   90   91 1    
   178   90   92 1    
   179   90  211 1    
   180   91  212 1    
   181   91  213 1    
   182   91  214 1    
   183   92   93 2    
   184   92   94 am   BACKBONE|DICT|INTERRES
   185   94   95 1    
   186   94  215 1    
   187   95   96 1    
   188   95   97 1    
   189   95  216 1    
   190   96  217 1    
   191   96  218 1    
   192   96  219 1    
   193   97   98 2    
   194   97   99 am   BACKBONE|DICT|INTERRES
   195   99  100 1    
   196   99  220 1    
   197  100  101 1    
   198  100  102 1    
   199  100  221 1    
   200  101  222 1    
   201  101  223 1    
   202  101  224 1    
   203  102  103 2    
   204  102  104 am   BACKBONE|DICT|INTERRES
   205  104  105 1    
   206  104  225 1    
   207  105  106 1    
   208  105  107 1    
   209  105  226 1    
   210  106  227 1    
   211  106  228 1    
   212  106  229 1    
   213  107  108 2    
   214  107  109 am   BACKBONE|DICT|INTERRES
   215  109  110 1    
   216  109  230 1    
   217  110  111 1    
   218  110  112 1    
   219  110  231 1    
   220  111  232 1    
   221  111  233 1    
   222  111  234 1    
   223  112  113 2    
   224  112  114 am   BACKBONE|DICT|INTERRES
   225  114  115 1    
   226  114  235 1    
   227  115  116 1    
   228  115  117 1    
   229  115  236 1    
   230  116  237 1    
   231  116  238 1    
   232  116  239 1    
   233  117  118 2    
   234  117  119 am   BACKBONE|DICT|INTERRES
   235  119  120 1    
   236  119  240 1    
   237  120  121 1    
   238  120  124 1    
   239  120  241 1    
   240  121  122 am   BACKBONE|DICT|INTERRES
   241  121  123 2    
   242  122  242 1    
   243  122  243 1    
   244  124  125 1    
   245  124  244 1    
   246  124  245 1    
   247  125  126 1    
   248  126  246 1    
   249  126  247 1    
@<TRIPOS>SUBSTRUCTURE
     1 UNK         1 GROUP             0       ****    0 ROOT    
