@<TRIPOS>MOLECULE
3R540
247   249    1
SMALL
USER_CHARGES


@<TRIPOS>ATOM
      1 CA          0.6264  -10.0422  -49.2183 C.3       0 UNK        -0.1800 
      2 C          -0.1042  -11.3762  -49.1582 C.2       0 UNK         0.5000 
      3 O          -0.2279  -12.0546  -50.1776 O.2       0 UNK        -0.5000 
      4 N          -0.5792  -11.7555  -47.9682 N.am      1 UNK        -0.5000 
      5 CA         -1.2434  -13.0293  -47.6947 C.3       1 UNK         0.1400 
      6 C6         -2.6853  -13.0944  -48.2701 C.3       23 UNK        -0.0398 
      7 S7         -3.6019  -14.6281  -47.8853 S.3       23 UNK        -0.2404 
      8 C8         -3.6482  -15.4693  -49.4985 C.3       23 UNK        -0.0205 
      9 C9         -4.6113  -16.6457  -49.4563 C.ar      23 UNK        -0.0193 
     10 C10        -5.8834  -16.5393  -50.0276 C.ar      23 UNK        -0.1150 
     11 C11        -6.7894  -17.6007  -49.9445 C.ar      23 UNK        -0.0193 
     12 C12        -6.4174  -18.7712  -49.2779 C.ar      23 UNK        -0.1150 
     13 C13        -5.1506  -18.8898  -48.7027 C.ar      23 UNK        -0.0193 
     14 C14        -4.2467  -17.8297  -48.8090 C.ar      23 UNK        -0.1150 
     15 C15        -4.7864  -20.1446  -47.9274 C.3       23 UNK        -0.0205 
     16 S16        -5.2576  -19.9571  -46.1798 S.3       23 UNK        -0.2404 
     17 C17        -5.2462  -21.6596  -45.5193 C.3       23 UNK        -0.0398 
     18 CA         -4.0634  -22.5525  -45.9626 C.3       11 UNK         0.1400 
     19 N          -2.7550  -21.9740  -45.6307 N.am      11 UNK        -0.5000 
     20 C          -1.5689  -22.5313  -45.9144 C.2       10 UNK         0.5000 
     21 O          -1.4552  -23.5103  -46.6533 O.2       10 UNK        -0.5000 
     22 CA         -0.3069  -21.9705  -45.2270 C.3       10 UNK         0.1400 
     23 CB          0.7136  -21.4972  -46.2680 C.3       10 UNK        -0.1800 
     24 N          -0.5555  -20.8970  -44.2629 N.am      10 UNK        -0.5000 
     25 C          -1.1827  -21.0294  -43.0851 C.2       9 UNK         0.5000 
     26 O          -1.6552  -22.0924  -42.6797 O.2       9 UNK        -0.5000 
     27 CA         -1.3557  -19.7456  -42.2550 C.3       9 UNK         0.1400 
     28 CB         -0.1027  -19.4621  -41.4122 C.3       9 UNK        -0.1800 
     29 N          -1.6379  -18.6002  -43.1227 N.am      9 UNK        -0.5000 
     30 C          -2.8600  -18.2949  -43.5833 C.2       8 UNK         0.5000 
     31 O          -3.8841  -18.8663  -43.2095 O.2       8 UNK        -0.5000 
     32 CA         -2.9621  -17.1761  -44.6420 C.3       8 UNK         0.1400 
     33 CB         -3.2845  -15.8337  -43.9702 C.3       8 UNK        -0.1800 
     34 N          -1.7532  -17.0238  -45.4530 N.am      8 UNK        -0.5000 
     35 C          -1.2747  -17.9454  -46.3005 C.2       7 UNK         0.5000 
     36 O          -1.8182  -19.0246  -46.5237 O.2       7 UNK        -0.5000 
     37 CA          0.0750  -17.6320  -46.9681 C.3       7 UNK         0.1400 
     38 CB         -0.1336  -16.8797  -48.2873 C.3       7 UNK        -0.1800 
     39 N           0.9762  -16.8761  -46.0967 N.am      7 UNK        -0.5000 
     40 C           1.4777  -17.3341  -44.9425 C.2       6 UNK         0.5000 
     41 O           1.1680  -18.4322  -44.4762 O.2       6 UNK        -0.5000 
     42 CA          2.4445  -16.4321  -44.1447 C.3       6 UNK         0.1400 
     43 CB          3.7464  -17.1807  -43.7983 C.3       6 UNK        -0.1800 
     44 N           2.7537  -15.1198  -44.7288 N.am      6 UNK        -0.5000 
     45 C           3.3757  -14.8394  -45.8855 C.2       5 UNK         0.5000 
     46 O           3.6984  -15.6855  -46.7188 O.2       5 UNK        -0.5000 
     47 CA          3.7044  -13.3569  -46.1560 C.3       5 UNK         0.1400 
     48 CB          2.5975  -12.6996  -46.9898 C.3       5 UNK        -0.1800 
     49 N           3.9030  -12.5839  -44.9282 N.am      5 UNK        -0.5000 
     50 C           4.9533  -12.7336  -44.1079 C.2       4 UNK         0.5000 
     51 O           5.9090  -13.4698  -44.3564 O.2       4 UNK        -0.5000 
     52 CA          4.9421  -11.9470  -42.7816 C.3       4 UNK         0.1400 
     53 CB          5.8669  -10.7235  -42.8774 C.3       4 UNK        -0.1800 
     54 N           3.6202  -11.5019  -42.3293 N.am      4 UNK        -0.5000 
     55 C           2.5795  -12.2899  -42.0254 C.2       3 UNK         0.5000 
     56 O           2.5827  -13.5133  -42.1743 O.2       3 UNK        -0.5000 
     57 CA          1.3170  -11.6083  -41.4565 C.3       3 UNK         0.1400 
     58 CB          1.4076  -10.0672  -41.3631 C.3       3 UNK        -0.1800 
     59 N           0.1044  -12.0060  -42.1766 N.am      3 UNK        -0.5000 
     60 C          -0.1537  -11.8271  -43.4791 C.2       2 UNK         0.5000 
     61 O           0.6331  -11.3078  -44.2768 O.2       2 UNK        -0.5000 
     62 CA         -1.5530  -12.2745  -43.9443 C.3       2 UNK         0.1400 
     63 CB         -2.6371  -11.3283  -43.4022 C.3       2 UNK        -0.1800 
     64 N          -1.6583  -12.3051  -45.4007 N.am      2 UNK        -0.5000 
     65 C          -1.1676  -13.2777  -46.1787 C.2       1 UNK         0.5000 
     66 O          -0.6349  -14.3018  -45.7469 O.2       1 UNK        -0.5000 
     67 C          -4.2279  -23.9777  -45.3875 C.2       11 UNK         0.5000 
     68 O          -4.8037  -24.8358  -46.0568 O.2       11 UNK        -0.5000 
     69 N          -3.6497  -24.2220  -44.2005 N.am      12 UNK        -0.5000 
     70 CA         -3.5705  -25.5351  -43.5548 C.3       12 UNK         0.1400 
     71 CB         -3.1095  -25.3409  -42.1024 C.3       12 UNK        -0.1800 
     72 C          -2.6440  -26.5331  -44.2836 C.2       12 UNK         0.5000 
     73 O          -2.7691  -27.7382  -44.0665 O.2       12 UNK        -0.5000 
     74 N          -1.7520  -26.0254  -45.1445 N.am      13 UNK        -0.5000 
     75 CA         -0.8372  -26.7882  -45.9926 C.3       13 UNK         0.1400 
     76 CB          0.5751  -26.1867  -45.8656 C.3       13 UNK        -0.1800 
     77 C          -1.3396  -26.8010  -47.4507 C.2       13 UNK         0.5000 
     78 O          -0.5344  -26.7258  -48.3801 O.2       13 UNK        -0.5000 
     79 N          -2.6686  -26.8741  -47.6253 N.am      14 UNK        -0.5000 
     80 CA         -3.3949  -26.9185  -48.8990 C.3       14 UNK         0.1400 
     81 CB         -3.1247  -28.2509  -49.6295 C.3       14 UNK        -0.1800 
     82 C          -3.1204  -25.6840  -49.7807 C.2       14 UNK         0.5000 
     83 O          -2.8122  -25.8241  -50.9651 O.2       14 UNK        -0.5000 
     84 N          -3.2050  -24.4951  -49.1656 N.am      15 UNK        -0.5000 
     85 CA         -2.9369  -23.1818  -49.7657 C.3       15 UNK         0.1400 
     86 CB         -3.9975  -22.8520  -50.8397 C.3       15 UNK        -0.1800 
     87 C          -1.4855  -23.0703  -50.2712 C.2       15 UNK         0.5000 
     88 O          -1.2541  -22.6707  -51.4128 O.2       15 UNK        -0.5000 
     89 N          -0.5397  -23.4697  -49.4077 N.am      16 UNK        -0.5000 
     90 CA          0.9009  -23.5807  -49.6631 C.3       16 UNK         0.1400 
     91 CB          1.5195  -22.1804  -49.8736 C.3       16 UNK        -0.1800 
     92 C           1.2128  -24.5461  -50.8270 C.2       16 UNK         0.5000 
     93 O           2.0198  -24.2192  -51.6960 O.2       16 UNK        -0.5000 
     94 N           0.5229  -25.6961  -50.8533 N.am      17 UNK        -0.5000 
     95 CA          0.4806  -26.6700  -51.9517 C.3       17 UNK         0.1400 
     96 CB          1.8243  -27.4181  -52.0722 C.3       17 UNK        -0.1800 
     97 C           0.0157  -26.0275  -53.2794 C.2       17 UNK         0.5000 
     98 O           0.6379  -26.2236  -54.3250 O.2       17 UNK        -0.5000 
     99 N          -1.0652  -25.2415  -53.1835 N.am      18 UNK        -0.5000 
    100 CA        -1.7066  -24.4364  -54.2268 C.3       18 UNK         0.1400 
    101 CB        -2.2994  -25.3419  -55.3263 C.3       18 UNK        -0.1800 
    102 C         -0.8346  -23.2941  -54.7988 C.2       18 UNK         0.5000 
    103 O         -1.1295  -22.8044  -55.8906 O.2       18 UNK        -0.5000 
    104 N          0.2061  -22.8694  -54.0674 N.am      19 UNK        -0.5000 
    105 CA         1.0618  -21.7399  -54.4393 C.3       19 UNK         0.1400 
    106 CB         2.4758  -21.9497  -53.8785 C.3       19 UNK        -0.1800 
    107 C          0.4969  -20.3832  -53.9771 C.2       19 UNK         0.5000 
    108 O          0.8679  -19.3596  -54.5548 O.2       19 UNK        -0.5000 
    109 N         -0.3745  -20.3782  -52.9564 N.am      20 UNK        -0.5000 
    110 CA        -1.0824  -19.1840  -52.4890 C.3       20 UNK         0.1400 
    111 CB        -1.6327  -19.4320  -51.0755 C.3       20 UNK        -0.1800 
    112 C         -2.2083  -18.7745  -53.4600 C.2       20 UNK         0.5000 
    113 O         -2.5814  -19.5509  -54.3431 O.2       20 UNK        -0.5000 
    114 N         -2.7380  -17.5588  -53.2645 N.am      21 UNK        -0.5000 
    115 CA        -3.6917  -16.8735  -54.1467 C.3       21 UNK         0.1400 
    116 CB        -4.0738  -15.5271  -53.5124 C.3       21 UNK        -0.1800 
    117 C         -4.9630  -17.6654  -54.5163 C.2       21 UNK         0.5000 
    118 O         -5.4672  -17.4979  -55.6280 O.2       21 UNK        -0.5000 
    119 N         -5.4423  -18.5111  -53.5970 N.am      22 UNK        -0.5000 
    120 CA        -6.5998  -19.4005  -53.7979 C.3       22 UNK         0.1400 
    121 C         -6.2023  -20.8778  -54.0916 C.2       22 UNK         0.5000 
    122 N         -4.9321  -21.2102  -54.2885 N.am      22 UNK        -0.7600 
    123 O         -7.0678  -21.7463  -54.1621 O.2       22 UNK        -0.5000 
    124 C124       -7.6206  -19.3021  -52.6345 C.3       23 UNK        -0.0398 
    125 S125       -8.1969  -17.5899  -52.3512 S.3       23 UNK        -0.2404 
    126 C126       -8.1862  -17.4705  -50.5347 C.3       23 UNK        -0.0205 
    127 H127        0.1221   -9.3687  -49.9112 H         1 UNK         0.0600 
    128 H128        1.6483  -10.1906  -49.5673 H         1 UNK         0.0600 
    129 H129        0.6683   -9.5582  -48.2422 H         1 UNK         0.0600 
    130 H130       -0.3967  -11.1817  -47.1554 H         1 UNK         0.3000 
    131 H131       -0.6477  -13.8055  -48.1748 H         1 UNK         0.0600 
    132 H132       -2.6561  -12.9627  -49.3520 H         1 UNK         0.0800 
    133 H133       -3.2748  -12.2578  -47.8923 H         1 UNK         0.0800 
    134 H134       -2.6483  -15.8132  -49.7650 H         1 UNK         0.0800 
    135 H135       -3.9526  -14.7614  -50.2707 H         1 UNK         0.0800 
    136 H136       -6.1782  -15.6252  -50.5236 H         1 UNK         0.1150 
    137 H137       -7.1226  -19.5854  -49.1863 H         1 UNK         0.1150 
    138 H138       -3.2719  -17.9094  -48.3539 H         1 UNK         0.1150 
    139 H139       -5.2944  -21.0074  -48.3606 H         1 UNK         0.0800 
    140 H140       -3.7142  -20.3320  -47.9985 H         1 UNK         0.0800 
    141 H141       -6.1925  -22.1206  -45.8090 H         1 UNK         0.0800 
    142 H142       -5.2712  -21.5818  -44.4306 H         1 UNK         0.0800 
    143 H143       -4.1101  -22.6580  -47.0440 H         1 UNK         0.0600 
    144 H144       -2.7631  -21.1246  -45.0839 H         1 UNK         0.3000 
    145 H145        0.1429  -22.7982  -44.6751 H         1 UNK         0.0600 
    146 H146        0.2617  -20.8092  -46.9810 H         1 UNK         0.0600 
    147 H147        1.5649  -20.9993  -45.8033 H         1 UNK         0.0600 
    148 H148        1.1029  -22.3453  -46.8310 H         1 UNK         0.0600 
    149 H149       -0.1744  -19.9884  -44.5021 H         1 UNK         0.3000 
    150 H150       -2.1917  -19.8974  -41.5688 H         1 UNK         0.0600 
    151 H151        0.0949  -20.2849  -40.7241 H         1 UNK         0.0600 
    152 H152       -0.2273  -18.5602  -40.8127 H         1 UNK         0.0600 
    153 H153        0.7864  -19.3338  -42.0295 H         1 UNK         0.0600 
    154 H154       -0.8384  -18.1118  -43.5028 H         1 UNK         0.3000 
    155 H155       -3.7834  -17.4281  -45.3159 H         1 UNK         0.0600 
    156 H156       -4.2093  -15.8968  -43.3954 H         1 UNK         0.0600 
    157 H157       -3.4155  -15.0427  -44.7088 H         1 UNK         0.0600 
    158 H158       -2.4916  -15.5307  -43.2859 H         1 UNK         0.0600 
    159 H159       -1.2542  -16.1422  -45.3752 H         1 UNK         0.3000 
    160 H160        0.5687  -18.5762  -47.1991 H         1 UNK         0.0600 
    161 H161        0.8143  -16.5822  -48.7362 H         1 UNK         0.0600 
    162 H162       -0.7391  -15.9889  -48.1407 H         1 UNK         0.0600 
    163 H163       -0.6544  -17.5080  -49.0088 H         1 UNK         0.0600 
    164 H164        1.2358  -15.9473  -46.3946 H         1 UNK         0.3000 
    165 H165        1.9333  -16.2169  -43.2054 H         1 UNK         0.0600 
    166 H166        4.2997  -17.4649  -44.6938 H         1 UNK         0.0600 
    167 H167        4.4008  -16.5656  -43.1803 H         1 UNK         0.0600 
    168 H168        3.5390  -18.0940  -43.2393 H         1 UNK         0.0600 
    169 H169        2.5540  -14.3407  -44.1112 H         1 UNK         0.3000 
    170 H170        4.6294  -13.3255  -46.7358 H         1 UNK         0.0600 
    171 H171        1.6638  -12.6519  -46.4323 H         1 UNK         0.0600 
    172 H172        2.8683  -11.6834  -47.2766 H         1 UNK         0.0600 
    173 H173        2.4074  -13.2585  -47.9072 H         1 UNK         0.0600 
    174 H174        3.1546  -11.9632  -44.6502 H         1 UNK         0.3000 
    175 H175        5.3393  -12.6144  -42.0142 H         1 UNK         0.0600 
    176 H176        5.5019  -10.0011  -43.6086 H         1 UNK         0.0600 
    177 H177        5.9530  -10.2162  -41.9163 H         1 UNK         0.0600 
    178 H178        6.8739  -11.0153  -43.1790 H         1 UNK         0.0600 
    179 H179        3.5108  -10.5069  -42.1972 H         1 UNK         0.3000 
    180 H180        1.2071  -11.9899  -40.4405 H         1 UNK         0.0600 
    181 H181        1.5466   -9.6014  -42.3394 H         1 UNK         0.0600 
    182 H182        2.2329   -9.7561  -40.7214 H         1 UNK         0.0600 
    183 H183        0.4977   -9.6517  -40.9296 H         1 UNK         0.0600 
    184 H184       -0.5943  -12.4675  -41.6115 H         1 UNK         0.3000 
    185 H185       -1.7365  -13.2766  -43.5540 H         1 UNK         0.0600 
    186 H186       -3.6306  -11.6461  -43.7194 H         1 UNK         0.0600 
    187 H187       -2.6396  -11.3099  -42.3117 H         1 UNK         0.0600 
    188 H188       -2.4863  -10.3043  -43.7466 H         1 UNK         0.0600 
    189 H189       -2.0735  -11.4920  -45.8300 H         1 UNK         0.3000 
    190 H190       -3.1674  -23.4656  -43.7291 H         1 UNK         0.3000 
    191 H191       -4.5727  -25.9685  -43.5422 H         1 UNK         0.0600 
    192 H192       -2.1140  -24.8975  -42.0533 H         1 UNK         0.0600 
    193 H193       -3.7926  -24.6913  -41.5547 H         1 UNK         0.0600 
    194 H194       -3.0721  -26.2932  -41.5716 H         1 UNK         0.0600 
    195 H195       -1.7637  -25.0290  -45.3239 H         1 UNK         0.3000 
    196 H196       -0.7903  -27.8275  -45.6624 H         1 UNK         0.0600 
    197 H197        0.9021  -26.1665  -44.8260 H         1 UNK         0.0600 
    198 H198        0.6183  -25.1673  -46.2499 H         1 UNK         0.0600 
    199 H199        1.3038  -26.7774  -46.4218 H         1 UNK         0.0600 
    200 H200       -3.2464  -26.8857  -46.7963 H         1 UNK         0.3000 
    201 H201       -4.4570  -26.8866  -48.6515 H         1 UNK         0.0600 
    202 H202       -3.7418  -28.3376  -50.5245 H         1 UNK         0.0600 
    203 H203       -3.3576  -29.1037  -48.9920 H         1 UNK         0.0600 
    204 H204       -2.0837  -28.3404  -49.9414 H         1 UNK         0.0600 
    205 H205       -3.4048  -24.5011  -48.1753 H         1 UNK         0.3000 
    206 H206       -3.0258  -22.4384  -48.9761 H         1 UNK         0.0600 
    207 H207       -5.0052  -22.9322  -50.4324 H         1 UNK         0.0600 
    208 H208       -3.9322  -23.5208  -51.6977 H         1 UNK         0.0600 
    209 H209       -3.8874  -21.8370  -51.2170 H         1 UNK         0.0600 
    210 H210       -0.8437  -23.7616  -48.4831 H         1 UNK         0.3000 
    211 H211        1.3446  -24.0175  -48.7674 H         1 UNK         0.0600 
    212 H212        1.2733  -21.5037  -49.0582 H         1 UNK         0.0600 
    213 H213        2.6069  -22.2385  -49.9304 H         1 UNK         0.0600 
    214 H214        1.1691  -21.7167  -50.7953 H         1 UNK         0.0600 
    215 H215       -0.0745  -25.9109  -50.0585 H         1 UNK         0.3000 
    216 H216       -0.2821  -27.4018  -51.6814 H         1 UNK         0.0600 
    217 H217        1.7592  -28.2189  -52.8095 H         1 UNK         0.0600 
    218 H218        2.6330  -26.7550  -52.3806 H         1 UNK         0.0600 
    219 H219        2.1068  -27.8730  -51.1229 H         1 UNK         0.0600 
    220 H220       -1.5216  -25.1938  -52.2762 H         1 UNK         0.3000 
    221 H221       -2.5421  -23.9397  -53.7323 H         1 UNK         0.0600 
    222 H222       -1.5202  -25.8248  -55.9163 H         1 UNK         0.0600 
    223 H223       -2.9286  -26.1218  -54.8971 H         1 UNK         0.0600 
    224 H224       -2.9220  -24.7690  -56.0143 H         1 UNK         0.0600 
    225 H225        0.3816  -23.3047  -53.1705 H         1 UNK         0.3000 
    226 H226        1.1474  -21.7047  -55.5274 H         1 UNK         0.0600 
    227 H227        2.8748  -22.9242  -54.1610 H         1 UNK         0.0600 
    228 H228        3.1609  -21.1930  -54.2623 H         1 UNK         0.0600 
    229 H229        2.4942  -21.8796  -52.7914 H         1 UNK         0.0600 
    230 H230       -0.6590  -21.2629  -52.5435 H         1 UNK         0.3000 
    231 H231       -0.3669  -18.3609  -52.4345 H         1 UNK         0.0600 
    232 H232       -2.0687  -18.5243  -50.6591 H         1 UNK         0.0600 
    233 H233       -0.8473  -19.7590  -50.3936 H         1 UNK         0.0600 
    234 H234       -2.4125  -20.1895  -51.0769 H         1 UNK         0.0600 
    235 H235       -2.3834  -17.0046  -52.4997 H         1 UNK         0.3000 
    236 H236       -3.1634  -16.6688  -55.0800 H         1 UNK         0.0600 
    237 H237       -3.1956  -14.9060  -53.3351 H         1 UNK         0.0600 
    238 H238       -4.7424  -14.9633  -54.1645 H         1 UNK         0.0600 
    239 H239       -4.5874  -15.6663  -52.5613 H         1 UNK         0.0600 
    240 H240       -4.9628  -18.5911  -52.7130 H         1 UNK         0.3000 
    241 H241       -7.1348  -19.0852  -54.6952 H         1 UNK         0.0600 
    242 H242       -4.1906  -20.5138  -54.2927 H         1 UNK         0.3800 
    243 H243       -4.7091  -22.1695  -54.4935 H         1 UNK         0.3800 
    244 H244       -8.5020  -19.9092  -52.8474 H         1 UNK         0.0800 
    245 H245       -7.1866  -19.7142  -51.7246 H         1 UNK         0.0800 
    246 H246       -8.8532  -18.2294  -50.1228 H         1 UNK         0.0800 
    247 H247       -8.6082  -16.5074  -50.2442 H         1 UNK         0.0800 
@<TRIPOS>BOND
     1    1    2 1    
     2    1  127 1    
     3    1  128 1    
     4    1  129 1    
     5    2    3 2    
     6    2    4 am   BACKBONE|DICT|INTERRES
     7    4    5 1    
     8    4  130 1    
     9    5    6 1    
    10    5   65 1    
    11    5  131 1    
    12    6    7 1    
    13    6  132 1    
    14    6  133 1    
    15    7    8 1    
    16    8    9 1    
    17    8  134 1    
    18    8  135 1    
    19    9   10 ar   
    20    9   14 ar   
    21   10   11 ar   
    22   10  136 1    
    23   11   12 ar   
    24   11  126 1    
    25   12   13 ar   
    26   12  137 1    
    27   13   14 ar   
    28   13   15 1    
    29   14  138 1    
    30   15   16 1    
    31   15  139 1    
    32   15  140 1    
    33   16   17 1    
    34   17   18 1    
    35   17  141 1    
    36   17  142 1    
    37   18   19 1    
    38   18   67 1    
    39   18  143 1    
    40   19   20 am   BACKBONE|DICT|INTERRES
    41   19  144 1    
    42   20   21 2    
    43   20   22 1    
    44   22   23 1    
    45   22   24 1    
    46   22  145 1    
    47   23  146 1    
    48   23  147 1    
    49   23  148 1    
    50   24   25 am   BACKBONE|DICT|INTERRES
    51   24  149 1    
    52   25   26 2    
    53   25   27 1    
    54   27   28 1    
    55   27   29 1    
    56   27  150 1    
    57   28  151 1    
    58   28  152 1    
    59   28  153 1    
    60   29   30 am   BACKBONE|DICT|INTERRES
    61   29  154 1    
    62   30   31 2    
    63   30   32 1    
    64   32   33 1    
    65   32   34 1    
    66   32  155 1    
    67   33  156 1    
    68   33  157 1    
    69   33  158 1    
    70   34   35 am   BACKBONE|DICT|INTERRES
    71   34  159 1    
    72   35   36 2    
    73   35   37 1    
    74   37   38 1    
    75   37   39 1    
    76   37  160 1    
    77   38  161 1    
    78   38  162 1    
    79   38  163 1    
    80   39   40 am   BACKBONE|DICT|INTERRES
    81   39  164 1    
    82   40   41 2    
    83   40   42 1    
    84   42   43 1    
    85   42   44 1    
    86   42  165 1    
    87   43  166 1    
    88   43  167 1    
    89   43  168 1    
    90   44   45 am   BACKBONE|DICT|INTERRES
    91   44  169 1    
    92   45   46 2    
    93   45   47 1    
    94   47   48 1    
    95   47   49 1    
    96   47  170 1    
    97   48  171 1    
    98   48  172 1    
    99   48  173 1    
   100   49   50 am   BACKBONE|DICT|INTERRES
   101   49  174 1    
   102   50   51 2    
   103   50   52 1    
   104   52   53 1    
   105   52   54 1    
   106   52  175 1    
   107   53  176 1    
   108   53  177 1    
   109   53  178 1    
   110   54   55 am   BACKBONE|DICT|INTERRES
   111   54  179 1    
   112   55   56 2    
   113   55   57 1    
   114   57   58 1    
   115   57   59 1    
   116   57  180 1    
   117   58  181 1    
   118   58  182 1    
   119   58  183 1    
   120   59   60 am   BACKBONE|DICT|INTERRES
   121   59  184 1    
   122   60   61 2    
   123   60   62 1    
   124   62   63 1    
   125   62   64 1    
   126   62  185 1    
   127   63  186 1    
   128   63  187 1    
   129   63  188 1    
   130   64   65 am   BACKBONE|DICT|INTERRES
   131   64  189 1    
   132   65   66 2    
   133   67   68 2    
   134   67   69 am   BACKBONE|DICT|INTERRES
   135   69   70 1    
   136   69  190 1    
   137   70   71 1    
   138   70   72 1    
   139   70  191 1    
   140   71  192 1    
   141   71  193 1    
   142   71  194 1    
   143   72   73 2    
   144   72   74 am   BACKBONE|DICT|INTERRES
   145   74   75 1    
   146   74  195 1    
   147   75   76 1    
   148   75   77 1    
   149   75  196 1    
   150   76  197 1    
   151   76  198 1    
   152   76  199 1    
   153   77   78 2    
   154   77   79 am   BACKBONE|DICT|INTERRES
   155   79   80 1    
   156   79  200 1    
   157   80   81 1    
   158   80   82 1    
   159   80  201 1    
   160   81  202 1    
   161   81  203 1    
   162   81  204 1    
   163   82   83 2    
   164   82   84 am   BACKBONE|DICT|INTERRES
   165   84   85 1    
   166   84  205 1    
   167   85   86 1    
   168   85   87 1    
   169   85  206 1    
   170   86  207 1    
   171   86  208 1    
   172   86  209 1    
   173   87   88 2    
   174   87   89 am   BACKBONE|DICT|INTERRES
   175   89   90 1    
   176   89  210 1    
   177   90   91 1    
   178   90   92 1    
   179   90  211 1    
   180   91  212 1    
   181   91  213 1    
   182   91  214 1    
   183   92   93 2    
   184   92   94 am   BACKBONE|DICT|INTERRES
   185   94   95 1    
   186   94  215 1    
   187   95   96 1    
   188   95   97 1    
   189   95  216 1    
   190   96  217 1    
   191   96  218 1    
   192   96  219 1    
   193   97   98 2    
   194   97   99 am   BACKBONE|DICT|INTERRES
   195   99  100 1    
   196   99  220 1    
   197  100  101 1    
   198  100  102 1    
   199  100  221 1    
   200  101  222 1    
   201  101  223 1    
   202  101  224 1    
   203  102  103 2    
   204  102  104 am   BACKBONE|DICT|INTERRES
   205  104  105 1    
   206  104  225 1    
   207  105  106 1    
   208  105  107 1    
   209  105  226 1    
   210  106  227 1    
   211  106  228 1    
   212  106  229 1    
   213  107  108 2    
   214  107  109 am   BACKBONE|DICT|INTERRES
   215  109  110 1    
   216  109  230 1    
   217  110  111 1    
   218  110  112 1    
   219  110  231 1    
   220  111  232 1    
   221  111  233 1    
   222  111  234 1    
   223  112  113 2    
   224  112  114 am   BACKBONE|DICT|INTERRES
   225  114  115 1    
   226  114  235 1    
   227  115  116 1    
   228  115  117 1    
   229  115  236 1    
   230  116  237 1    
   231  116  238 1    
   232  116  239 1    
   233  117  118 2    
   234  117  119 am   BACKBONE|DICT|INTERRES
   235  119  120 1    
   236  119  240 1    
   237  120  121 1    
   238  120  124 1    
   239  120  241 1    
   240  121  122 am   BACKBONE|DICT|INTERRES
   241  121  123 2    
   242  122  242 1    
   243  122  243 1    
   244  124  125 1    
   245  124  244 1    
   246  124  245 1    
   247  125  126 1    
   248  126  246 1    
   249  126  247 1    
@<TRIPOS>SUBSTRUCTURE
     1 UNK         1 GROUP             0       ****    0 ROOT    
