@<TRIPOS>MOLECULE
3R540
247   249    1
SMALL
USER_CHARGES


@<TRIPOS>ATOM
      1 CA         -0.2597  -11.0813  -45.5519 C.3       0 UNK        -0.1800 
      2 C           1.0411  -11.0261  -46.3389 C.2       0 UNK         0.5000 
      3 O           1.2605  -10.0739  -47.0877 O.2       0 UNK        -0.5000 
      4 N           1.8994  -12.0414  -46.1788 N.am      1 UNK        -0.5000 
      5 CA          3.1678  -12.1872  -46.9049 C.3       1 UNK         0.1400 
      6 C6          3.7675  -13.6131  -46.7971 C.3       23 UNK        -0.0398 
      7 S7          2.5685  -14.9457  -47.1222 S.3       23 UNK        -0.2404 
      8 C8          2.7070  -15.1533  -48.9202 C.3       23 UNK        -0.0205 
      9 C9          1.7056  -16.1812  -49.4257 C.ar      23 UNK        -0.0193 
     10 C10         0.3688  -15.8193  -49.6218 C.ar      23 UNK        -0.1150 
     11 C11        -0.5596  -16.7549  -50.0870 C.ar      23 UNK        -0.0193 
     12 C12        -0.1376  -18.0536  -50.3808 C.ar      23 UNK        -0.1150 
     13 C13         1.1940  -18.4305  -50.1852 C.ar      23 UNK        -0.0193 
     14 C14         2.1105  -17.4914  -49.7010 C.ar      23 UNK        -0.1150 
     15 C15         1.6426  -19.8471  -50.5145 C.3       23 UNK        -0.0205 
     16 S16         1.5211  -20.9585  -49.0782 S.3       23 UNK        -0.2404 
     17 C17        -0.2860  -21.0760  -48.8643 C.3       23 UNK        -0.0398 
     18 CA         -0.7004  -22.2689  -47.9739 C.3       11 UNK         0.1400 
     19 N          -0.2434  -22.1386  -46.5892 N.am      11 UNK        -0.5000 
     20 C          -0.3688  -23.0873  -45.6502 C.2       10 UNK         0.5000 
     21 O          -0.8437  -24.2043  -45.8609 O.2       10 UNK        -0.5000 
     22 CA          0.0557  -22.7012  -44.2235 C.3       10 UNK         0.1400 
     23 CB          1.5808  -22.7826  -44.0572 C.3       10 UNK        -0.1800 
     24 N          -0.4114  -21.3632  -43.8596 N.am      10 UNK        -0.5000 
     25 C          -1.6974  -21.0380  -43.6658 C.2       9 UNK         0.5000 
     26 O          -2.6261  -21.8421  -43.7424 O.2       9 UNK        -0.5000 
     27 CA         -1.9983  -19.5555  -43.3814 C.3       9 UNK         0.1400 
     28 CB         -1.7219  -19.2113  -41.9102 C.3       9 UNK        -0.1800 
     29 N          -1.2289  -18.6578  -44.2408 N.am      9 UNK        -0.5000 
     30 C          -1.3814  -18.5649  -45.5695 C.2       8 UNK         0.5000 
     31 O          -2.2123  -19.2030  -46.2122 O.2       8 UNK        -0.5000 
     32 CA         -0.4108  -17.6352  -46.3128 C.3       8 UNK         0.1400 
     33 CB         -0.9862  -16.2111  -46.3542 C.3       8 UNK        -0.1800 
     34 N           0.9363  -17.6312  -45.7342 N.am      8 UNK        -0.5000 
     35 C           1.7231  -18.7163  -45.6480 C.2       7 UNK         0.5000 
     36 O           1.3576  -19.8432  -45.9776 O.2       7 UNK        -0.5000 
     37 CA          3.1390  -18.5478  -45.0680 C.3       7 UNK         0.1400 
     38 CB          4.1690  -18.4065  -46.1990 C.3       7 UNK        -0.1800 
     39 N           3.2723  -17.4231  -44.1438 N.am      7 UNK        -0.5000 
     40 C           2.6786  -17.3414  -42.9455 C.2       6 UNK         0.5000 
     41 O           1.9513  -18.2230  -42.4833 O.2       6 UNK        -0.5000 
     42 CA          2.9040  -16.0474  -42.1314 C.3       6 UNK         0.1400 
     43 CB          4.0122  -15.1290  -42.6953 C.3       6 UNK        -0.1800 
     44 N           1.6657  -15.2810  -41.9678 N.am      6 UNK        -0.5000 
     45 C           0.8435  -14.8781  -42.9477 C.2       5 UNK         0.5000 
     46 O           1.0141  -15.1192  -44.1413 O.2       5 UNK        -0.5000 
     47 CA         -0.3457  -14.0013  -42.5231 C.3       5 UNK         0.1400 
     48 CB         -1.3901  -14.8256  -41.7535 C.3       5 UNK        -0.1800 
     49 N           0.0403  -12.8223  -41.7389 N.am      5 UNK        -0.5000 
     50 C           0.9506  -11.9109  -42.1107 C.2       4 UNK         0.5000 
     51 O           1.6492  -11.9977  -43.1277 O.2       4 UNK        -0.5000 
     52 CA          1.1010  -10.6753  -41.2126 C.3       4 UNK         0.1400 
     53 CB          2.0136  -10.9686  -40.0091 C.3       4 UNK        -0.1800 
     54 N           1.6908   -9.6495  -42.0563 N.am      4 UNK        -0.5000 
     55 C           1.7614   -8.3320  -41.8653 C.2       3 UNK         0.5000 
     56 O           1.3041   -7.7577  -40.8758 O.2       3 UNK        -0.5000 
     57 CA          2.4433   -7.5302  -42.9996 C.3       3 UNK         0.1400 
     58 CB          3.1745   -6.2734  -42.4828 C.3       3 UNK        -0.1800 
     59 N           3.3255   -8.3457  -43.8556 N.am      3 UNK        -0.5000 
     60 C           4.4519   -8.9781  -43.4877 C.2       2 UNK         0.5000 
     61 O           4.9179   -8.9428  -42.3479 O.2       2 UNK        -0.5000 
     62 CA          5.1373   -9.8220  -44.5755 C.3       2 UNK         0.1400 
     63 CB          6.3427  -10.6287  -44.0520 C.3       2 UNK        -0.1800 
     64 N           4.1720  -10.7304  -45.1950 N.am      2 UNK        -0.5000 
     65 C           4.2230  -11.1490  -46.4669 C.2       1 UNK         0.5000 
     66 O           5.0643  -10.7636  -47.2801 O.2       1 UNK        -0.5000 
     67 C          -2.2213  -22.4951  -48.0465 C.2       11 UNK         0.5000 
     68 O          -2.6488  -23.4024  -48.7553 O.2       11 UNK        -0.5000 
     69 N          -3.0059  -21.7102  -47.2936 N.am      12 UNK        -0.5000 
     70 CA         -4.4606  -21.8419  -47.1993 C.3       12 UNK         0.1400 
     71 CB         -5.0443  -20.6576  -46.4157 C.3       12 UNK        -0.1800 
     72 C          -4.9081  -23.1772  -46.5790 C.2       12 UNK         0.5000 
     73 O          -5.8536  -23.7819  -47.0837 O.2       12 UNK        -0.5000 
     74 N          -4.2049  -23.6377  -45.5334 N.am      13 UNK        -0.5000 
     75 CA         -4.4453  -24.9263  -44.8757 C.3       13 UNK         0.1400 
     76 CB         -3.5918  -25.0249  -43.6024 C.3       13 UNK        -0.1800 
     77 C          -4.1887  -26.1327  -45.7999 C.2       13 UNK         0.5000 
     78 O          -4.9506  -27.0994  -45.7655 O.2       13 UNK        -0.5000 
     79 N          -3.1457  -26.0369  -46.6346 N.am      14 UNK        -0.5000 
     80 CA         -2.8131  -27.0139  -47.6748 C.3       14 UNK         0.1400 
     81 CB         -1.3141  -26.8850  -47.9912 C.3       14 UNK        -0.1800 
     82 C          -3.6414  -26.8370  -48.9658 C.2       14 UNK         0.5000 
     83 O          -3.5171  -27.6556  -49.8796 O.2       14 UNK        -0.5000 
     84 N          -4.4043  -25.7359  -49.0547 N.am      15 UNK        -0.5000 
     85 CA         -5.1209  -25.2167  -50.2263 C.3       15 UNK         0.1400 
     86 CB         -6.3321  -26.1116  -50.5564 C.3       15 UNK        -0.1800 
     87 C          -4.2050  -24.9930  -51.4496 C.2       15 UNK         0.5000 
     88 O          -4.6743  -25.0709  -52.5843 O.2       15 UNK        -0.5000 
     89 N          -2.9064  -24.7726  -51.1980 N.am      16 UNK        -0.5000 
     90 CA         -1.7884  -24.7405  -52.1453 C.3       16 UNK         0.1400 
     91 CB         -1.7352  -23.3752  -52.8503 C.3       16 UNK        -0.1800 
     92 C          -1.7775  -25.9402  -53.1205 C.2       16 UNK         0.5000 
     93 O          -1.5659  -25.7580  -54.3196 O.2       16 UNK        -0.5000 
     94 N          -2.0461  -27.1400  -52.5801 N.am      17 UNK        -0.5000 
     95 CA         -2.2131  -28.4117  -53.2935 C.3       17 UNK         0.1400 
     96 CB         -0.9058  -28.8429  -53.9921 C.3       17 UNK        -0.1800 
     97 C          -3.4390  -28.3953  -54.2324 C.2       17 UNK         0.5000 
     98 O          -3.3419  -28.7826  -55.3980 O.2       17 UNK        -0.5000 
     99 N          -4.5735  -27.9394  -53.6817 N.am      18 UNK        -0.5000 
    100 CA        -5.8975  -27.8234  -54.3066 C.3       18 UNK         0.1400 
    101 CB        -6.4323  -29.2030  -54.7455 C.3       18 UNK        -0.1800 
    102 C         -5.9850  -26.7582  -55.4224 C.2       18 UNK         0.5000 
    103 O         -6.8597  -26.8457  -56.2859 O.2       18 UNK        -0.5000 
    104 N         -5.1106  -25.7462  -55.3620 N.am      19 UNK        -0.5000 
    105 CA        -5.1540  -24.5473  -56.2037 C.3       19 UNK         0.1400 
    106 CB        -3.7162  -24.0790  -56.4733 C.3       19 UNK        -0.1800 
    107 C         -5.9895  -23.4140  -55.5679 C.2       19 UNK         0.5000 
    108 O         -6.2763  -22.4285  -56.2472 O.2       19 UNK        -0.5000 
    109 N         -6.3520  -23.5722  -54.2849 N.am      20 UNK        -0.5000 
    110 CA        -7.1090  -22.6577  -53.4199 C.3       20 UNK         0.1400 
    111 CB        -8.4733  -22.2783  -54.0324 C.3       20 UNK        -0.1800 
    112 C         -6.2979  -21.4331  -52.9462 C.2       20 UNK         0.5000 
    113 O         -6.8863  -20.4569  -52.4754 O.2       20 UNK        -0.5000 
    114 N         -4.9622  -21.5213  -53.0404 N.am      21 UNK        -0.5000 
    115 CA        -3.9745  -20.5209  -52.6231 C.3       21 UNK         0.1400 
    116 CB        -3.8535  -20.5124  -51.0811 C.3       21 UNK        -0.1800 
    117 C         -4.2435  -19.1402  -53.2592 C.2       21 UNK         0.5000 
    118 O         -4.2608  -19.0425  -54.4876 O.2       21 UNK        -0.5000 
    119 N         -4.4559  -18.1147  -52.4281 N.am      22 UNK        -0.5000 
    120 CA        -4.8175  -16.7512  -52.8491 C.3       22 UNK         0.1400 
    121 C         -6.3531  -16.5318  -53.0062 C.2       22 UNK         0.5000 
    122 N         -7.2044  -17.5363  -52.8288 N.am      22 UNK        -0.7600 
    123 O         -6.7872  -15.4238  -53.3096 O.2       22 UNK        -0.5000 
    124 C124       -4.1756  -15.6782  -51.9295 C.3       23 UNK        -0.0398 
    125 S125       -2.3503  -15.7582  -51.9353 S.3       23 UNK        -0.2404 
    126 C126       -2.0211  -16.3748  -50.2578 C.3       23 UNK        -0.0205 
    127 H127       -0.4266  -12.0716  -45.1301 H         1 UNK         0.0600 
    128 H128       -1.1038  -10.8452  -46.1996 H         1 UNK         0.0600 
    129 H129       -0.2380  -10.3577  -44.7372 H         1 UNK         0.0600 
    130 H130        1.6767  -12.7854  -45.5291 H         1 UNK         0.3000 
    131 H131        2.9564  -12.0014  -47.9601 H         1 UNK         0.0600 
    132 H132        4.6134  -13.7246  -47.4779 H         1 UNK         0.0800 
    133 H133        4.1660  -13.7808  -45.7957 H         1 UNK         0.0800 
    134 H134        3.7247  -15.4530  -49.1746 H         1 UNK         0.0800 
    135 H135        2.5298  -14.1961  -49.4125 H         1 UNK         0.0800 
    136 H136        0.0497  -14.8108  -49.3989 H         1 UNK         0.1150 
    137 H137       -0.8492  -18.7738  -50.7574 H         1 UNK         0.1150 
    138 H138        3.1403  -17.7800  -49.5442 H         1 UNK         0.1150 
    139 H139        1.0566  -20.2501  -51.3420 H         1 UNK         0.0800 
    140 H140        2.6780  -19.8327  -50.8579 H         1 UNK         0.0800 
    141 H141       -0.7343  -21.1701  -49.8553 H         1 UNK         0.0800 
    142 H142       -0.6528  -20.1394  -48.4426 H         1 UNK         0.0800 
    143 H143       -0.2307  -23.1670  -48.3811 H         1 UNK         0.0600 
    144 H144        0.2162  -21.2637  -46.3446 H         1 UNK         0.3000 
    145 H145       -0.3980  -23.4173  -43.5351 H         1 UNK         0.0600 
    146 H146        2.1005  -22.0886  -44.7182 H         1 UNK         0.0600 
    147 H147        1.8782  -22.5564  -43.0332 H         1 UNK         0.0600 
    148 H148        1.9427  -23.7855  -44.2870 H         1 UNK         0.0600 
    149 H149        0.2824  -20.6298  -43.8380 H         1 UNK         0.3000 
    150 H150       -3.0591  -19.3871  -43.5786 H         1 UNK         0.0600 
    151 H151       -2.2852  -19.8659  -41.2439 H         1 UNK         0.0600 
    152 H152       -2.0163  -18.1866  -41.6830 H         1 UNK         0.0600 
    153 H153       -0.6652  -19.3189  -41.6618 H         1 UNK         0.0600 
    154 H154       -0.4882  -18.1260  -43.8058 H         1 UNK         0.3000 
    155 H155       -0.3183  -17.9945  -47.3389 H         1 UNK         0.0600 
    156 H156       -1.9193  -16.1893  -46.9181 H         1 UNK         0.0600 
    157 H157       -0.3020  -15.5140  -46.8349 H         1 UNK         0.0600 
    158 H158       -1.2024  -15.8318  -45.3554 H         1 UNK         0.0600 
    159 H159        1.2806  -16.7367  -45.3987 H         1 UNK         0.3000 
    160 H160        3.3706  -19.4606  -44.5152 H         1 UNK         0.0600 
    161 H161        5.1858  -18.3787  -45.8074 H         1 UNK         0.0600 
    162 H162        4.0079  -17.5005  -46.7827 H         1 UNK         0.0600 
    163 H163        4.1087  -19.2508  -46.8875 H         1 UNK         0.0600 
    164 H164        3.8112  -16.6338  -44.4679 H         1 UNK         0.3000 
    165 H165        3.2121  -16.3648  -41.1342 H         1 UNK         0.0600 
    166 H166        3.7504  -14.7247  -43.6728 H         1 UNK         0.0600 
    167 H167        4.1864  -14.2817  -42.0319 H         1 UNK         0.0600 
    168 H168        4.9598  -15.6605  -42.7909 H         1 UNK         0.0600 
    169 H169        1.4277  -15.0300  -41.0194 H         1 UNK         0.3000 
    170 H170       -0.8214  -13.6402  -43.4361 H         1 UNK         0.0600 
    171 H171       -1.0062  -15.1764  -40.7949 H         1 UNK         0.0600 
    172 H172       -2.2891  -14.2402  -41.5603 H         1 UNK         0.0600 
    173 H173       -1.6936  -15.7025  -42.3273 H         1 UNK         0.0600 
    174 H174       -0.4749  -12.6696  -40.8840 H         1 UNK         0.3000 
    175 H175        0.1159  -10.3476  -40.8753 H         1 UNK         0.0600 
    176 H176        3.0048  -11.2934  -40.3287 H         1 UNK         0.0600 
    177 H177        2.1381  -10.0861  -39.3815 H         1 UNK         0.0600 
    178 H178        1.5944  -11.7559  -39.3817 H         1 UNK         0.0600 
    179 H179        2.0650  -10.0330  -42.9145 H         1 UNK         0.3000 
    180 H180        1.6333   -7.1901  -43.6464 H         1 UNK         0.0600 
    181 H181        3.9510   -6.5229  -41.7594 H         1 UNK         0.0600 
    182 H182        2.4799   -5.5917  -41.9907 H         1 UNK         0.0600 
    183 H183        3.6405   -5.7238  -43.3005 H         1 UNK         0.0600 
    184 H184        3.0226   -8.4501  -44.8149 H         1 UNK         0.3000 
    185 H185        5.5010   -9.1126  -45.3219 H         1 UNK         0.0600 
    186 H186        6.8408  -11.1652  -44.8596 H         1 UNK         0.0600 
    187 H187        7.0855   -9.9740  -43.5948 H         1 UNK         0.0600 
    188 H188        6.0388  -11.3601  -43.3021 H         1 UNK         0.0600 
    189 H189        3.4430  -11.0981  -44.5962 H         1 UNK         0.3000 
    190 H190       -2.5909  -20.9455  -46.7662 H         1 UNK         0.3000 
    191 H191       -4.8609  -21.8021  -48.2147 H         1 UNK         0.0600 
    192 H192       -4.6362  -20.6035  -45.4058 H         1 UNK         0.0600 
    193 H193       -4.8302  -19.7125  -46.9149 H         1 UNK         0.0600 
    194 H194       -6.1285  -20.7401  -46.3296 H         1 UNK         0.0600 
    195 H195       -3.4698  -23.0579  -45.1411 H         1 UNK         0.3000 
    196 H196       -5.4960  -24.9564  -44.5802 H         1 UNK         0.0600 
    197 H197       -3.8375  -24.2272  -42.9012 H         1 UNK         0.0600 
    198 H198       -2.5266  -24.9586  -43.8244 H         1 UNK         0.0600 
    199 H199       -3.7625  -25.9720  -43.0892 H         1 UNK         0.0600 
    200 H200       -2.5343  -25.2301  -46.5580 H         1 UNK         0.3000 
    201 H201       -3.0006  -28.0210  -47.2971 H         1 UNK         0.0600 
    202 H202       -1.0017  -27.6208  -48.7333 H         1 UNK         0.0600 
    203 H203       -0.7084  -27.0470  -47.0993 H         1 UNK         0.0600 
    204 H204       -1.0707  -25.8965  -48.3834 H         1 UNK         0.0600 
    205 H205       -4.4093  -25.1191  -48.2529 H         1 UNK         0.3000 
    206 H206       -5.4960  -24.2315  -49.9463 H         1 UNK         0.0600 
    207 H207       -6.9770  -26.2323  -49.6860 H         1 UNK         0.0600 
    208 H208       -6.0248  -27.1048  -50.8844 H         1 UNK         0.0600 
    209 H209       -6.9407  -25.6766  -51.3500 H         1 UNK         0.0600 
    210 H210       -2.6630  -24.6084  -50.2248 H         1 UNK         0.3000 
    211 H211       -0.8797  -24.8347  -51.5492 H         1 UNK         0.0600 
    212 H212       -1.6258  -22.5706  -52.1237 H         1 UNK         0.0600 
    213 H213       -0.8862  -23.3114  -53.5318 H         1 UNK         0.0600 
    214 H214       -2.6391  -23.1929  -53.4276 H         1 UNK         0.0600 
    215 H215       -2.2650  -27.1742  -51.5906 H         1 UNK         0.3000 
    216 H216       -2.4306  -29.1587  -52.5284 H         1 UNK         0.0600 
    217 H217       -0.9985  -29.8501  -54.3999 H         1 UNK         0.0600 
    218 H218       -0.6449  -28.1819  -54.8188 H         1 UNK         0.0600 
    219 H219       -0.0699  -28.8522  -53.2928 H         1 UNK         0.0600 
    220 H220       -4.5195  -27.5999  -52.7315 H         1 UNK         0.3000 
    221 H221       -6.5578  -27.4631  -53.5166 H         1 UNK         0.0600 
    222 H222       -5.8781  -29.6023  -55.5952 H         1 UNK         0.0600 
    223 H223       -6.3706  -29.9270  -53.9331 H         1 UNK         0.0600 
    224 H224       -7.4799  -29.1406  -55.0419 H         1 UNK         0.0600 
    225 H225       -4.4558  -25.7333  -54.5888 H         1 UNK         0.3000 
    226 H226       -5.6122  -24.7895  -57.1648 H         1 UNK         0.0600 
    227 H227       -3.1317  -24.8626  -56.9559 H         1 UNK         0.0600 
    228 H228       -3.7027  -23.2100  -57.1322 H         1 UNK         0.0600 
    229 H229       -3.2032  -23.8022  -55.5539 H         1 UNK         0.0600 
    230 H230       -5.9738  -24.3839  -53.8049 H         1 UNK         0.3000 
    231 H231       -7.3166  -23.2297  -52.5146 H         1 UNK         0.0600 
    232 H232       -9.1014  -21.7707  -53.2995 H         1 UNK         0.0600 
    233 H233       -9.0165  -23.1623  -54.3663 H         1 UNK         0.0600 
    234 H234       -8.3650  -21.6063  -54.8838 H         1 UNK         0.0600 
    235 H235       -4.5900  -22.3575  -53.4650 H         1 UNK         0.3000 
    236 H236       -3.0140  -20.8381  -53.0277 H         1 UNK         0.0600 
    237 H237       -3.5987  -21.5053  -50.7103 H         1 UNK         0.0600 
    238 H238       -3.0661  -19.8371  -50.7457 H         1 UNK         0.0600 
    239 H239       -4.7833  -20.2134  -50.5959 H         1 UNK         0.0600 
    240 H240       -4.4644  -18.2900  -51.4351 H         1 UNK         0.3000 
    241 H241       -4.4116  -16.5843  -53.8486 H         1 UNK         0.0600 
    242 H242       -6.8877  -18.4785  -52.6214 H         1 UNK         0.3800 
    243 H243       -8.1909  -17.3656  -52.9409 H         1 UNK         0.3800 
    244 H244       -4.4501  -14.6760  -52.2631 H         1 UNK         0.0800 
    245 H245       -4.5537  -15.7695  -50.9101 H         1 UNK         0.0800 
    246 H246       -2.2988  -15.6110  -49.5298 H         1 UNK         0.0800 
    247 H247       -2.6521  -17.2407  -50.0530 H         1 UNK         0.0800 
@<TRIPOS>BOND
     1    1    2 1    
     2    1  127 1    
     3    1  128 1    
     4    1  129 1    
     5    2    3 2    
     6    2    4 am   BACKBONE|DICT|INTERRES
     7    4    5 1    
     8    4  130 1    
     9    5    6 1    
    10    5   65 1    
    11    5  131 1    
    12    6    7 1    
    13    6  132 1    
    14    6  133 1    
    15    7    8 1    
    16    8    9 1    
    17    8  134 1    
    18    8  135 1    
    19    9   10 ar   
    20    9   14 ar   
    21   10   11 ar   
    22   10  136 1    
    23   11   12 ar   
    24   11  126 1    
    25   12   13 ar   
    26   12  137 1    
    27   13   14 ar   
    28   13   15 1    
    29   14  138 1    
    30   15   16 1    
    31   15  139 1    
    32   15  140 1    
    33   16   17 1    
    34   17   18 1    
    35   17  141 1    
    36   17  142 1    
    37   18   19 1    
    38   18   67 1    
    39   18  143 1    
    40   19   20 am   BACKBONE|DICT|INTERRES
    41   19  144 1    
    42   20   21 2    
    43   20   22 1    
    44   22   23 1    
    45   22   24 1    
    46   22  145 1    
    47   23  146 1    
    48   23  147 1    
    49   23  148 1    
    50   24   25 am   BACKBONE|DICT|INTERRES
    51   24  149 1    
    52   25   26 2    
    53   25   27 1    
    54   27   28 1    
    55   27   29 1    
    56   27  150 1    
    57   28  151 1    
    58   28  152 1    
    59   28  153 1    
    60   29   30 am   BACKBONE|DICT|INTERRES
    61   29  154 1    
    62   30   31 2    
    63   30   32 1    
    64   32   33 1    
    65   32   34 1    
    66   32  155 1    
    67   33  156 1    
    68   33  157 1    
    69   33  158 1    
    70   34   35 am   BACKBONE|DICT|INTERRES
    71   34  159 1    
    72   35   36 2    
    73   35   37 1    
    74   37   38 1    
    75   37   39 1    
    76   37  160 1    
    77   38  161 1    
    78   38  162 1    
    79   38  163 1    
    80   39   40 am   BACKBONE|DICT|INTERRES
    81   39  164 1    
    82   40   41 2    
    83   40   42 1    
    84   42   43 1    
    85   42   44 1    
    86   42  165 1    
    87   43  166 1    
    88   43  167 1    
    89   43  168 1    
    90   44   45 am   BACKBONE|DICT|INTERRES
    91   44  169 1    
    92   45   46 2    
    93   45   47 1    
    94   47   48 1    
    95   47   49 1    
    96   47  170 1    
    97   48  171 1    
    98   48  172 1    
    99   48  173 1    
   100   49   50 am   BACKBONE|DICT|INTERRES
   101   49  174 1    
   102   50   51 2    
   103   50   52 1    
   104   52   53 1    
   105   52   54 1    
   106   52  175 1    
   107   53  176 1    
   108   53  177 1    
   109   53  178 1    
   110   54   55 am   BACKBONE|DICT|INTERRES
   111   54  179 1    
   112   55   56 2    
   113   55   57 1    
   114   57   58 1    
   115   57   59 1    
   116   57  180 1    
   117   58  181 1    
   118   58  182 1    
   119   58  183 1    
   120   59   60 am   BACKBONE|DICT|INTERRES
   121   59  184 1    
   122   60   61 2    
   123   60   62 1    
   124   62   63 1    
   125   62   64 1    
   126   62  185 1    
   127   63  186 1    
   128   63  187 1    
   129   63  188 1    
   130   64   65 am   BACKBONE|DICT|INTERRES
   131   64  189 1    
   132   65   66 2    
   133   67   68 2    
   134   67   69 am   BACKBONE|DICT|INTERRES
   135   69   70 1    
   136   69  190 1    
   137   70   71 1    
   138   70   72 1    
   139   70  191 1    
   140   71  192 1    
   141   71  193 1    
   142   71  194 1    
   143   72   73 2    
   144   72   74 am   BACKBONE|DICT|INTERRES
   145   74   75 1    
   146   74  195 1    
   147   75   76 1    
   148   75   77 1    
   149   75  196 1    
   150   76  197 1    
   151   76  198 1    
   152   76  199 1    
   153   77   78 2    
   154   77   79 am   BACKBONE|DICT|INTERRES
   155   79   80 1    
   156   79  200 1    
   157   80   81 1    
   158   80   82 1    
   159   80  201 1    
   160   81  202 1    
   161   81  203 1    
   162   81  204 1    
   163   82   83 2    
   164   82   84 am   BACKBONE|DICT|INTERRES
   165   84   85 1    
   166   84  205 1    
   167   85   86 1    
   168   85   87 1    
   169   85  206 1    
   170   86  207 1    
   171   86  208 1    
   172   86  209 1    
   173   87   88 2    
   174   87   89 am   BACKBONE|DICT|INTERRES
   175   89   90 1    
   176   89  210 1    
   177   90   91 1    
   178   90   92 1    
   179   90  211 1    
   180   91  212 1    
   181   91  213 1    
   182   91  214 1    
   183   92   93 2    
   184   92   94 am   BACKBONE|DICT|INTERRES
   185   94   95 1    
   186   94  215 1    
   187   95   96 1    
   188   95   97 1    
   189   95  216 1    
   190   96  217 1    
   191   96  218 1    
   192   96  219 1    
   193   97   98 2    
   194   97   99 am   BACKBONE|DICT|INTERRES
   195   99  100 1    
   196   99  220 1    
   197  100  101 1    
   198  100  102 1    
   199  100  221 1    
   200  101  222 1    
   201  101  223 1    
   202  101  224 1    
   203  102  103 2    
   204  102  104 am   BACKBONE|DICT|INTERRES
   205  104  105 1    
   206  104  225 1    
   207  105  106 1    
   208  105  107 1    
   209  105  226 1    
   210  106  227 1    
   211  106  228 1    
   212  106  229 1    
   213  107  108 2    
   214  107  109 am   BACKBONE|DICT|INTERRES
   215  109  110 1    
   216  109  230 1    
   217  110  111 1    
   218  110  112 1    
   219  110  231 1    
   220  111  232 1    
   221  111  233 1    
   222  111  234 1    
   223  112  113 2    
   224  112  114 am   BACKBONE|DICT|INTERRES
   225  114  115 1    
   226  114  235 1    
   227  115  116 1    
   228  115  117 1    
   229  115  236 1    
   230  116  237 1    
   231  116  238 1    
   232  116  239 1    
   233  117  118 2    
   234  117  119 am   BACKBONE|DICT|INTERRES
   235  119  120 1    
   236  119  240 1    
   237  120  121 1    
   238  120  124 1    
   239  120  241 1    
   240  121  122 am   BACKBONE|DICT|INTERRES
   241  121  123 2    
   242  122  242 1    
   243  122  243 1    
   244  124  125 1    
   245  124  244 1    
   246  124  245 1    
   247  125  126 1    
   248  126  246 1    
   249  126  247 1    
@<TRIPOS>SUBSTRUCTURE
     1 UNK         1 GROUP             0       ****    0 ROOT    
