@<TRIPOS>MOLECULE
3R540
247   249    1
SMALL
USER_CHARGES


@<TRIPOS>ATOM
      1 CA          6.2151  -11.7113  -50.1863 C.3       0 UNK        -0.1800 
      2 C           4.8493  -11.9910  -49.5753 C.2       0 UNK         0.5000 
      3 O           3.8753  -11.3279  -49.9315 O.2       0 UNK        -0.5000 
      4 N           4.7822  -12.9651  -48.6562 N.am      1 UNK        -0.5000 
      5 CA          3.5728  -13.4192  -47.9499 C.3       1 UNK         0.1400 
      6 C6          2.5213  -14.0912  -48.8761 C.3       23 UNK        -0.0398 
      7 S7          3.2117  -15.5554  -49.7237 S.3       23 UNK        -0.2404 
      8 C8          2.1567  -16.9001  -49.0948 C.3       23 UNK        -0.0205 
      9 C9          0.8089  -16.9303  -49.7988 C.ar      23 UNK        -0.0193 
     10 C10         0.7183  -17.3940  -51.1145 C.ar      23 UNK        -0.1150 
     11 C11        -0.5127  -17.4235  -51.7756 C.ar      23 UNK        -0.0193 
     12 C12        -1.6634  -17.0012  -51.1045 C.ar      23 UNK        -0.1150 
     13 C13        -1.5872  -16.5429  -49.7860 C.ar      23 UNK        -0.0193 
     14 C14        -0.3468  -16.5029  -49.1402 C.ar      23 UNK        -0.1150 
     15 C15        -2.8464  -16.0874  -49.0640 C.3       23 UNK        -0.0205 
     16 S16        -3.7948  -17.4927  -48.3986 S.3       23 UNK        -0.2404 
     17 C17        -2.6522  -18.1300  -47.1258 C.3       23 UNK        -0.0398 
     18 CA         -1.9472  -19.4367  -47.5703 C.3       11 UNK         0.1400 
     19 N          -0.6671  -19.6468  -46.8901 N.am      11 UNK        -0.5000 
     20 C           0.1865  -20.6509  -47.1402 C.2       10 UNK         0.5000 
     21 O           0.0184  -21.4917  -48.0225 O.2       10 UNK        -0.5000 
     22 CA          1.3991  -20.7828  -46.2009 C.3       10 UNK         0.1400 
     23 CB          2.5211  -19.8154  -46.6046 C.3       10 UNK        -0.1800 
     24 N           1.0393  -20.5778  -44.7965 N.am      10 UNK        -0.5000 
     25 C           0.1954  -21.3655  -44.1127 C.2       9 UNK         0.5000 
     26 O          -0.3086  -22.3894  -44.5746 O.2       9 UNK        -0.5000 
     27 CA         -0.1935  -20.9066  -42.6955 C.3       9 UNK         0.1400 
     28 CB          0.8933  -21.2844  -41.6784 C.3       9 UNK        -0.1800 
     29 N          -0.4629  -19.4694  -42.6247 N.am      9 UNK        -0.5000 
     30 C          -1.4608  -18.8520  -43.2742 C.2       8 UNK         0.5000 
     31 O          -2.2984  -19.4412  -43.9567 O.2       8 UNK        -0.5000 
     32 CA         -1.4991  -17.3146  -43.1970 C.3       8 UNK         0.1400 
     33 CB         -2.1449  -16.8456  -41.8855 C.3       8 UNK        -0.1800 
     34 N          -0.1717  -16.7153  -43.3396 N.am      8 UNK        -0.5000 
     35 C           0.5868  -16.8099  -44.4405 C.2       7 UNK         0.5000 
     36 O           0.2189  -17.3563  -45.4781 O.2       7 UNK        -0.5000 
     37 CA          2.0137  -16.2470  -44.3585 C.3       7 UNK         0.1400 
     38 CB          2.0266  -14.7423  -44.6389 C.3       7 UNK        -0.1800 
     39 N           2.6420  -16.5231  -43.0687 N.am      7 UNK        -0.5000 
     40 C           3.0125  -17.7464  -42.6662 C.2       6 UNK         0.5000 
     41 O           2.9242  -18.7531  -43.3691 O.2       6 UNK        -0.5000 
     42 CA          3.5105  -17.8706  -41.2169 C.3       6 UNK         0.1400 
     43 CB          5.0119  -17.5622  -41.1224 C.3       6 UNK        -0.1800 
     44 N           2.7601  -16.9983  -40.3107 N.am      6 UNK        -0.5000 
     45 C           1.4912  -17.2317  -39.9445 C.2       5 UNK         0.5000 
     46 O           0.8507  -18.2156  -40.3137 O.2       5 UNK        -0.5000 
     47 CA          0.8036  -16.1858  -39.0470 C.3       5 UNK         0.1400 
     48 CB          1.0288  -16.5204  -37.5652 C.3       5 UNK        -0.1800 
     49 N           1.2337  -14.8104  -39.2995 N.am      5 UNK        -0.5000 
     50 C           1.0696  -14.1443  -40.4506 C.2       4 UNK         0.5000 
     51 O           0.5434  -14.6367  -41.4492 O.2       4 UNK        -0.5000 
     52 CA          1.6013  -12.6945  -40.5121 C.3       4 UNK         0.1400 
     53 CB          2.0170  -12.1240  -39.1380 C.3       4 UNK        -0.1800 
     54 N           2.7057  -12.5210  -41.4627 N.am      4 UNK        -0.5000 
     55 C           3.8177  -13.2596  -41.5747 C.2       3 UNK         0.5000 
     56 O           4.0105  -14.2914  -40.9288 O.2       3 UNK        -0.5000 
     57 CA          4.9029  -12.7653  -42.5620 C.3       3 UNK         0.1400 
     58 CB          5.8981  -13.8819  -42.9302 C.3       3 UNK        -0.1800 
     59 N           4.4022  -12.1746  -43.8088 N.am      3 UNK        -0.5000 
     60 C           3.8163  -10.9791  -43.9693 C.2       2 UNK         0.5000 
     61 O           3.5056  -10.2488  -43.0281 O.2       2 UNK        -0.5000 
     62 CA          3.5379  -10.5122  -45.4140 C.3       2 UNK         0.1400 
     63 CB          4.3559   -9.2511  -45.7375 C.3       2 UNK        -0.1800 
     64 N           3.8676  -11.5422  -46.4038 N.am      2 UNK        -0.5000 
     65 C           2.9788  -12.3171  -47.0400 C.2       1 UNK         0.5000 
     66 O           1.7594  -12.2045  -46.9083 O.2       1 UNK        -0.5000 
     67 C          -2.8800  -20.6509  -47.4079 C.2       11 UNK         0.5000 
     68 O          -3.3671  -21.1704  -48.4073 O.2       11 UNK        -0.5000 
     69 N          -3.0697  -21.1105  -46.1629 N.am      12 UNK        -0.5000 
     70 CA         -3.8937  -22.2708  -45.8180 C.3       12 UNK         0.1400 
     71 CB         -3.9632  -22.4063  -44.2896 C.3       12 UNK        -0.1800 
     72 C          -3.4159  -23.5863  -46.4620 C.2       12 UNK         0.5000 
     73 O          -4.2472  -24.4244  -46.8123 O.2       12 UNK        -0.5000 
     74 N          -2.0944  -23.7413  -46.6096 N.am      13 UNK        -0.5000 
     75 CA         -1.4707  -24.8852  -47.2666 C.3       13 UNK         0.1400 
     76 CB          0.0055  -24.9687  -46.8471 C.3       13 UNK        -0.1800 
     77 C          -1.6009  -24.8356  -48.8002 C.2       13 UNK         0.5000 
     78 O          -1.9289  -25.8546  -49.4088 O.2       13 UNK        -0.5000 
     79 N          -1.3039  -23.6752  -49.3999 N.am      14 UNK        -0.5000 
     80 CA         -1.1723  -23.5219  -50.8491 C.3       14 UNK         0.1400 
     81 CB         -0.0944  -22.4686  -51.1403 C.3       14 UNK        -0.1800 
     82 C          -2.4803  -23.1516  -51.5675 C.2       14 UNK         0.5000 
     83 O          -2.6338  -23.5157  -52.7352 O.2       14 UNK        -0.5000 
     84 N          -3.3845  -22.4303  -50.8958 N.am      15 UNK        -0.5000 
     85 CA         -4.5968  -21.8673  -51.4791 C.3       15 UNK         0.1400 
     86 CB         -4.2752  -20.5065  -52.1331 C.3       15 UNK        -0.1800 
     87 C          -5.7217  -21.8075  -50.4314 C.2       15 UNK         0.5000 
     88 O          -6.2174  -22.8571  -50.0225 O.2       15 UNK        -0.5000 
     89 N          -6.1312  -20.5856  -50.0525 N.am      16 UNK        -0.5000 
     90 CA         -7.2499  -20.2534  -49.1616 C.3       16 UNK         0.1400 
     91 CB         -6.9699  -20.7222  -47.7196 C.3       16 UNK        -0.1800 
     92 C          -8.6055  -20.7397  -49.7182 C.2       16 UNK         0.5000 
     93 O          -9.4127  -21.3141  -48.9855 O.2       16 UNK        -0.5000 
     94 N          -8.8099  -20.5004  -51.0243 N.am      17 UNK        -0.5000 
     95 CA         -9.9763  -20.8834  -51.8336 C.3       17 UNK         0.1400 
     96 CB        -11.2501  -20.1607  -51.3462 C.3       17 UNK        -0.1800 
     97 C         -10.1641  -22.4119  -51.9654 C.2       17 UNK         0.5000 
     98 O         -11.2864  -22.8844  -52.1558 O.2       17 UNK        -0.5000 
     99 N          -9.0572  -23.1551  -51.8776 N.am      18 UNK        -0.5000 
    100 CA        -8.9725  -24.6065  -51.9792 C.3       18 UNK         0.1400 
    101 CB        -9.4096  -25.2477  -50.6440 C.3       18 UNK        -0.1800 
    102 C         -7.5354  -24.9798  -52.3887 C.2       18 UNK         0.5000 
    103 O         -6.8166  -24.1338  -52.9300 O.2       18 UNK        -0.5000 
    104 N         -7.1405  -26.2314  -52.1146 N.am      19 UNK        -0.5000 
    105 CA        -5.8014  -26.7945  -52.3083 C.3       19 UNK         0.1400 
    106 CB        -4.8225  -26.1867  -51.2783 C.3       19 UNK        -0.1800 
    107 C         -5.3262  -26.6947  -53.7747 C.2       19 UNK         0.5000 
    108 O         -6.0767  -27.0721  -54.6771 O.2       19 UNK        -0.5000 
    109 N         -4.1002  -26.2039  -53.9900 N.am      20 UNK        -0.5000 
    110 CA        -3.4963  -26.0094  -55.3080 C.3       20 UNK         0.1400 
    111 CB        -1.9723  -26.1621  -55.1668 C.3       20 UNK        -0.1800 
    112 C         -3.8376  -24.6409  -55.9285 C.2       20 UNK         0.5000 
    113 O         -3.4620  -24.3991  -57.0768 O.2       20 UNK        -0.5000 
    114 N         -4.4781  -23.7496  -55.1541 N.am      21 UNK        -0.5000 
    115 CA        -4.7542  -22.3406  -55.4646 C.3       21 UNK         0.1400 
    116 CB        -5.8383  -22.2332  -56.5559 C.3       21 UNK        -0.1800 
    117 C         -3.4748  -21.5372  -55.8017 C.2       21 UNK         0.5000 
    118 O         -3.5175  -20.6272  -56.6313 O.2       21 UNK        -0.5000 
    119 N         -2.3539  -21.9237  -55.1744 N.am      22 UNK        -0.5000 
    120 CA        -0.9803  -21.4709  -55.4596 C.3       22 UNK         0.1400 
    121 C         -0.4550  -21.8304  -56.8869 C.2       22 UNK         0.5000 
    122 N         -1.0810  -22.7387  -57.6272 N.am      22 UNK        -0.7600 
    123 O          0.5652  -21.3059  -57.3257 O.2       22 UNK        -0.5000 
    124 C124       -0.7348  -19.9814  -55.0844 C.3       23 UNK        -0.0398 
    125 S125       -0.8979  -19.6888  -53.2936 S.3       23 UNK        -0.2404 
    126 C126       -0.5943  -17.9015  -53.2161 C.3       23 UNK        -0.0205 
    127 H127        6.9840  -12.3698  -49.7813 H         1 UNK         0.0600 
    128 H128        6.5109  -10.6811  -49.9882 H         1 UNK         0.0600 
    129 H129        6.1791  -11.8555  -51.2661 H         1 UNK         0.0600 
    130 H130        5.6255  -13.4744  -48.4305 H         1 UNK         0.3000 
    131 H131        3.9145  -14.1894  -47.2566 H         1 UNK         0.0600 
    132 H132        2.1581  -13.3897  -49.6280 H         1 UNK         0.0800 
    133 H133        1.6445  -14.3972  -48.3037 H         1 UNK         0.0800 
    134 H134        2.6644  -17.8514  -49.2592 H         1 UNK         0.0800 
    135 H135        2.0341  -16.8031  -48.0148 H         1 UNK         0.0800 
    136 H136        1.6109  -17.7239  -51.6274 H         1 UNK         0.1150 
    137 H137       -2.6199  -17.0326  -51.6072 H         1 UNK         0.1150 
    138 H138       -0.2805  -16.1466  -48.1217 H         1 UNK         0.1150 
    139 H139       -2.5999  -15.3961  -48.2565 H         1 UNK         0.0800 
    140 H140       -3.4806  -15.5309  -49.7556 H         1 UNK         0.0800 
    141 H141       -1.9185  -17.3564  -46.9074 H         1 UNK         0.0800 
    142 H142       -3.2055  -18.2656  -46.1954 H         1 UNK         0.0800 
    143 H143       -1.7050  -19.3505  -48.6323 H         1 UNK         0.0600 
    144 H144       -0.4142  -18.9617  -46.1828 H         1 UNK         0.3000 
    145 H145        1.7824  -21.8006  -46.2984 H         1 UNK         0.0600 
    146 H146        3.4060  -19.9579  -45.9840 H         1 UNK         0.0600 
    147 H147        2.8198  -19.9764  -47.6411 H         1 UNK         0.0600 
    148 H148        2.2120  -18.7757  -46.5100 H         1 UNK         0.0600 
    149 H149        1.4576  -19.7809  -44.3280 H         1 UNK         0.3000 
    150 H150       -1.1110  -21.4299  -42.4187 H         1 UNK         0.0600 
    151 H151        1.0935  -22.3563  -41.7014 H         1 UNK         0.0600 
    152 H152        0.5867  -21.0324  -40.6631 H         1 UNK         0.0600 
    153 H153        1.8329  -20.7703  -41.8808 H         1 UNK         0.0600 
    154 H154        0.1489  -18.9207  -42.0287 H         1 UNK         0.3000 
    155 H155       -2.1146  -16.9551  -44.0242 H         1 UNK         0.0600 
    156 H156       -3.1655  -17.2204  -41.7998 H         1 UNK         0.0600 
    157 H157       -2.1911  -15.7576  -41.8342 H         1 UNK         0.0600 
    158 H158       -1.5934  -17.1994  -41.0152 H         1 UNK         0.0600 
    159 H159        0.1780  -16.1764  -42.5525 H         1 UNK         0.3000 
    160 H160        2.6043  -16.7349  -45.1367 H         1 UNK         0.0600 
    161 H161        1.5363  -14.1702  -43.8517 H         1 UNK         0.0600 
    162 H162        1.5073  -14.5238  -45.5721 H         1 UNK         0.0600 
    163 H163        3.0475  -14.3791  -44.7366 H         1 UNK         0.0600 
    164 H164        2.7069  -15.7595  -42.4096 H         1 UNK         0.3000 
    165 H165        3.3614  -18.9052  -40.9001 H         1 UNK         0.0600 
    166 H166        5.3724  -17.6649  -40.0988 H         1 UNK         0.0600 
    167 H167        5.5883  -18.2511  -41.7411 H         1 UNK         0.0600 
    168 H168        5.2426  -16.5522  -41.4597 H         1 UNK         0.0600 
    169 H169        3.2048  -16.1294  -40.0380 H         1 UNK         0.3000 
    170 H170       -0.2684  -16.2363  -39.2457 H         1 UNK         0.0600 
    171 H171        0.6940  -17.5336  -37.3385 H         1 UNK         0.0600 
    172 H172        2.0831  -16.4543  -37.2933 H         1 UNK         0.0600 
    173 H173        0.4710  -15.8432  -36.9181 H         1 UNK         0.0600 
    174 H174        1.7015  -14.3388  -38.5394 H         1 UNK         0.3000 
    175 H175        0.7749  -12.0881  -40.8851 H         1 UNK         0.0600 
    176 H176        2.8769  -12.6480  -38.7188 H         1 UNK         0.0600 
    177 H177        2.2869  -11.0712  -39.2228 H         1 UNK         0.0600 
    178 H178        1.1996  -12.1841  -38.4182 H         1 UNK         0.0600 
    179 H179        2.6674  -11.6819  -42.0328 H         1 UNK         0.3000 
    180 H180        5.4611  -11.9904  -42.0331 H         1 UNK         0.0600 
    181 H181        5.4013  -14.7119  -43.4345 H         1 UNK         0.0600 
    182 H182        6.3893  -14.2824  -42.0424 H         1 UNK         0.0600 
    183 H183        6.6847  -13.5108  -43.5873 H         1 UNK         0.0600 
    184 H184        4.5868  -12.7079  -44.6435 H         1 UNK         0.3000 
    185 H185        2.4788  -10.2531  -45.4711 H         1 UNK         0.0600 
    186 H186        4.1162   -8.4395  -45.0493 H         1 UNK         0.0600 
    187 H187        5.4284   -9.4364  -45.6668 H         1 UNK         0.0600 
    188 H188        4.1433   -8.8932  -46.7452 H         1 UNK         0.0600 
    189 H189        4.8485  -11.6716  -46.6085 H         1 UNK         0.3000 
    190 H190       -2.6462  -20.6087  -45.3857 H         1 UNK         0.3000 
    191 H191       -4.9023  -22.0795  -46.1851 H         1 UNK         0.0600 
    192 H192       -4.3798  -21.5084  -43.8327 H         1 UNK         0.0600 
    193 H193       -4.5984  -23.2442  -43.9997 H         1 UNK         0.0600 
    194 H194       -2.9772  -22.5754  -43.8562 H         1 UNK         0.0600 
    195 H195       -1.4758  -23.0289  -46.2387 H         1 UNK         0.3000 
    196 H196       -1.9663  -25.7945  -46.9195 H         1 UNK         0.0600 
    197 H197        0.4957  -25.8257  -47.3105 H         1 UNK         0.0600 
    198 H198        0.1013  -25.0829  -45.7671 H         1 UNK         0.0600 
    199 H199        0.5600  -24.0757  -47.1372 H         1 UNK         0.0600 
    200 H200       -1.0165  -22.8812  -48.8328 H         1 UNK         0.3000 
    201 H201       -0.8259  -24.4653  -51.2769 H         1 UNK         0.0600 
    202 H202        0.8541  -22.7322  -50.6723 H         1 UNK         0.0600 
    203 H203       -0.3863  -21.4836  -50.7727 H         1 UNK         0.0600 
    204 H204        0.0855  -22.3810  -52.2122 H         1 UNK         0.0600 
    205 H205       -3.2194  -22.1769  -49.9226 H         1 UNK         0.3000 
    206 H206       -4.9552  -22.5370  -52.2597 H         1 UNK         0.0600 
    207 H207       -3.5756  -20.6331  -52.9554 H         1 UNK         0.0600 
    208 H208       -5.1672  -20.0395  -52.5523 H         1 UNK         0.0600 
    209 H209       -3.8225  -19.8103  -51.4252 H         1 UNK         0.0600 
    210 H210       -5.6298  -19.7931  -50.4280 H         1 UNK         0.3000 
    211 H211       -7.3088  -19.1643  -49.1389 H         1 UNK         0.0600 
    212 H212       -6.9065  -21.8083  -47.6497 H         1 UNK         0.0600 
    213 H213       -7.7583  -20.3955  -47.0408 H         1 UNK         0.0600 
    214 H214       -6.0336  -20.3031  -47.3518 H         1 UNK         0.0600 
    215 H215       -8.0758  -20.0238  -51.5285 H         1 UNK         0.3000 
    216 H216       -9.7692  -20.5257  -52.8432 H         1 UNK         0.0600 
    217 H217      -12.0771  -20.3144  -52.0404 H         1 UNK         0.0600 
    218 H218      -11.0892  -19.0854  -51.2701 H         1 UNK         0.0600 
    219 H219      -11.5740  -20.5221  -50.3699 H         1 UNK         0.0600 
    220 H220       -8.1624  -22.6995  -51.7560 H         1 UNK         0.3000 
    221 H221       -9.6352  -24.9463  -52.7774 H         1 UNK         0.0600 
    222 H222       -8.7195  -24.9942  -49.8377 H         1 UNK         0.0600 
    223 H223      -10.4024  -24.9098  -50.3467 H         1 UNK         0.0600 
    224 H224       -9.4572  -26.3344  -50.7154 H         1 UNK         0.0600 
    225 H225       -7.8168  -26.8610  -51.7073 H         1 UNK         0.3000 
    226 H226       -5.8819  -27.8609  -52.0933 H         1 UNK         0.0600 
    227 H227       -5.1884  -26.3289  -50.2613 H         1 UNK         0.0600 
    228 H228       -3.8407  -26.6588  -51.3284 H         1 UNK         0.0600 
    229 H229       -4.6901  -25.1152  -51.4257 H         1 UNK         0.0600 
    230 H230       -3.5599  -25.8768  -53.2006 H         1 UNK         0.3000 
    231 H231       -3.8544  -26.7803  -55.9935 H         1 UNK         0.0600 
    232 H232       -1.5505  -25.4025  -54.5073 H         1 UNK         0.0600 
    233 H233       -1.4762  -26.0677  -56.1337 H         1 UNK         0.0600 
    234 H234       -1.7095  -27.1402  -54.7635 H         1 UNK         0.0600 
    235 H235       -4.7380  -24.0461  -54.2222 H         1 UNK         0.3000 
    236 H236       -5.1636  -21.8992  -54.5566 H         1 UNK         0.0600 
    237 H237       -6.7276  -22.8012  -56.2821 H         1 UNK         0.0600 
    238 H238       -6.1479  -21.1976  -56.7003 H         1 UNK         0.0600 
    239 H239       -5.4839  -22.6065  -57.5171 H         1 UNK         0.0600 
    240 H240       -2.4356  -22.6454  -54.4635 H         1 UNK         0.3000 
    241 H241       -0.3502  -22.0697  -54.8012 H         1 UNK         0.0600 
    242 H242       -0.7151  -22.9620  -58.5389 H         1 UNK         0.3800 
    243 H243       -1.9268  -23.1991  -57.3065 H         1 UNK         0.3800 
    244 H244        0.2732  -19.6714  -55.3639 H         1 UNK         0.0800 
    245 H245       -1.4174  -19.3247  -55.6247 H         1 UNK         0.0800 
    246 H246        0.3338  -17.6652  -53.7390 H         1 UNK         0.0800 
    247 H247       -1.3909  -17.3750  -53.7439 H         1 UNK         0.0800 
@<TRIPOS>BOND
     1    1    2 1    
     2    1  127 1    
     3    1  128 1    
     4    1  129 1    
     5    2    3 2    
     6    2    4 am   BACKBONE|DICT|INTERRES
     7    4    5 1    
     8    4  130 1    
     9    5    6 1    
    10    5   65 1    
    11    5  131 1    
    12    6    7 1    
    13    6  132 1    
    14    6  133 1    
    15    7    8 1    
    16    8    9 1    
    17    8  134 1    
    18    8  135 1    
    19    9   10 ar   
    20    9   14 ar   
    21   10   11 ar   
    22   10  136 1    
    23   11   12 ar   
    24   11  126 1    
    25   12   13 ar   
    26   12  137 1    
    27   13   14 ar   
    28   13   15 1    
    29   14  138 1    
    30   15   16 1    
    31   15  139 1    
    32   15  140 1    
    33   16   17 1    
    34   17   18 1    
    35   17  141 1    
    36   17  142 1    
    37   18   19 1    
    38   18   67 1    
    39   18  143 1    
    40   19   20 am   BACKBONE|DICT|INTERRES
    41   19  144 1    
    42   20   21 2    
    43   20   22 1    
    44   22   23 1    
    45   22   24 1    
    46   22  145 1    
    47   23  146 1    
    48   23  147 1    
    49   23  148 1    
    50   24   25 am   BACKBONE|DICT|INTERRES
    51   24  149 1    
    52   25   26 2    
    53   25   27 1    
    54   27   28 1    
    55   27   29 1    
    56   27  150 1    
    57   28  151 1    
    58   28  152 1    
    59   28  153 1    
    60   29   30 am   BACKBONE|DICT|INTERRES
    61   29  154 1    
    62   30   31 2    
    63   30   32 1    
    64   32   33 1    
    65   32   34 1    
    66   32  155 1    
    67   33  156 1    
    68   33  157 1    
    69   33  158 1    
    70   34   35 am   BACKBONE|DICT|INTERRES
    71   34  159 1    
    72   35   36 2    
    73   35   37 1    
    74   37   38 1    
    75   37   39 1    
    76   37  160 1    
    77   38  161 1    
    78   38  162 1    
    79   38  163 1    
    80   39   40 am   BACKBONE|DICT|INTERRES
    81   39  164 1    
    82   40   41 2    
    83   40   42 1    
    84   42   43 1    
    85   42   44 1    
    86   42  165 1    
    87   43  166 1    
    88   43  167 1    
    89   43  168 1    
    90   44   45 am   BACKBONE|DICT|INTERRES
    91   44  169 1    
    92   45   46 2    
    93   45   47 1    
    94   47   48 1    
    95   47   49 1    
    96   47  170 1    
    97   48  171 1    
    98   48  172 1    
    99   48  173 1    
   100   49   50 am   BACKBONE|DICT|INTERRES
   101   49  174 1    
   102   50   51 2    
   103   50   52 1    
   104   52   53 1    
   105   52   54 1    
   106   52  175 1    
   107   53  176 1    
   108   53  177 1    
   109   53  178 1    
   110   54   55 am   BACKBONE|DICT|INTERRES
   111   54  179 1    
   112   55   56 2    
   113   55   57 1    
   114   57   58 1    
   115   57   59 1    
   116   57  180 1    
   117   58  181 1    
   118   58  182 1    
   119   58  183 1    
   120   59   60 am   BACKBONE|DICT|INTERRES
   121   59  184 1    
   122   60   61 2    
   123   60   62 1    
   124   62   63 1    
   125   62   64 1    
   126   62  185 1    
   127   63  186 1    
   128   63  187 1    
   129   63  188 1    
   130   64   65 am   BACKBONE|DICT|INTERRES
   131   64  189 1    
   132   65   66 2    
   133   67   68 2    
   134   67   69 am   BACKBONE|DICT|INTERRES
   135   69   70 1    
   136   69  190 1    
   137   70   71 1    
   138   70   72 1    
   139   70  191 1    
   140   71  192 1    
   141   71  193 1    
   142   71  194 1    
   143   72   73 2    
   144   72   74 am   BACKBONE|DICT|INTERRES
   145   74   75 1    
   146   74  195 1    
   147   75   76 1    
   148   75   77 1    
   149   75  196 1    
   150   76  197 1    
   151   76  198 1    
   152   76  199 1    
   153   77   78 2    
   154   77   79 am   BACKBONE|DICT|INTERRES
   155   79   80 1    
   156   79  200 1    
   157   80   81 1    
   158   80   82 1    
   159   80  201 1    
   160   81  202 1    
   161   81  203 1    
   162   81  204 1    
   163   82   83 2    
   164   82   84 am   BACKBONE|DICT|INTERRES
   165   84   85 1    
   166   84  205 1    
   167   85   86 1    
   168   85   87 1    
   169   85  206 1    
   170   86  207 1    
   171   86  208 1    
   172   86  209 1    
   173   87   88 2    
   174   87   89 am   BACKBONE|DICT|INTERRES
   175   89   90 1    
   176   89  210 1    
   177   90   91 1    
   178   90   92 1    
   179   90  211 1    
   180   91  212 1    
   181   91  213 1    
   182   91  214 1    
   183   92   93 2    
   184   92   94 am   BACKBONE|DICT|INTERRES
   185   94   95 1    
   186   94  215 1    
   187   95   96 1    
   188   95   97 1    
   189   95  216 1    
   190   96  217 1    
   191   96  218 1    
   192   96  219 1    
   193   97   98 2    
   194   97   99 am   BACKBONE|DICT|INTERRES
   195   99  100 1    
   196   99  220 1    
   197  100  101 1    
   198  100  102 1    
   199  100  221 1    
   200  101  222 1    
   201  101  223 1    
   202  101  224 1    
   203  102  103 2    
   204  102  104 am   BACKBONE|DICT|INTERRES
   205  104  105 1    
   206  104  225 1    
   207  105  106 1    
   208  105  107 1    
   209  105  226 1    
   210  106  227 1    
   211  106  228 1    
   212  106  229 1    
   213  107  108 2    
   214  107  109 am   BACKBONE|DICT|INTERRES
   215  109  110 1    
   216  109  230 1    
   217  110  111 1    
   218  110  112 1    
   219  110  231 1    
   220  111  232 1    
   221  111  233 1    
   222  111  234 1    
   223  112  113 2    
   224  112  114 am   BACKBONE|DICT|INTERRES
   225  114  115 1    
   226  114  235 1    
   227  115  116 1    
   228  115  117 1    
   229  115  236 1    
   230  116  237 1    
   231  116  238 1    
   232  116  239 1    
   233  117  118 2    
   234  117  119 am   BACKBONE|DICT|INTERRES
   235  119  120 1    
   236  119  240 1    
   237  120  121 1    
   238  120  124 1    
   239  120  241 1    
   240  121  122 am   BACKBONE|DICT|INTERRES
   241  121  123 2    
   242  122  242 1    
   243  122  243 1    
   244  124  125 1    
   245  124  244 1    
   246  124  245 1    
   247  125  126 1    
   248  126  246 1    
   249  126  247 1    
@<TRIPOS>SUBSTRUCTURE
     1 UNK         1 GROUP             0       ****    0 ROOT    
