@<TRIPOS>MOLECULE
3R540
247   249    1
SMALL
USER_CHARGES


@<TRIPOS>ATOM
      1 CA         -3.6301  -11.9528  -48.1239 C.3       0 UNK        -0.1800 
      2 C          -2.4427  -12.8323  -47.7625 C.2       0 UNK         0.5000 
      3 O          -1.5264  -12.3781  -47.0790 O.2       0 UNK        -0.5000 
      4 N          -2.4701  -14.0961  -48.1979 N.am      1 UNK        -0.5000 
      5 CA         -1.4878  -15.1254  -47.8380 C.3       1 UNK         0.1400 
      6 C6         -1.3881  -16.2358  -48.9089 C.3       23 UNK        -0.0398 
      7 S7         -0.6721  -15.6115  -50.4631 S.3       23 UNK        -0.2404 
      8 C8         -1.2330  -16.8695  -51.6546 C.3       23 UNK        -0.0205 
      9 C9         -0.8475  -18.2920  -51.2668 C.ar      23 UNK        -0.0193 
     10 C10        -1.8322  -19.2801  -51.1836 C.ar      23 UNK        -0.1150 
     11 C11        -1.4921  -20.6010  -50.8833 C.ar      23 UNK        -0.0193 
     12 C12        -0.1568  -20.9269  -50.6286 C.ar      23 UNK        -0.1150 
     13 C13         0.8384  -19.9455  -50.6943 C.ar      23 UNK        -0.0193 
     14 C14         0.4875  -18.6337  -51.0276 C.ar      23 UNK        -0.1150 
     15 C15         2.2961  -20.3067  -50.4374 C.3       23 UNK        -0.0205 
     16 S16         2.9585  -19.5574  -48.9106 S.3       23 UNK        -0.2404 
     17 C17         1.9894  -20.4178  -47.6314 C.3       23 UNK        -0.0398 
     18 CA          2.6201  -21.7801  -47.2180 C.3       11 UNK         0.1400 
     19 N           3.2454  -21.7149  -45.8924 N.am      11 UNK        -0.5000 
     20 C           4.0929  -22.6303  -45.4026 C.2       10 UNK         0.5000 
     21 O           4.5007  -23.5986  -46.0451 O.2       10 UNK        -0.5000 
     22 CA          4.5327  -22.4532  -43.9368 C.3       10 UNK         0.1400 
     23 CB          5.7095  -21.4718  -43.8285 C.3       10 UNK        -0.1800 
     24 N           3.4368  -22.0122  -43.0705 N.am      10 UNK        -0.5000 
     25 C           2.3674  -22.7626  -42.7657 C.2       9 UNK         0.5000 
     26 O           2.2133  -23.9217  -43.1501 O.2       9 UNK        -0.5000 
     27 CA          1.2680  -22.1045  -41.9135 C.3       9 UNK         0.1400 
     28 CB          1.6026  -22.2244  -40.4194 C.3       9 UNK        -0.1800 
     29 N           1.0419  -20.7002  -42.2551 N.am      9 UNK        -0.5000 
     30 C           0.5654  -20.2659  -43.4307 C.2       8 UNK         0.5000 
     31 O           0.2306  -21.0106  -44.3519 O.2       8 UNK        -0.5000 
     32 CA          0.5056  -18.7422  -43.6334 C.3       8 UNK         0.1400 
     33 CB         -0.7081  -18.1437  -42.9106 C.3       8 UNK        -0.1800 
     34 N           1.7238  -18.0721  -43.1831 N.am      8 UNK        -0.5000 
     35 C           2.9506  -18.3013  -43.6709 C.2       7 UNK         0.5000 
     36 O           3.1906  -19.0927  -44.5826 O.2       7 UNK        -0.5000 
     37 CA          4.1093  -17.5622  -42.9842 C.3       7 UNK         0.1400 
     38 CB          4.2496  -16.1326  -43.5286 C.3       7 UNK        -0.1800 
     39 N           3.9295  -17.5240  -41.5333 N.am      7 UNK        -0.5000 
     40 C           4.1101  -18.5764  -40.7239 C.2       6 UNK         0.5000 
     41 O           4.4882  -19.6814  -41.1142 O.2       6 UNK        -0.5000 
     42 CA          3.7820  -18.3659  -39.2331 C.3       6 UNK         0.1400 
     43 CB          4.9591  -17.6963  -38.5081 C.3       6 UNK        -0.1800 
     44 N           2.5673  -17.5757  -39.0191 N.am      6 UNK        -0.5000 
     45 C           1.3360  -17.9874  -39.3506 C.2       5 UNK         0.5000 
     46 O           1.0988  -19.0814  -39.8602 O.2       5 UNK        -0.5000 
     47 CA          0.1731  -17.0058  -39.1074 C.3       5 UNK         0.1400 
     48 CB         -0.3303  -17.1265  -37.6611 C.3       5 UNK        -0.1800 
     49 N           0.4502  -15.5951  -39.4043 N.am      5 UNK        -0.5000 
     50 C           1.0104  -15.1068  -40.5200 C.2       4 UNK         0.5000 
     51 O           1.5087  -15.8056  -41.4026 O.2       4 UNK        -0.5000 
     52 CA          0.9574  -13.5759  -40.6792 C.3       4 UNK         0.1400 
     53 CB          2.1932  -13.0099  -41.4101 C.3       4 UNK        -0.1800 
     54 N          -0.2983  -13.1683  -41.3239 N.am      4 UNK        -0.5000 
     55 C          -0.7074  -13.4567  -42.5695 C.2       3 UNK         0.5000 
     56 O          -0.0078  -13.9977  -43.4271 O.2       3 UNK        -0.5000 
     57 CA         -2.1465  -13.0374  -42.9263 C.3       3 UNK         0.1400 
     58 CB         -2.1676  -11.6243  -43.5289 C.3       3 UNK        -0.1800 
     59 N          -2.7379  -13.9714  -43.8840 N.am      3 UNK        -0.5000 
     60 C          -3.1556  -15.2085  -43.5806 C.2       2 UNK         0.5000 
     61 O          -3.2190  -15.6388  -42.4283 O.2       2 UNK        -0.5000 
     62 CA         -3.5786  -16.1241  -44.7495 C.3       2 UNK         0.1400 
     63 CB         -5.1075  -16.2513  -44.8187 C.3       2 UNK        -0.1800 
     64 N          -3.0888  -15.6763  -46.0534 N.am      2 UNK        -0.5000 
     65 C          -1.8121  -15.7365  -46.4609 C.2       1 UNK         0.5000 
     66 O          -0.9098  -16.2476  -45.8007 O.2       1 UNK        -0.5000 
     67 C           1.5573  -22.8953  -47.3158 C.2       11 UNK         0.5000 
     68 O           1.3271  -23.4038  -48.4129 O.2       11 UNK        -0.5000 
     69 N           0.8918  -23.1937  -46.1883 N.am      12 UNK        -0.5000 
     70 CA         -0.4010  -23.8821  -46.0856 C.3       12 UNK         0.1400 
     71 CB         -0.3118  -25.3475  -46.5599 C.3       12 UNK        -0.1800 
     72 C          -1.4918  -23.0566  -46.8024 C.2       12 UNK         0.5000 
     73 O          -2.2225  -23.5715  -47.6505 O.2       12 UNK        -0.5000 
     74 N          -1.5051  -21.7545  -46.4873 N.am      13 UNK        -0.5000 
     75 CA         -2.2751  -20.7182  -47.1640 C.3       13 UNK         0.1400 
     76 CB         -1.8079  -19.3455  -46.6641 C.3       13 UNK        -0.1800 
     77 C          -3.7969  -20.8500  -46.9969 C.2       13 UNK         0.5000 
     78 O          -4.2783  -21.3941  -46.0004 O.2       13 UNK        -0.5000 
     79 N          -4.5153  -20.2797  -47.9663 N.am      14 UNK        -0.5000 
     80 CA         -5.9601  -20.1287  -47.9858 C.3       14 UNK         0.1400 
     81 CB         -6.5977  -21.3057  -48.7441 C.3       14 UNK        -0.1800 
     82 C          -6.2340  -18.7911  -48.6786 C.2       14 UNK         0.5000 
     83 O          -5.8833  -18.6490  -49.8529 O.2       14 UNK        -0.5000 
     84 N          -6.8054  -17.8338  -47.9323 N.am      15 UNK        -0.5000 
     85 CA         -7.1487  -16.4680  -48.3488 C.3       15 UNK         0.1400 
     86 CB         -8.4501  -16.4943  -49.1815 C.3       15 UNK        -0.1800 
     87 C          -5.9693  -15.7599  -49.0519 C.2       15 UNK         0.5000 
     88 O          -4.9691  -15.4544  -48.3999 O.2       15 UNK        -0.5000 
     89 N          -6.0902  -15.5658  -50.3677 N.am      16 UNK        -0.5000 
     90 CA         -5.0261  -15.1571  -51.2768 C.3       16 UNK         0.1400 
     91 CB         -5.0803  -13.6339  -51.4945 C.3       16 UNK        -0.1800 
     92 C          -5.1560  -15.9689  -52.5802 C.2       16 UNK         0.5000 
     93 O          -5.0850  -15.4017  -53.6719 O.2       16 UNK        -0.5000 
     94 N          -5.3985  -17.2815  -52.4396 N.am      17 UNK        -0.5000 
     95 CA         -5.5687  -18.2360  -53.5383 C.3       17 UNK         0.1400 
     96 CB         -5.9825  -19.5946  -52.9483 C.3       17 UNK        -0.1800 
     97 C          -4.3080  -18.4025  -54.4095 C.2       17 UNK         0.5000 
     98 O          -3.1949  -18.1310  -53.9562 O.2       17 UNK        -0.5000 
     99 N          -4.5051  -18.8830  -55.6430 N.am      18 UNK        -0.5000 
    100 CA        -3.4239  -19.2918  -56.5370 C.3       18 UNK         0.1400 
    101 CB        -3.9806  -19.4610  -57.9593 C.3       18 UNK        -0.1800 
    102 C         -2.8036  -20.6099  -56.0466 C.2       18 UNK         0.5000 
    103 O         -3.5479  -21.5383  -55.7221 O.2       18 UNK        -0.5000 
    104 N         -1.4660  -20.6884  -56.0439 N.am      19 UNK        -0.5000 
    105 CA        -0.6914  -21.8380  -55.5595 C.3       19 UNK         0.1400 
    106 CB         0.8074  -21.5217  -55.6700 C.3       19 UNK        -0.1800 
    107 C         -1.0217  -23.1626  -56.2749 C.2       19 UNK         0.5000 
    108 O         -1.0092  -24.2196  -55.6443 O.2       19 UNK        -0.5000 
    109 N         -1.3579  -23.0732  -57.5684 N.am      20 UNK        -0.5000 
    110 CA        -1.8034  -24.1948  -58.3946 C.3       20 UNK         0.1400 
    111 CB        -1.7784  -23.7618  -59.8688 C.3       20 UNK        -0.1800 
    112 C         -3.2006  -24.7279  -58.0150 C.2       20 UNK         0.5000 
    113 O         -3.5004  -25.8823  -58.3227 O.2       20 UNK        -0.5000 
    114 N         -4.0293  -23.8928  -57.3722 N.am      21 UNK        -0.5000 
    115 CA        -5.3711  -24.2502  -56.9204 C.3       21 UNK         0.1400 
    116 CB        -6.2993  -23.0280  -57.0248 C.3       21 UNK        -0.1800 
    117 C         -5.3428  -24.8037  -55.4875 C.2       21 UNK         0.5000 
    118 O         -5.9274  -25.8600  -55.2419 O.2       21 UNK        -0.5000 
    119 N         -4.6761  -24.0896  -54.5693 N.am      22 UNK        -0.5000 
    120 CA        -4.5775  -24.4771  -53.1506 C.3       22 UNK         0.1400 
    121 C         -3.5171  -25.5723  -52.8373 C.2       22 UNK         0.5000 
    122 N         -2.5246  -25.8108  -53.6856 N.am      22 UNK        -0.7600 
    123 O         -3.6124  -26.2384  -51.8102 O.2       22 UNK        -0.5000 
    124 C124       -4.4548  -23.2514  -52.2106 C.3       23 UNK        -0.0398 
    125 S125       -2.9851  -22.2202  -52.5254 S.3       23 UNK        -0.2404 
    126 C126       -2.5724  -21.6699  -50.8477 C.3       23 UNK        -0.0205 
    127 H127       -3.8292  -11.2370  -47.3261 H         1 UNK         0.0600 
    128 H128       -4.5322  -12.5467  -48.2716 H         1 UNK         0.0600 
    129 H129       -3.4239  -11.3982  -49.0392 H         1 UNK         0.0600 
    130 H130       -3.2947  -14.4344  -48.6826 H         1 UNK         0.3000 
    131 H131       -0.5042  -14.6585  -47.7478 H         1 UNK         0.0600 
    132 H132       -0.7473  -17.0501  -48.5645 H         1 UNK         0.0800 
    133 H133       -2.3691  -16.6727  -49.1059 H         1 UNK         0.0800 
    134 H134       -2.3133  -16.7842  -51.7674 H         1 UNK         0.0800 
    135 H135       -0.8079  -16.6462  -52.6338 H         1 UNK         0.0800 
    136 H136       -2.8641  -19.0304  -51.3887 H         1 UNK         0.1150 
    137 H137        0.1078  -21.9477  -50.3900 H         1 UNK         0.1150 
    138 H138        1.2552  -17.8757  -51.0957 H         1 UNK         0.1150 
    139 H139        2.4237  -21.3894  -50.3892 H         1 UNK         0.0800 
    140 H140        2.8969  -19.9678  -51.2825 H         1 UNK         0.0800 
    141 H141        1.8999  -19.7499  -46.7743 H         1 UNK         0.0800 
    142 H142        0.9668  -20.5167  -47.9995 H         1 UNK         0.0800 
    143 H143        3.4017  -22.0478  -47.9324 H         1 UNK         0.0600 
    144 H144        3.0264  -20.9029  -45.3221 H         1 UNK         0.3000 
    145 H145        4.8739  -23.4253  -43.5747 H         1 UNK         0.0600 
    146 H146        6.0610  -21.3900  -42.7998 H         1 UNK         0.0600 
    147 H147        5.4385  -20.4730  -44.1694 H         1 UNK         0.0600 
    148 H148        6.5523  -21.8066  -44.4345 H         1 UNK         0.0600 
    149 H149        3.5029  -21.0761  -42.6914 H         1 UNK         0.3000 
    150 H150        0.3380  -22.6462  -42.0982 H         1 UNK         0.0600 
    151 H151        1.7792  -23.2635  -40.1387 H         1 UNK         0.0600 
    152 H152        0.7828  -21.8567  -39.8022 H         1 UNK         0.0600 
    153 H153        2.4970  -21.6559  -40.1612 H         1 UNK         0.0600 
    154 H154        1.2443  -20.0217  -41.5255 H         1 UNK         0.3000 
    155 H155        0.4006  -18.5462  -44.7019 H         1 UNK         0.0600 
    156 H156       -0.6731  -18.3341  -41.8395 H         1 UNK         0.0600 
    157 H157       -1.6378  -18.5714  -43.2853 H         1 UNK         0.0600 
    158 H158       -0.7584  -17.0646  -43.0578 H         1 UNK         0.0600 
    159 H159        1.6181  -17.3615  -42.4629 H         1 UNK         0.3000 
    160 H160        5.0329  -18.1009  -43.2064 H         1 UNK         0.0600 
    161 H161        3.3487  -15.5426  -43.3574 H         1 UNK         0.0600 
    162 H162        4.4325  -16.1438  -44.6038 H         1 UNK         0.0600 
    163 H163        5.0856  -15.6122  -43.0611 H         1 UNK         0.0600 
    164 H164        3.5104  -16.6847  -41.1546 H         1 UNK         0.3000 
    165 H165        3.6258  -19.3511  -38.7882 H         1 UNK         0.0600 
    166 H166        4.7713  -17.6219  -37.4368 H         1 UNK         0.0600 
    167 H167        5.8756  -18.2736  -38.6370 H         1 UNK         0.0600 
    168 H168        5.1479  -16.6912  -38.8872 H         1 UNK         0.0600 
    169 H169        2.6786  -16.6569  -38.6166 H         1 UNK         0.3000 
    170 H170       -0.6430  -17.3063  -39.7658 H         1 UNK         0.0600 
    171 H171       -0.5666  -18.1624  -37.4136 H         1 UNK         0.0600 
    172 H172        0.4161  -16.7799  -36.9453 H         1 UNK         0.0600 
    173 H173       -1.2390  -16.5439  -37.5084 H         1 UNK         0.0600 
    174 H174        0.0749  -14.9348  -38.7389 H         1 UNK         0.3000 
    175 H175        0.9501  -13.1381  -39.6798 H         1 UNK         0.0600 
    176 H176        2.3061  -13.4161  -42.4152 H         1 UNK         0.0600 
    177 H177        2.1376  -11.9247  -41.4933 H         1 UNK         0.0600 
    178 H178        3.1062  -13.2488  -40.8639 H         1 UNK         0.0600 
    179 H179       -0.9567  -12.7072  -40.7115 H         1 UNK         0.3000 
    180 H180       -2.7539  -13.0379  -42.0187 H         1 UNK         0.0600 
    181 H181       -3.1820  -11.3183  -43.7855 H         1 UNK         0.0600 
    182 H182       -1.5599  -11.5638  -44.4326 H         1 UNK         0.0600 
    183 H183       -1.7757  -10.8923  -42.8218 H         1 UNK         0.0600 
    184 H184       -2.6575  -13.7231  -44.8588 H         1 UNK         0.3000 
    185 H185       -3.1651  -17.1147  -44.5526 H         1 UNK         0.0600 
    186 H186       -5.4037  -16.9739  -45.5781 H         1 UNK         0.0600 
    187 H187       -5.5169  -16.5942  -43.8676 H         1 UNK         0.0600 
    188 H188       -5.5803  -15.2979  -45.0577 H         1 UNK         0.0600 
    189 H189       -3.7790  -15.3042  -46.6963 H         1 UNK         0.3000 
    190 H190        1.1572  -22.6807  -45.3566 H         1 UNK         0.3000 
    191 H191       -0.6615  -23.8924  -45.0261 H         1 UNK         0.0600 
    192 H192       -1.2421  -25.8768  -46.3516 H         1 UNK         0.0600 
    193 H193        0.4882  -25.8788  -46.0446 H         1 UNK         0.0600 
    194 H194       -0.1301  -25.4237  -47.6320 H         1 UNK         0.0600 
    195 H195       -0.8895  -21.4414  -45.7403 H         1 UNK         0.3000 
    196 H196       -2.0404  -20.7895  -48.2244 H         1 UNK         0.0600 
    197 H197       -1.9750  -19.2324  -45.5931 H         1 UNK         0.0600 
    198 H198       -0.7478  -19.1864  -46.8588 H         1 UNK         0.0600 
    199 H199       -2.3518  -18.5450  -47.1650 H         1 UNK         0.0600 
    200 H200       -4.0447  -19.8065  -48.7255 H         1 UNK         0.3000 
    201 H201       -6.3534  -20.0992  -46.9673 H         1 UNK         0.0600 
    202 H202       -7.6813  -21.1943  -48.7952 H         1 UNK         0.0600 
    203 H203       -6.3893  -22.2527  -48.2461 H         1 UNK         0.0600 
    204 H204       -6.2249  -21.3782  -49.7669 H         1 UNK         0.0600 
    205 H205       -7.0163  -18.0496  -46.9687 H         1 UNK         0.3000 
    206 H206       -7.3457  -15.8988  -47.4392 H         1 UNK         0.0600 
    207 H207       -9.2744  -16.9012  -48.5958 H         1 UNK         0.0600 
    208 H208       -8.7445  -15.4900  -49.4893 H         1 UNK         0.0600 
    209 H209       -8.3545  -17.1083  -50.0781 H         1 UNK         0.0600 
    210 H210       -6.9408  -15.8790  -50.8146 H         1 UNK         0.3000 
    211 H211       -4.0560  -15.4097  -50.8451 H         1 UNK         0.0600 
    212 H212       -6.0158  -13.3298  -51.9652 H         1 UNK         0.0600 
    213 H213       -4.2626  -13.3008  -52.1347 H         1 UNK         0.0600 
    214 H214       -4.9924  -13.0965  -50.5517 H         1 UNK         0.0600 
    215 H215       -5.4588  -17.6733  -51.5035 H         1 UNK         0.3000 
    216 H216       -6.3768  -17.8698  -54.1746 H         1 UNK         0.0600 
    217 H217       -6.9148  -19.5158  -52.3888 H         1 UNK         0.0600 
    218 H218       -5.2198  -19.9828  -52.2720 H         1 UNK         0.0600 
    219 H219       -6.1342  -20.3396  -53.7305 H         1 UNK         0.0600 
    220 H220       -5.4408  -19.1242  -55.9337 H         1 UNK         0.3000 
    221 H221       -2.6601  -18.5113  -56.5504 H         1 UNK         0.0600 
    222 H222       -4.4133  -18.5303  -58.3266 H         1 UNK         0.0600 
    223 H223       -3.1919  -19.7492  -58.6555 H         1 UNK         0.0600 
    224 H224       -4.7529  -20.2304  -58.0025 H         1 UNK         0.0600 
    225 H225       -0.9312  -19.8825  -56.3333 H         1 UNK         0.3000 
    226 H226       -0.9253  -21.9715  -54.5031 H         1 UNK         0.0600 
    227 H227        1.0696  -20.6450  -55.0773 H         1 UNK         0.0600 
    228 H228        1.4098  -22.3527  -55.3005 H         1 UNK         0.0600 
    229 H229        1.1048  -21.3331  -56.7023 H         1 UNK         0.0600 
    230 H230       -1.3470  -22.1628  -58.0037 H         1 UNK         0.3000 
    231 H231       -1.0936  -25.0149  -58.2668 H         1 UNK         0.0600 
    232 H232       -2.0758  -24.5828  -60.5226 H         1 UNK         0.0600 
    233 H233       -0.7781  -23.4527  -60.1729 H         1 UNK         0.0600 
    234 H234       -2.4595  -22.9305  -60.0552 H         1 UNK         0.0600 
    235 H235       -3.6892  -22.9837  -57.0794 H         1 UNK         0.3000 
    236 H236       -5.7812  -25.0252  -57.5717 H         1 UNK         0.0600 
    237 H237       -5.9851  -22.2141  -56.3716 H         1 UNK         0.0600 
    238 H238       -6.3310  -22.6445  -58.0446 H         1 UNK         0.0600 
    239 H239       -7.3196  -23.2927  -56.7452 H         1 UNK         0.0600 
    240 H240       -4.2147  -23.2260  -54.8395 H         1 UNK         0.3000 
    241 H241       -5.5310  -24.9394  -52.8867 H         1 UNK         0.0600 
    242 H242       -2.3613  -25.2192  -54.4918 H         1 UNK         0.3800 
    243 H243       -1.8567  -26.5314  -53.4651 H         1 UNK         0.3800 
    244 H244       -4.4573  -23.5755  -51.1682 H         1 UNK         0.0800 
    245 H245       -5.3353  -22.6178  -52.3230 H         1 UNK         0.0800 
    246 H246       -3.4702  -21.2732  -50.3738 H         1 UNK         0.0800 
    247 H247       -2.2511  -22.5256  -50.2514 H         1 UNK         0.0800 
@<TRIPOS>BOND
     1    1    2 1    
     2    1  127 1    
     3    1  128 1    
     4    1  129 1    
     5    2    3 2    
     6    2    4 am   BACKBONE|DICT|INTERRES
     7    4    5 1    
     8    4  130 1    
     9    5    6 1    
    10    5   65 1    
    11    5  131 1    
    12    6    7 1    
    13    6  132 1    
    14    6  133 1    
    15    7    8 1    
    16    8    9 1    
    17    8  134 1    
    18    8  135 1    
    19    9   10 ar   
    20    9   14 ar   
    21   10   11 ar   
    22   10  136 1    
    23   11   12 ar   
    24   11  126 1    
    25   12   13 ar   
    26   12  137 1    
    27   13   14 ar   
    28   13   15 1    
    29   14  138 1    
    30   15   16 1    
    31   15  139 1    
    32   15  140 1    
    33   16   17 1    
    34   17   18 1    
    35   17  141 1    
    36   17  142 1    
    37   18   19 1    
    38   18   67 1    
    39   18  143 1    
    40   19   20 am   BACKBONE|DICT|INTERRES
    41   19  144 1    
    42   20   21 2    
    43   20   22 1    
    44   22   23 1    
    45   22   24 1    
    46   22  145 1    
    47   23  146 1    
    48   23  147 1    
    49   23  148 1    
    50   24   25 am   BACKBONE|DICT|INTERRES
    51   24  149 1    
    52   25   26 2    
    53   25   27 1    
    54   27   28 1    
    55   27   29 1    
    56   27  150 1    
    57   28  151 1    
    58   28  152 1    
    59   28  153 1    
    60   29   30 am   BACKBONE|DICT|INTERRES
    61   29  154 1    
    62   30   31 2    
    63   30   32 1    
    64   32   33 1    
    65   32   34 1    
    66   32  155 1    
    67   33  156 1    
    68   33  157 1    
    69   33  158 1    
    70   34   35 am   BACKBONE|DICT|INTERRES
    71   34  159 1    
    72   35   36 2    
    73   35   37 1    
    74   37   38 1    
    75   37   39 1    
    76   37  160 1    
    77   38  161 1    
    78   38  162 1    
    79   38  163 1    
    80   39   40 am   BACKBONE|DICT|INTERRES
    81   39  164 1    
    82   40   41 2    
    83   40   42 1    
    84   42   43 1    
    85   42   44 1    
    86   42  165 1    
    87   43  166 1    
    88   43  167 1    
    89   43  168 1    
    90   44   45 am   BACKBONE|DICT|INTERRES
    91   44  169 1    
    92   45   46 2    
    93   45   47 1    
    94   47   48 1    
    95   47   49 1    
    96   47  170 1    
    97   48  171 1    
    98   48  172 1    
    99   48  173 1    
   100   49   50 am   BACKBONE|DICT|INTERRES
   101   49  174 1    
   102   50   51 2    
   103   50   52 1    
   104   52   53 1    
   105   52   54 1    
   106   52  175 1    
   107   53  176 1    
   108   53  177 1    
   109   53  178 1    
   110   54   55 am   BACKBONE|DICT|INTERRES
   111   54  179 1    
   112   55   56 2    
   113   55   57 1    
   114   57   58 1    
   115   57   59 1    
   116   57  180 1    
   117   58  181 1    
   118   58  182 1    
   119   58  183 1    
   120   59   60 am   BACKBONE|DICT|INTERRES
   121   59  184 1    
   122   60   61 2    
   123   60   62 1    
   124   62   63 1    
   125   62   64 1    
   126   62  185 1    
   127   63  186 1    
   128   63  187 1    
   129   63  188 1    
   130   64   65 am   BACKBONE|DICT|INTERRES
   131   64  189 1    
   132   65   66 2    
   133   67   68 2    
   134   67   69 am   BACKBONE|DICT|INTERRES
   135   69   70 1    
   136   69  190 1    
   137   70   71 1    
   138   70   72 1    
   139   70  191 1    
   140   71  192 1    
   141   71  193 1    
   142   71  194 1    
   143   72   73 2    
   144   72   74 am   BACKBONE|DICT|INTERRES
   145   74   75 1    
   146   74  195 1    
   147   75   76 1    
   148   75   77 1    
   149   75  196 1    
   150   76  197 1    
   151   76  198 1    
   152   76  199 1    
   153   77   78 2    
   154   77   79 am   BACKBONE|DICT|INTERRES
   155   79   80 1    
   156   79  200 1    
   157   80   81 1    
   158   80   82 1    
   159   80  201 1    
   160   81  202 1    
   161   81  203 1    
   162   81  204 1    
   163   82   83 2    
   164   82   84 am   BACKBONE|DICT|INTERRES
   165   84   85 1    
   166   84  205 1    
   167   85   86 1    
   168   85   87 1    
   169   85  206 1    
   170   86  207 1    
   171   86  208 1    
   172   86  209 1    
   173   87   88 2    
   174   87   89 am   BACKBONE|DICT|INTERRES
   175   89   90 1    
   176   89  210 1    
   177   90   91 1    
   178   90   92 1    
   179   90  211 1    
   180   91  212 1    
   181   91  213 1    
   182   91  214 1    
   183   92   93 2    
   184   92   94 am   BACKBONE|DICT|INTERRES
   185   94   95 1    
   186   94  215 1    
   187   95   96 1    
   188   95   97 1    
   189   95  216 1    
   190   96  217 1    
   191   96  218 1    
   192   96  219 1    
   193   97   98 2    
   194   97   99 am   BACKBONE|DICT|INTERRES
   195   99  100 1    
   196   99  220 1    
   197  100  101 1    
   198  100  102 1    
   199  100  221 1    
   200  101  222 1    
   201  101  223 1    
   202  101  224 1    
   203  102  103 2    
   204  102  104 am   BACKBONE|DICT|INTERRES
   205  104  105 1    
   206  104  225 1    
   207  105  106 1    
   208  105  107 1    
   209  105  226 1    
   210  106  227 1    
   211  106  228 1    
   212  106  229 1    
   213  107  108 2    
   214  107  109 am   BACKBONE|DICT|INTERRES
   215  109  110 1    
   216  109  230 1    
   217  110  111 1    
   218  110  112 1    
   219  110  231 1    
   220  111  232 1    
   221  111  233 1    
   222  111  234 1    
   223  112  113 2    
   224  112  114 am   BACKBONE|DICT|INTERRES
   225  114  115 1    
   226  114  235 1    
   227  115  116 1    
   228  115  117 1    
   229  115  236 1    
   230  116  237 1    
   231  116  238 1    
   232  116  239 1    
   233  117  118 2    
   234  117  119 am   BACKBONE|DICT|INTERRES
   235  119  120 1    
   236  119  240 1    
   237  120  121 1    
   238  120  124 1    
   239  120  241 1    
   240  121  122 am   BACKBONE|DICT|INTERRES
   241  121  123 2    
   242  122  242 1    
   243  122  243 1    
   244  124  125 1    
   245  124  244 1    
   246  124  245 1    
   247  125  126 1    
   248  126  246 1    
   249  126  247 1    
@<TRIPOS>SUBSTRUCTURE
     1 UNK         1 GROUP             0       ****    0 ROOT    
