@<TRIPOS>MOLECULE
3R540
247   249    1
SMALL
USER_CHARGES


@<TRIPOS>ATOM
      1 CA         -0.5429  -10.3974  -49.8311 C.3       0 UNK        -0.1800 
      2 C           0.1576  -11.4885  -49.0341 C.2       0 UNK         0.5000 
      3 O          -0.5113  -12.3376  -48.4460 O.2       0 UNK        -0.5000 
      4 N           1.4978  -11.4652  -49.0198 N.am      1 UNK        -0.5000 
      5 CA          2.3817  -12.4173  -48.3279 C.3       1 UNK         0.1400 
      6 C6          2.3170  -13.8622  -48.8968 C.3       23 UNK        -0.0398 
      7 S7          2.8161  -13.9106  -50.6516 S.3       23 UNK        -0.2404 
      8 C8          1.2426  -14.2936  -51.4817 C.3       23 UNK        -0.0205 
      9 C9          0.9932  -15.7922  -51.5489 C.ar      23 UNK        -0.0193 
     10 C10         1.6853  -16.5660  -52.4847 C.ar      23 UNK        -0.1150 
     11 C11         1.4563  -17.9409  -52.5811 C.ar      23 UNK        -0.0193 
     12 C12         0.5265  -18.5428  -51.7295 C.ar      23 UNK        -0.1150 
     13 C13        -0.1848  -17.7773  -50.8008 C.ar      23 UNK        -0.0193 
     14 C14         0.0580  -16.4028  -50.7074 C.ar      23 UNK        -0.1150 
     15 C15        -1.2419  -18.4347  -49.9305 C.3       23 UNK        -0.0205 
     16 S16        -0.5783  -18.9041  -48.3046 S.3       23 UNK        -0.2404 
     17 C17        -1.9343  -19.9509  -47.6825 C.3       23 UNK        -0.0398 
     18 CA         -1.4176  -21.3267  -47.2068 C.3       11 UNK         0.1400 
     19 N          -0.5655  -21.2214  -46.0206 N.am      11 UNK        -0.5000 
     20 C           0.1924  -22.2126  -45.5328 C.2       10 UNK         0.5000 
     21 O           0.2812  -23.3255  -46.0486 O.2       10 UNK        -0.5000 
     22 CA          0.9241  -21.9243  -44.2121 C.3       10 UNK         0.1400 
     23 CB          2.2435  -21.1818  -44.4697 C.3       10 UNK        -0.1800 
     24 N           0.0805  -21.1554  -43.2948 N.am      10 UNK        -0.5000 
     25 C          -0.9985  -21.6682  -42.6829 C.2       9 UNK         0.5000 
     26 O          -1.3525  -22.8415  -42.8011 O.2       9 UNK        -0.5000 
     27 CA         -1.8575  -20.7097  -41.8401 C.3       9 UNK         0.1400 
     28 CB         -1.3515  -20.6702  -40.3919 C.3       9 UNK        -0.1800 
     29 N          -1.9144  -19.3562  -42.3985 N.am      9 UNK        -0.5000 
     30 C          -2.5225  -19.0573  -43.5573 C.2       8 UNK         0.5000 
     31 O          -3.0821  -19.9063  -44.2510 O.2       8 UNK        -0.5000 
     32 CA         -2.4638  -17.6076  -44.0792 C.3       8 UNK         0.1400 
     33 CB         -3.8398  -17.0997  -44.5553 C.3       8 UNK        -0.1800 
     34 N          -1.8100  -16.6578  -43.1748 N.am      8 UNK        -0.5000 
     35 C          -2.2567  -16.1502  -42.0170 C.2       7 UNK         0.5000 
     36 O          -3.3686  -16.3805  -41.5404 O.2       7 UNK        -0.5000 
     37 CA         -1.2476  -15.2526  -41.2638 C.3       7 UNK         0.1400 
     38 CB         -1.6293  -15.0168  -39.7872 C.3       7 UNK        -0.1800 
     39 N           0.1342  -15.7461  -41.3794 N.am      7 UNK        -0.5000 
     40 C           0.5881  -16.9424  -40.9722 C.2       6 UNK         0.5000 
     41 O          -0.1067  -17.7668  -40.3802 O.2       6 UNK        -0.5000 
     42 CA          2.0395  -17.2874  -41.3627 C.3       6 UNK         0.1400 
     43 CB          2.4211  -18.7484  -41.0434 C.3       6 UNK        -0.1800 
     44 N           2.3206  -16.9765  -42.7693 N.am      6 UNK        -0.5000 
     45 C           1.7037  -17.4783  -43.8520 C.2       5 UNK         0.5000 
     46 O           0.7899  -18.3032  -43.7898 O.2       5 UNK        -0.5000 
     47 CA          2.1347  -16.9509  -45.2373 C.3       5 UNK         0.1400 
     48 CB          0.9329  -16.3470  -45.9803 C.3       5 UNK        -0.1800 
     49 N           3.1973  -15.9451  -45.1760 N.am      5 UNK        -0.5000 
     50 C           4.5025  -16.2136  -45.0407 C.2       4 UNK         0.5000 
     51 O           4.9654  -17.3536  -44.9978 O.2       4 UNK        -0.5000 
     52 CA          5.4438  -15.0038  -44.8823 C.3       4 UNK         0.1400 
     53 CB          5.8357  -14.4392  -46.2565 C.3       4 UNK        -0.1800 
     54 N           4.8847  -13.9253  -44.0620 N.am      4 UNK        -0.5000 
     55 C           4.5108  -14.0191  -42.7791 C.2       3 UNK         0.5000 
     56 O           4.5721  -15.0640  -42.1318 O.2       3 UNK        -0.5000 
     57 CA          3.9287  -12.7571  -42.1069 C.3       3 UNK         0.1400 
     58 CB          5.0446  -11.8470  -41.5595 C.3       3 UNK        -0.1800 
     59 N           2.9743  -12.0165  -42.9453 N.am      3 UNK        -0.5000 
     60 C           3.2084  -11.3346  -44.0739 C.2       2 UNK         0.5000 
     61 O           4.3301  -11.1448  -44.5508 O.2       2 UNK        -0.5000 
     62 CA          1.9663  -10.8336  -44.8338 C.3       2 UNK         0.1400 
     63 CB          1.7850   -9.3203  -44.6445 C.3       2 UNK        -0.1800 
     64 N           2.0520  -11.1344  -46.2639 N.am      2 UNK        -0.5000 
     65 C           2.2116  -12.3577  -46.7931 C.2       1 UNK         0.5000 
     66 O           2.2413  -13.3903  -46.1202 O.2       1 UNK        -0.5000 
     67 C          -2.5867  -22.3062  -46.9888 C.2       11 UNK         0.5000 
     68 O          -2.9423  -23.0286  -47.9195 O.2       11 UNK        -0.5000 
     69 N          -3.1528  -22.3340  -45.7754 N.am      12 UNK        -0.5000 
     70 CA         -4.1720  -23.2972  -45.3640 C.3       12 UNK         0.1400 
     71 CB         -4.7925  -22.8597  -44.0292 C.3       12 UNK        -0.1800 
     72 C          -3.6116  -24.7275  -45.2758 C.2       12 UNK         0.5000 
     73 O          -4.2345  -25.6502  -45.8007 O.2       12 UNK        -0.5000 
     74 N          -2.4312  -24.8808  -44.6568 N.am      13 UNK        -0.5000 
     75 CA         -1.7219  -26.1558  -44.5144 C.3       13 UNK         0.1400 
     76 CB         -0.5153  -25.9714  -43.5820 C.3       13 UNK        -0.1800 
     77 C          -1.2809  -26.7603  -45.8610 C.2       13 UNK         0.5000 
     78 O          -1.4039  -27.9702  -46.0544 O.2       13 UNK        -0.5000 
     79 N          -0.8059  -25.9054  -46.7766 N.am      14 UNK        -0.5000 
     80 CA         -0.4215  -26.2699  -48.1424 C.3       14 UNK         0.1400 
     81 CB          0.4724  -25.1569  -48.7134 C.3       14 UNK        -0.1800 
     82 C          -1.6228  -26.5107  -49.0796 C.2       14 UNK         0.5000 
     83 O          -1.4270  -27.0266  -50.1800 O.2       14 UNK        -0.5000 
     84 N          -2.8244  -26.0939  -48.6509 N.am      15 UNK        -0.5000 
     85 CA         -4.0914  -26.0610  -49.3925 C.3       15 UNK         0.1400 
     86 CB         -4.5298  -27.4704  -49.8381 C.3       15 UNK        -0.1800 
     87 C          -4.1042  -25.0428  -50.5533 C.2       15 UNK         0.5000 
     88 O          -5.0274  -25.0555  -51.3674 O.2       15 UNK        -0.5000 
     89 N          -3.1201  -24.1345  -50.5780 N.am      16 UNK        -0.5000 
     90 CA         -3.0065  -23.0176  -51.5132 C.3       16 UNK         0.1400 
     91 CB         -1.6435  -22.3350  -51.3180 C.3       16 UNK        -0.1800 
     92 C          -4.1477  -22.0011  -51.3456 C.2       16 UNK         0.5000 
     93 O          -4.6241  -21.4586  -52.3421 O.2       16 UNK        -0.5000 
     94 N          -4.5911  -21.7984  -50.0956 N.am      17 UNK        -0.5000 
     95 CA         -5.7430  -20.9621  -49.7525 C.3       17 UNK         0.1400 
     96 CB         -5.7904  -20.7457  -48.2313 C.3       17 UNK        -0.1800 
     97 C          -7.0732  -21.5605  -50.2463 C.2       17 UNK         0.5000 
     98 O          -7.9410  -20.8170  -50.7033 O.2       17 UNK        -0.5000 
     99 N          -7.1993  -22.8923  -50.1587 N.am      18 UNK        -0.5000 
    100 CA        -8.3705  -23.6469  -50.6068 C.3       18 UNK         0.1400 
    101 CB        -8.3468  -25.0487  -49.9771 C.3       18 UNK        -0.1800 
    102 C         -8.4490  -23.7334  -52.1408 C.2       18 UNK         0.5000 
    103 O         -9.5324  -23.5827  -52.7064 O.2       18 UNK        -0.5000 
    104 N         -7.2940  -23.9504  -52.7841 N.am      19 UNK        -0.5000 
    105 CA        -7.1422  -23.9984  -54.2387 C.3       19 UNK         0.1400 
    106 CB        -5.7859  -24.6423  -54.5679 C.3       19 UNK        -0.1800 
    107 C         -7.2476  -22.6181  -54.9169 C.2       19 UNK         0.5000 
    108 O         -7.4964  -22.5645  -56.1219 O.2       19 UNK        -0.5000 
    109 N         -7.0268  -21.5429  -54.1438 N.am      20 UNK        -0.5000 
    110 CA        -6.8728  -20.1489  -54.5766 C.3       20 UNK         0.1400 
    111 CB        -8.1868  -19.5953  -55.1661 C.3       20 UNK        -0.1800 
    112 C         -5.6563  -19.9857  -55.5128 C.2       20 UNK         0.5000 
    113 O         -5.7499  -19.3588  -56.5705 O.2       20 UNK        -0.5000 
    114 N         -4.5412  -20.6055  -55.1093 N.am      21 UNK        -0.5000 
    115 CA        -3.2804  -20.6454  -55.8431 C.3       21 UNK         0.1400 
    116 CB        -2.4282  -21.7922  -55.2762 C.3       21 UNK        -0.1800 
    117 C         -2.5140  -19.3116  -55.7703 C.2       21 UNK         0.5000 
    118 O         -2.7838  -18.4815  -54.8986 O.2       21 UNK        -0.5000 
    119 N         -1.5433  -19.1614  -56.6802 N.am      22 UNK        -0.5000 
    120 CA        -0.5901  -18.0376  -56.7719 C.3       22 UNK         0.1400 
    121 C         -1.2043  -16.6905  -57.2635 C.2       22 UNK         0.5000 
    122 N         -2.4337  -16.6622  -57.7634 N.am      22 UNK        -0.7600 
    123 O         -0.5445  -15.6553  -57.2268 O.2       22 UNK        -0.5000 
    124 C124        0.2764  -17.8523  -55.4922 C.3       23 UNK        -0.0398 
    125 S125        1.0886  -19.3914  -54.9305 S.3       23 UNK        -0.2404 
    126 C126        2.1960  -18.7678  -53.6236 C.3       23 UNK        -0.0205 
    127 H127        0.1680   -9.7164  -50.2998 H         1 UNK         0.0600 
    128 H128       -1.1927   -9.8145  -49.1783 H         1 UNK         0.0600 
    129 H129       -1.1554  -10.8417  -50.6157 H         1 UNK         0.0600 
    130 H130        1.9752  -10.7405  -49.5375 H         1 UNK         0.3000 
    131 H131        3.3959  -12.0547  -48.5031 H         1 UNK         0.0600 
    132 H132        2.9975  -14.5207  -48.3545 H         1 UNK         0.0800 
    133 H133        1.3217  -14.2897  -48.7712 H         1 UNK         0.0800 
    134 H134        1.2773  -13.8927  -52.4958 H         1 UNK         0.0800 
    135 H135        0.4178  -13.7816  -50.9844 H         1 UNK         0.0800 
    136 H136        2.3997  -16.0914  -53.1429 H         1 UNK         0.1150 
    137 H137        0.3394  -19.6045  -51.8099 H         1 UNK         0.1150 
    138 H138       -0.4903  -15.8090  -49.9893 H         1 UNK         0.1150 
    139 H139       -1.6347  -19.3169  -50.4386 H         1 UNK         0.0800 
    140 H140       -2.0866  -17.7576  -49.7938 H         1 UNK         0.0800 
    141 H141       -2.6678  -20.0784  -48.4795 H         1 UNK         0.0800 
    142 H142       -2.4488  -19.4236  -46.8781 H         1 UNK         0.0800 
    143 H143       -0.8056  -21.7513  -48.0053 H         1 UNK         0.0600 
    144 H144       -0.5833  -20.3423  -45.5258 H         1 UNK         0.3000 
    145 H145        1.1615  -22.8796  -43.7392 H         1 UNK         0.0600 
    146 H146        2.9316  -21.8066  -45.0402 H         1 UNK         0.0600 
    147 H147        2.7408  -20.9171  -43.5365 H         1 UNK         0.0600 
    148 H148        2.0895  -20.2671  -45.0416 H         1 UNK         0.0600 
    149 H149        0.2823  -20.1641  -43.2054 H         1 UNK         0.3000 
    150 H150       -2.8761  -21.1029  -41.8251 H         1 UNK         0.0600 
    151 H151       -0.3034  -20.3753  -40.3385 H         1 UNK         0.0600 
    152 H152       -1.4351  -21.6529  -39.9262 H         1 UNK         0.0600 
    153 H153       -1.9305  -19.9720  -39.7870 H         1 UNK         0.0600 
    154 H154       -1.4354  -18.6286  -41.8816 H         1 UNK         0.3000 
    155 H155       -1.8239  -17.6513  -44.9601 H         1 UNK         0.0600 
    156 H156       -4.5797  -17.1151  -43.7550 H         1 UNK         0.0600 
    157 H157       -4.2267  -17.7224  -45.3630 H         1 UNK         0.0600 
    158 H158       -3.7748  -16.0807  -44.9365 H         1 UNK         0.0600 
    159 H159       -0.8560  -16.4413  -43.4237 H         1 UNK         0.3000 
    160 H160       -1.2720  -14.2845  -41.7661 H         1 UNK         0.0600 
    161 H161       -1.6956  -15.9510  -39.2290 H         1 UNK         0.0600 
    162 H162       -2.5979  -14.5219  -39.7091 H         1 UNK         0.0600 
    163 H163       -0.8993  -14.3793  -39.2885 H         1 UNK         0.0600 
    164 H164        0.7768  -15.1424  -41.8712 H         1 UNK         0.3000 
    165 H165        2.6816  -16.6401  -40.7640 H         1 UNK         0.0600 
    166 H166        2.3228  -18.9529  -39.9768 H         1 UNK         0.0600 
    167 H167        1.7871  -19.4610  -41.5706 H         1 UNK         0.0600 
    168 H168        3.4553  -18.9537  -41.3195 H         1 UNK         0.0600 
    169 H169        3.0758  -16.3168  -42.9153 H         1 UNK         0.3000 
    170 H170        2.4894  -17.8087  -45.8120 H         1 UNK         0.0600 
    171 H171        1.2118  -16.0296  -46.9847 H         1 UNK         0.0600 
    172 H172        0.5242  -15.4825  -45.4560 H         1 UNK         0.0600 
    173 H173        0.1312  -17.0755  -46.0901 H         1 UNK         0.0600 
    174 H174        2.9046  -14.9752  -45.2692 H         1 UNK         0.3000 
    175 H175        6.3505  -15.3562  -44.3866 H         1 UNK         0.0600 
    176 H176        6.2706  -15.2142  -46.8890 H         1 UNK         0.0600 
    177 H177        4.9741  -14.0293  -46.7839 H         1 UNK         0.0600 
    178 H178        6.5766  -13.6455  -46.1594 H         1 UNK         0.0600 
    179 H179        4.7879  -13.0156  -44.5032 H         1 UNK         0.3000 
    180 H180        3.3503  -13.1047  -41.2493 H         1 UNK         0.0600 
    181 H181        5.7101  -11.4914  -42.3463 H         1 UNK         0.0600 
    182 H182        5.6597  -12.3833  -40.8358 H         1 UNK         0.0600 
    183 H183        4.6298  -10.9765  -41.0513 H         1 UNK         0.0600 
    184 H184        2.0098  -12.1162  -42.6614 H         1 UNK         0.3000 
    185 H185        1.0811  -11.3409  -44.4446 H         1 UNK         0.0600 
    186 H186        1.6951   -9.0671  -43.5873 H         1 UNK         0.0600 
    187 H187        2.6314   -8.7607  -45.0451 H         1 UNK         0.0600 
    188 H188        0.8816   -8.9651  -45.1408 H         1 UNK         0.0600 
    189 H189        2.0493  -10.3428  -46.8895 H         1 UNK         0.3000 
    190 H190       -2.8808  -21.6364  -45.0891 H         1 UNK         0.3000 
    191 H191       -4.9622  -23.2973  -46.1172 H         1 UNK         0.0600 
    192 H192       -5.2336  -21.8658  -44.1080 H         1 UNK         0.0600 
    193 H193       -5.5843  -23.5449  -43.7243 H         1 UNK         0.0600 
    194 H194       -4.0541  -22.8343  -43.2281 H         1 UNK         0.0600 
    195 H195       -2.0017  -24.0744  -44.2133 H         1 UNK         0.3000 
    196 H196       -2.4071  -26.8642  -44.0442 H         1 UNK         0.0600 
    197 H197        0.0203  -26.9115  -43.4440 H         1 UNK         0.0600 
    198 H198       -0.8284  -25.6281  -42.5958 H         1 UNK         0.0600 
    199 H199        0.1932  -25.2443  -43.9796 H         1 UNK         0.0600 
    200 H200       -0.6590  -24.9351  -46.5098 H         1 UNK         0.3000 
    201 H201        0.1598  -27.1936  -48.1075 H         1 UNK         0.0600 
    202 H202        0.8122  -25.4009  -49.7207 H         1 UNK         0.0600 
    203 H203        1.3610  -25.0113  -48.0988 H         1 UNK         0.0600 
    204 H204       -0.0568  -24.2045  -48.7665 H         1 UNK         0.0600 
    205 H205       -2.8666  -25.6844  -47.7265 H         1 UNK         0.3000 
    206 H206       -4.8349  -25.7013  -48.6800 H         1 UNK         0.0600 
    207 H207       -4.5126  -28.1707  -49.0031 H         1 UNK         0.0600 
    208 H208       -5.5482  -27.4569  -50.2280 H         1 UNK         0.0600 
    209 H209       -3.8885  -27.8676  -50.6251 H         1 UNK         0.0600 
    210 H210       -2.4702  -24.1425  -49.8042 H         1 UNK         0.3000 
    211 H211       -3.0567  -23.4160  -52.5283 H         1 UNK         0.0600 
    212 H212       -0.8249  -23.0237  -51.5280 H         1 UNK         0.0600 
    213 H213       -1.5288  -21.4801  -51.9850 H         1 UNK         0.0600 
    214 H214       -1.5190  -21.9688  -50.2993 H         1 UNK         0.0600 
    215 H215       -4.1338  -22.2965  -49.3387 H         1 UNK         0.3000 
    216 H216       -5.6153  -19.9900  -50.2337 H         1 UNK         0.0600 
    217 H217       -5.8541  -21.6907  -47.6917 H         1 UNK         0.0600 
    218 H218       -6.6594  -20.1497  -47.9492 H         1 UNK         0.0600 
    219 H219       -4.9112  -20.2129  -47.8736 H         1 UNK         0.0600 
    220 H220       -6.4231  -23.4281  -49.8027 H         1 UNK         0.3000 
    221 H221       -9.2673  -23.1331  -50.2538 H         1 UNK         0.0600 
    222 H222       -7.4712  -25.6195  -50.2872 H         1 UNK         0.0600 
    223 H223       -8.3421  -24.9922  -48.8885 H         1 UNK         0.0600 
    224 H224       -9.2290  -25.6202  -50.2686 H         1 UNK         0.0600 
    225 H225       -6.4587  -24.1440  -52.2377 H         1 UNK         0.3000 
    226 H226       -7.9323  -24.6309  -54.6484 H         1 UNK         0.0600 
    227 H227       -5.7144  -25.6471  -54.1509 H         1 UNK         0.0600 
    228 H228       -5.6412  -24.7261  -55.6458 H         1 UNK         0.0600 
    229 H229       -4.9576  -24.0553  -54.1693 H         1 UNK         0.0600 
    230 H230       -6.7846  -21.7176  -53.1777 H         1 UNK         0.3000 
    231 H231       -6.6473  -19.5736  -53.6774 H         1 UNK         0.0600 
    232 H232       -8.4512  -20.0815  -56.1053 H         1 UNK         0.0600 
    233 H233       -8.1018  -18.5266  -55.3660 H         1 UNK         0.0600 
    234 H234       -9.0164  -19.7312  -54.4723 H         1 UNK         0.0600 
    235 H235       -4.5422  -21.0265  -54.1841 H         1 UNK         0.3000 
    236 H236       -3.5010  -20.8599  -56.8909 H         1 UNK         0.0600 
    237 H237       -2.1597  -21.6098  -54.2364 H         1 UNK         0.0600 
    238 H238       -2.9594  -22.7430  -55.3250 H         1 UNK         0.0600 
    239 H239       -1.4999  -21.9103  -55.8363 H         1 UNK         0.0600 
    240 H240       -1.4006  -19.8963  -57.3580 H         1 UNK         0.3000 
    241 H241        0.0950  -18.3224  -57.5710 H         1 UNK         0.0600 
    242 H242       -2.8173  -15.7892  -58.0903 H         1 UNK         0.3800 
    243 H243       -2.9918  -17.5005  -57.7997 H         1 UNK         0.3800 
    244 H244       -0.3354  -17.4628  -54.6773 H         1 UNK         0.0800 
    245 H245        1.0559  -17.1092  -55.6681 H         1 UNK         0.0800 
    246 H246        2.6790  -19.6144  -53.1339 H         1 UNK         0.0800 
    247 H247        2.9946  -18.1847  -54.0850 H         1 UNK         0.0800 
@<TRIPOS>BOND
     1    1    2 1    
     2    1  127 1    
     3    1  128 1    
     4    1  129 1    
     5    2    3 2    
     6    2    4 am   BACKBONE|DICT|INTERRES
     7    4    5 1    
     8    4  130 1    
     9    5    6 1    
    10    5   65 1    
    11    5  131 1    
    12    6    7 1    
    13    6  132 1    
    14    6  133 1    
    15    7    8 1    
    16    8    9 1    
    17    8  134 1    
    18    8  135 1    
    19    9   10 ar   
    20    9   14 ar   
    21   10   11 ar   
    22   10  136 1    
    23   11   12 ar   
    24   11  126 1    
    25   12   13 ar   
    26   12  137 1    
    27   13   14 ar   
    28   13   15 1    
    29   14  138 1    
    30   15   16 1    
    31   15  139 1    
    32   15  140 1    
    33   16   17 1    
    34   17   18 1    
    35   17  141 1    
    36   17  142 1    
    37   18   19 1    
    38   18   67 1    
    39   18  143 1    
    40   19   20 am   BACKBONE|DICT|INTERRES
    41   19  144 1    
    42   20   21 2    
    43   20   22 1    
    44   22   23 1    
    45   22   24 1    
    46   22  145 1    
    47   23  146 1    
    48   23  147 1    
    49   23  148 1    
    50   24   25 am   BACKBONE|DICT|INTERRES
    51   24  149 1    
    52   25   26 2    
    53   25   27 1    
    54   27   28 1    
    55   27   29 1    
    56   27  150 1    
    57   28  151 1    
    58   28  152 1    
    59   28  153 1    
    60   29   30 am   BACKBONE|DICT|INTERRES
    61   29  154 1    
    62   30   31 2    
    63   30   32 1    
    64   32   33 1    
    65   32   34 1    
    66   32  155 1    
    67   33  156 1    
    68   33  157 1    
    69   33  158 1    
    70   34   35 am   BACKBONE|DICT|INTERRES
    71   34  159 1    
    72   35   36 2    
    73   35   37 1    
    74   37   38 1    
    75   37   39 1    
    76   37  160 1    
    77   38  161 1    
    78   38  162 1    
    79   38  163 1    
    80   39   40 am   BACKBONE|DICT|INTERRES
    81   39  164 1    
    82   40   41 2    
    83   40   42 1    
    84   42   43 1    
    85   42   44 1    
    86   42  165 1    
    87   43  166 1    
    88   43  167 1    
    89   43  168 1    
    90   44   45 am   BACKBONE|DICT|INTERRES
    91   44  169 1    
    92   45   46 2    
    93   45   47 1    
    94   47   48 1    
    95   47   49 1    
    96   47  170 1    
    97   48  171 1    
    98   48  172 1    
    99   48  173 1    
   100   49   50 am   BACKBONE|DICT|INTERRES
   101   49  174 1    
   102   50   51 2    
   103   50   52 1    
   104   52   53 1    
   105   52   54 1    
   106   52  175 1    
   107   53  176 1    
   108   53  177 1    
   109   53  178 1    
   110   54   55 am   BACKBONE|DICT|INTERRES
   111   54  179 1    
   112   55   56 2    
   113   55   57 1    
   114   57   58 1    
   115   57   59 1    
   116   57  180 1    
   117   58  181 1    
   118   58  182 1    
   119   58  183 1    
   120   59   60 am   BACKBONE|DICT|INTERRES
   121   59  184 1    
   122   60   61 2    
   123   60   62 1    
   124   62   63 1    
   125   62   64 1    
   126   62  185 1    
   127   63  186 1    
   128   63  187 1    
   129   63  188 1    
   130   64   65 am   BACKBONE|DICT|INTERRES
   131   64  189 1    
   132   65   66 2    
   133   67   68 2    
   134   67   69 am   BACKBONE|DICT|INTERRES
   135   69   70 1    
   136   69  190 1    
   137   70   71 1    
   138   70   72 1    
   139   70  191 1    
   140   71  192 1    
   141   71  193 1    
   142   71  194 1    
   143   72   73 2    
   144   72   74 am   BACKBONE|DICT|INTERRES
   145   74   75 1    
   146   74  195 1    
   147   75   76 1    
   148   75   77 1    
   149   75  196 1    
   150   76  197 1    
   151   76  198 1    
   152   76  199 1    
   153   77   78 2    
   154   77   79 am   BACKBONE|DICT|INTERRES
   155   79   80 1    
   156   79  200 1    
   157   80   81 1    
   158   80   82 1    
   159   80  201 1    
   160   81  202 1    
   161   81  203 1    
   162   81  204 1    
   163   82   83 2    
   164   82   84 am   BACKBONE|DICT|INTERRES
   165   84   85 1    
   166   84  205 1    
   167   85   86 1    
   168   85   87 1    
   169   85  206 1    
   170   86  207 1    
   171   86  208 1    
   172   86  209 1    
   173   87   88 2    
   174   87   89 am   BACKBONE|DICT|INTERRES
   175   89   90 1    
   176   89  210 1    
   177   90   91 1    
   178   90   92 1    
   179   90  211 1    
   180   91  212 1    
   181   91  213 1    
   182   91  214 1    
   183   92   93 2    
   184   92   94 am   BACKBONE|DICT|INTERRES
   185   94   95 1    
   186   94  215 1    
   187   95   96 1    
   188   95   97 1    
   189   95  216 1    
   190   96  217 1    
   191   96  218 1    
   192   96  219 1    
   193   97   98 2    
   194   97   99 am   BACKBONE|DICT|INTERRES
   195   99  100 1    
   196   99  220 1    
   197  100  101 1    
   198  100  102 1    
   199  100  221 1    
   200  101  222 1    
   201  101  223 1    
   202  101  224 1    
   203  102  103 2    
   204  102  104 am   BACKBONE|DICT|INTERRES
   205  104  105 1    
   206  104  225 1    
   207  105  106 1    
   208  105  107 1    
   209  105  226 1    
   210  106  227 1    
   211  106  228 1    
   212  106  229 1    
   213  107  108 2    
   214  107  109 am   BACKBONE|DICT|INTERRES
   215  109  110 1    
   216  109  230 1    
   217  110  111 1    
   218  110  112 1    
   219  110  231 1    
   220  111  232 1    
   221  111  233 1    
   222  111  234 1    
   223  112  113 2    
   224  112  114 am   BACKBONE|DICT|INTERRES
   225  114  115 1    
   226  114  235 1    
   227  115  116 1    
   228  115  117 1    
   229  115  236 1    
   230  116  237 1    
   231  116  238 1    
   232  116  239 1    
   233  117  118 2    
   234  117  119 am   BACKBONE|DICT|INTERRES
   235  119  120 1    
   236  119  240 1    
   237  120  121 1    
   238  120  124 1    
   239  120  241 1    
   240  121  122 am   BACKBONE|DICT|INTERRES
   241  121  123 2    
   242  122  242 1    
   243  122  243 1    
   244  124  125 1    
   245  124  244 1    
   246  124  245 1    
   247  125  126 1    
   248  126  246 1    
   249  126  247 1    
@<TRIPOS>SUBSTRUCTURE
     1 UNK         1 GROUP             0       ****    0 ROOT    
