@<TRIPOS>MOLECULE
3R540
247   249    1
SMALL
USER_CHARGES


@<TRIPOS>ATOM
      1 CA          4.8459  -13.5761  -43.0128 C.3       0 UNK        -0.1800 
      2 C           3.9192  -13.8274  -44.1922 C.2       0 UNK         0.5000 
      3 O           2.7480  -14.1451  -43.9910 O.2       0 UNK        -0.5000 
      4 N           4.4336  -13.6914  -45.4195 N.am      1 UNK        -0.5000 
      5 CA          3.6805  -13.8472  -46.6741 C.3       1 UNK         0.1400 
      6 C6          4.4858  -14.6079  -47.7581 C.3       23 UNK        -0.0398 
      7 S7          4.9849  -16.2801  -47.2244 S.3       23 UNK        -0.2404 
      8 C8          5.6604  -16.9528  -48.7744 C.3       23 UNK        -0.0205 
      9 C9          4.6608  -17.8420  -49.5012 C.ar      23 UNK        -0.0193 
     10 C10         3.6820  -17.2858  -50.3290 C.ar      23 UNK        -0.1150 
     11 C11         2.7997  -18.1081  -51.0359 C.ar      23 UNK        -0.0193 
     12 C12         2.8932  -19.4957  -50.8984 C.ar      23 UNK        -0.1150 
     13 C13         3.8643  -20.0714  -50.0734 C.ar      23 UNK        -0.0193 
     14 C14         4.7476  -19.2320  -49.3806 C.ar      23 UNK        -0.1150 
     15 C15         3.9491  -21.5982  -49.9979 C.3       23 UNK        -0.0205 
     16 S16         4.7578  -22.2738  -48.5044 S.3       23 UNK        -0.2404 
     17 C17         3.6136  -21.7008  -47.2054 C.3       23 UNK        -0.0398 
     18 CA          2.7564  -22.8190  -46.5680 C.3       11 UNK         0.1400 
     19 N           2.0340  -22.3009  -45.4066 N.am      11 UNK        -0.5000 
     20 C           1.3535  -23.0254  -44.5090 C.2       10 UNK         0.5000 
     21 O           1.2991  -24.2553  -44.5139 O.2       10 UNK        -0.5000 
     22 CA          0.5896  -22.2294  -43.4348 C.3       10 UNK         0.1400 
     23 CB          1.5277  -21.7904  -42.2996 C.3       10 UNK        -0.1800 
     24 N          -0.0718  -21.0550  -44.0054 N.am      10 UNK        -0.5000 
     25 C          -1.1831  -21.1099  -44.7533 C.2       9 UNK         0.5000 
     26 O          -1.8166  -22.1450  -44.9556 O.2       9 UNK        -0.5000 
     27 CA         -1.6678  -19.7941  -45.3917 C.3       9 UNK         0.1400 
     28 CB         -2.7076  -19.1108  -44.4915 C.3       9 UNK        -0.1800 
     29 N          -0.5821  -18.8540  -45.6786 N.am      9 UNK        -0.5000 
     30 C           0.3542  -19.0491  -46.6178 C.2       8 UNK         0.5000 
     31 O           0.3998  -20.0460  -47.3345 O.2       8 UNK        -0.5000 
     32 CA          1.4607  -17.9880  -46.7371 C.3       8 UNK         0.1400 
     33 CB          0.9619  -16.7562  -47.5039 C.3       8 UNK        -0.1800 
     34 N           2.0021  -17.5867  -45.4379 N.am      8 UNK        -0.5000 
     35 C           2.6435  -18.4131  -44.5993 C.2       7 UNK         0.5000 
     36 O           2.8172  -19.6100  -44.8228 O.2       7 UNK        -0.5000 
     37 CA          3.1516  -17.8184  -43.2780 C.3       7 UNK         0.1400 
     38 CB          4.5898  -17.3061  -43.4342 C.3       7 UNK        -0.1800 
     39 N           2.2786  -16.7444  -42.8013 N.am      7 UNK        -0.5000 
     40 C           1.1889  -16.9612  -42.0537 C.2       6 UNK         0.5000 
     41 O           0.8417  -18.0731  -41.6532 O.2       6 UNK        -0.5000 
     42 CA          0.3265  -15.7317  -41.7173 C.3       6 UNK         0.1400 
     43 CB          0.9889  -14.8839  -40.6202 C.3       6 UNK        -0.1800 
     44 N           0.0321  -14.8781  -42.8687 N.am      6 UNK        -0.5000 
     45 C          -0.6027  -15.2581  -43.9854 C.2       5 UNK         0.5000 
     46 O          -0.9180  -16.4243  -44.2219 O.2       5 UNK        -0.5000 
     47 CA         -0.9294  -14.1579  -45.0187 C.3       5 UNK         0.1400 
     48 CB         -2.1740  -14.4972  -45.8647 C.3       5 UNK        -0.1800 
     49 N          -1.0503  -12.8054  -44.4619 N.am      5 UNK        -0.5000 
     50 C          -1.8921  -12.3696  -43.5100 C.2       4 UNK         0.5000 
     51 O          -2.6908  -13.0908  -42.9120 O.2       4 UNK        -0.5000 
     52 CA         -1.8250  -10.8686  -43.1556 C.3       4 UNK         0.1400 
     53 CB         -0.9166  -10.6532  -41.9349 C.3       4 UNK        -0.1800 
     54 N          -1.3415  -10.0333  -44.2577 N.am      4 UNK        -0.5000 
     55 C          -2.0239   -9.7805  -45.3841 C.2       3 UNK         0.5000 
     56 O          -3.1884  -10.1360  -45.5688 O.2       3 UNK        -0.5000 
     57 CA         -1.2768   -9.0251  -46.5062 C.3       3 UNK         0.1400 
     58 CB         -1.6475   -7.5342  -46.4852 C.3       3 UNK        -0.1800 
     59 N           0.1875   -9.1506  -46.4747 N.am      3 UNK        -0.5000 
     60 C           0.8731  -10.3014  -46.5286 C.2       2 UNK         0.5000 
     61 O           0.3252  -11.4047  -46.5685 O.2       2 UNK        -0.5000 
     62 CA          2.4145  -10.1988  -46.4913 C.3       2 UNK         0.1400 
     63 CB          2.9001   -9.2542  -45.3756 C.3       2 UNK        -0.1800 
     64 N           3.0338  -11.5064  -46.2767 N.am      2 UNK        -0.5000 
     65 C           3.1591  -12.4826  -47.1865 C.2       1 UNK         0.5000 
     66 O           2.8826  -12.3348  -48.3782 O.2       1 UNK        -0.5000 
     67 C           1.7968  -23.4777  -47.5828 C.2       11 UNK         0.5000 
     68 O           2.0539  -24.5968  -48.0317 O.2       11 UNK        -0.5000 
     69 N           0.6915  -22.7910  -47.9010 N.am      12 UNK        -0.5000 
     70 CA         -0.3842  -23.2601  -48.7714 C.3       12 UNK         0.1400 
     71 CB         -1.1664  -22.0412  -49.2932 C.3       12 UNK        -0.1800 
     72 C          -1.2836  -24.2848  -48.0496 C.2       12 UNK         0.5000 
     73 O          -2.4514  -24.0097  -47.7711 O.2       12 UNK        -0.5000 
     74 N          -0.7140  -25.4578  -47.7516 N.am      13 UNK        -0.5000 
     75 CA         -1.3933  -26.6088  -47.1571 C.3       13 UNK         0.1400 
     76 CB         -0.3497  -27.7048  -46.8909 C.3       13 UNK        -0.1800 
     77 C          -2.5361  -27.1476  -48.0426 C.2       13 UNK         0.5000 
     78 O          -2.5542  -26.8907  -49.2479 O.2       13 UNK        -0.5000 
     79 N          -3.4564  -27.8985  -47.4220 N.am      14 UNK        -0.5000 
     80 CA         -4.6748  -28.4617  -48.0150 C.3       14 UNK         0.1400 
     81 CB         -4.3505  -29.4571  -49.1505 C.3       14 UNK        -0.1800 
     82 C          -5.6612  -27.3550  -48.4374 C.2       14 UNK         0.5000 
     83 O          -5.9389  -27.1817  -49.6257 O.2       14 UNK        -0.5000 
     84 N          -6.1593  -26.6218  -47.4301 N.am      15 UNK        -0.5000 
     85 CA         -7.2010  -25.5913  -47.5128 C.3       15 UNK         0.1400 
     86 CB         -8.5608  -26.2334  -47.8625 C.3       15 UNK        -0.1800 
     87 C          -6.8280  -24.4375  -48.4628 C.2       15 UNK         0.5000 
     88 O          -7.5221  -24.2029  -49.4531 O.2       15 UNK        -0.5000 
     89 N          -5.7140  -23.7577  -48.1542 N.am      16 UNK        -0.5000 
     90 CA         -5.1447  -22.6361  -48.9131 C.3       16 UNK         0.1400 
     91 CB         -6.0833  -21.4119  -48.8703 C.3       16 UNK        -0.1800 
     92 C          -4.7441  -23.0447  -50.3465 C.2       16 UNK         0.5000 
     93 O          -4.9789  -22.2885  -51.2910 O.2       16 UNK        -0.5000 
     94 N          -4.1684  -24.2508  -50.4733 N.am      17 UNK        -0.5000 
     95 CA         -3.7932  -24.9293  -51.7170 C.3       17 UNK         0.1400 
     96 CB         -2.5971  -24.2197  -52.3849 C.3       17 UNK        -0.1800 
     97 C          -5.0034  -25.1202  -52.6519 C.2       17 UNK         0.5000 
     98 O          -4.9794  -24.6729  -53.7988 O.2       17 UNK        -0.5000 
     99 N          -6.0555  -25.7552  -52.1144 N.am      18 UNK        -0.5000 
    100 CA        -7.3624  -25.9885  -52.7367 C.3       18 UNK         0.1400 
    101 CB        -7.2414  -26.9864  -53.9073 C.3       18 UNK        -0.1800 
    102 C         -8.0711  -24.6728  -53.1237 C.2       18 UNK         0.5000 
    103 O         -8.5538  -24.5293  -54.2487 O.2       18 UNK        -0.5000 
    104 N         -8.1031  -23.7341  -52.1673 N.am      19 UNK        -0.5000 
    105 CA        -8.6993  -22.3973  -52.2373 C.3       19 UNK         0.1400 
    106 CB       -10.2322  -22.4907  -52.3874 C.3       19 UNK        -0.1800 
    107 C         -8.0492  -21.4613  -53.2798 C.2       19 UNK         0.5000 
    108 O         -8.7016  -20.5250  -53.7456 O.2       19 UNK        -0.5000 
    109 N         -6.7750  -21.7041  -53.6171 N.am      20 UNK        -0.5000 
    110 CA        -5.9776  -20.8387  -54.4860 C.3       20 UNK         0.1400 
    111 CB        -4.7600  -21.6097  -55.0142 C.3       20 UNK        -0.1800 
    112 C         -5.5338  -19.5588  -53.7583 C.2       20 UNK         0.5000 
    113 O         -5.5793  -18.4808  -54.3521 O.2       20 UNK        -0.5000 
    114 N         -5.1228  -19.7061  -52.4879 N.am      21 UNK        -0.5000 
    115 CA        -4.7637  -18.6480  -51.5342 C.3       21 UNK         0.1400 
    116 CB        -6.0461  -17.9645  -51.0178 C.3       21 UNK        -0.1800 
    117 C         -3.7214  -17.6396  -52.0683 C.2       21 UNK         0.5000 
    118 O         -3.8545  -16.4356  -51.8415 O.2       21 UNK        -0.5000 
    119 N         -2.7208  -18.1574  -52.7942 N.am      22 UNK        -0.5000 
    120 CA        -1.6746  -17.4006  -53.5089 C.3       22 UNK         0.1400 
    121 C         -2.1804  -16.5909  -54.7456 C.2       22 UNK         0.5000 
    122 N         -3.4131  -16.7587  -55.2093 N.am      22 UNK        -0.7600 
    123 O         -1.4265  -15.8159  -55.3283 O.2       22 UNK        -0.5000 
    124 C124       -0.7791  -16.5364  -52.5727 C.3       23 UNK        -0.0398 
    125 S125        0.0991  -17.5133  -51.3036 S.3       23 UNK        -0.2404 
    126 C126        1.7835  -17.5012  -51.9909 C.3       23 UNK        -0.0205 
    127 H127        4.5564  -12.6592  -42.4997 H         1 UNK         0.0600 
    128 H128        5.8850  -13.4803  -43.3281 H         1 UNK         0.0600 
    129 H129        4.7813  -14.3984  -42.3009 H         1 UNK         0.0600 
    130 H130        5.4046  -13.4325  -45.5250 H         1 UNK         0.3000 
    131 H131        2.7844  -14.4372  -46.4758 H         1 UNK         0.0600 
    132 H132        3.8920  -14.7127  -48.6668 H         1 UNK         0.0800 
    133 H133        5.3802  -14.0472  -48.0345 H         1 UNK         0.0800 
    134 H134        5.9866  -16.1439  -49.4298 H         1 UNK         0.0800 
    135 H135        6.5600  -17.5225  -48.5370 H         1 UNK         0.0800 
    136 H136        3.6220  -16.2132  -50.4427 H         1 UNK         0.1150 
    137 H137        2.2143  -20.1295  -51.4520 H         1 UNK         0.1150 
    138 H138        5.5198  -19.6534  -48.7540 H         1 UNK         0.1150 
    139 H139        2.9475  -22.0257  -50.0685 H         1 UNK         0.0800 
    140 H140        4.4962  -21.9522  -50.8724 H         1 UNK         0.0800 
    141 H141        2.9769  -20.9025  -47.5885 H         1 UNK         0.0800 
    142 H142        4.2308  -21.2355  -46.4357 H         1 UNK         0.0800 
    143 H143        3.4322  -23.5960  -46.2046 H         1 UNK         0.0600 
    144 H144        2.0775  -21.2939  -45.2758 H         1 UNK         0.3000 
    145 H145       -0.1719  -22.8854  -43.0072 H         1 UNK         0.0600 
    146 H146        0.9827  -21.2516  -41.5241 H         1 UNK         0.0600 
    147 H147        1.9971  -22.6544  -41.8278 H         1 UNK         0.0600 
    148 H148        2.3257  -21.1404  -42.6584 H         1 UNK         0.0600 
    149 H149        0.3895  -20.1645  -43.8885 H         1 UNK         0.3000 
    150 H150       -2.1523  -20.0474  -46.3371 H         1 UNK         0.0600 
    151 H151       -3.5478  -19.7758  -44.2883 H         1 UNK         0.0600 
    152 H152       -3.1086  -18.2136  -44.9637 H         1 UNK         0.0600 
    153 H153       -2.2773  -18.8196  -43.5323 H         1 UNK         0.0600 
    154 H154       -0.5691  -17.9977  -45.1275 H         1 UNK         0.3000 
    155 H155        2.2759  -18.4301  -47.3147 H         1 UNK         0.0600 
    156 H156        0.4763  -17.0499  -48.4340 H         1 UNK         0.0600 
    157 H157        1.7866  -16.0982  -47.7719 H         1 UNK         0.0600 
    158 H158        0.2380  -16.1845  -46.9262 H         1 UNK         0.0600 
    159 H159        1.8800  -16.6242  -45.1635 H         1 UNK         0.3000 
    160 H160        3.1720  -18.6223  -42.5388 H         1 UNK         0.0600 
    161 H161        4.6705  -16.5553  -44.2183 H         1 UNK         0.0600 
    162 H162        5.2622  -18.1221  -43.7020 H         1 UNK         0.0600 
    163 H163        4.9599  -16.8726  -42.5054 H         1 UNK         0.0600 
    164 H164        2.4686  -15.7993  -43.1252 H         1 UNK         0.3000 
    165 H165       -0.6282  -16.0972  -41.3336 H         1 UNK         0.0600 
    166 H166        0.3339  -14.0737  -40.2991 H         1 UNK         0.0600 
    167 H167        1.2130  -15.4882  -39.7402 H         1 UNK         0.0600 
    168 H168        1.9254  -14.4419  -40.9635 H         1 UNK         0.0600 
    169 H169        0.3113  -13.9113  -42.7954 H         1 UNK         0.3000 
    170 H170       -0.0722  -14.1215  -45.6920 H         1 UNK         0.0600 
    171 H171       -2.0497  -15.4411  -46.3965 H         1 UNK         0.0600 
    172 H172       -3.0678  -14.5867  -45.2466 H         1 UNK         0.0600 
    173 H173       -2.3599  -13.7276  -46.6140 H         1 UNK         0.0600 
    174 H174       -0.4750  -12.1162  -44.9360 H         1 UNK         0.3000 
    175 H175       -2.8345  -10.5439  -42.8948 H         1 UNK         0.0600 
    176 H176        0.1140  -10.9442  -42.1424 H         1 UNK         0.0600 
    177 H177       -0.9150   -9.6084  -41.6237 H         1 UNK         0.0600 
    178 H178       -1.2590  -11.2436  -41.0838 H         1 UNK         0.0600 
    179 H179       -0.3975   -9.6849  -44.1847 H         1 UNK         0.3000 
    180 H180       -1.6172   -9.4469  -47.4541 H         1 UNK         0.0600 
    181 H181       -1.2995   -7.0467  -45.5736 H         1 UNK         0.0600 
    182 H182       -2.7286   -7.3983  -46.5378 H         1 UNK         0.0600 
    183 H183       -1.2148   -7.0069  -47.3357 H         1 UNK         0.0600 
    184 H184        0.7035   -8.2837  -46.4314 H         1 UNK         0.3000 
    185 H185        2.7463   -9.8053  -47.4541 H         1 UNK         0.0600 
    186 H186        2.5267   -9.5600  -44.3973 H         1 UNK         0.0600 
    187 H187        3.9891   -9.2354  -45.3243 H         1 UNK         0.0600 
    188 H188        2.5766   -8.2273  -45.5479 H         1 UNK         0.0600 
    189 H189        3.2656  -11.7367  -45.3223 H         1 UNK         0.3000 
    190 H190        0.5655  -21.8580  -47.5129 H         1 UNK         0.3000 
    191 H191        0.0582  -23.7606  -49.6352 H         1 UNK         0.0600 
    192 H192       -1.9229  -22.3423  -50.0163 H         1 UNK         0.0600 
    193 H193       -1.6711  -21.5093  -48.4859 H         1 UNK         0.0600 
    194 H194       -0.5057  -21.3337  -49.7950 H         1 UNK         0.0600 
    195 H195        0.2674  -25.5719  -47.9789 H         1 UNK         0.3000 
    196 H196       -1.8192  -26.2864  -46.2048 H         1 UNK         0.0600 
    197 H197       -0.8007  -28.5716  -46.4063 H         1 UNK         0.0600 
    198 H198        0.4421  -27.3430  -46.2341 H         1 UNK         0.0600 
    199 H199        0.1136  -28.0499  -47.8162 H         1 UNK         0.0600 
    200 H200       -3.3450  -28.0623  -46.4310 H         1 UNK         0.3000 
    201 H201       -5.1667  -29.0314  -47.2250 H         1 UNK         0.0600 
    202 H202       -3.6631  -30.2317  -48.8109 H         1 UNK         0.0600 
    203 H203       -3.9036  -28.9688  -50.0166 H         1 UNK         0.0600 
    204 H204       -5.2571  -29.9553  -49.4958 H         1 UNK         0.0600 
    205 H205       -5.8278  -26.8221  -46.4970 H         1 UNK         0.3000 
    206 H206       -7.2920  -25.1549  -46.5170 H         1 UNK         0.0600 
    207 H207       -8.8270  -27.0085  -47.1440 H         1 UNK         0.0600 
    208 H208       -9.3584  -25.4896  -47.8473 H         1 UNK         0.0600 
    209 H209       -8.5552  -26.6849  -48.8553 H         1 UNK         0.0600 
    210 H210       -5.1737  -24.0533  -47.3524 H         1 UNK         0.3000 
    211 H211       -4.2267  -22.3417  -48.4062 H         1 UNK         0.0600 
    212 H212       -7.0001  -21.5776  -49.4350 H         1 UNK         0.0600 
    213 H213       -5.5952  -20.5343  -49.2910 H         1 UNK         0.0600 
    214 H214       -6.3610  -21.1641  -47.8459 H         1 UNK         0.0600 
    215 H215       -4.0116  -24.7860  -49.6293 H         1 UNK         0.3000 
    216 H216       -3.4668  -25.9333  -51.4474 H         1 UNK         0.0600 
    217 H217       -2.2981  -24.7339  -53.2988 H         1 UNK         0.0600 
    218 H218       -1.7316  -24.2096  -51.7229 H         1 UNK         0.0600 
    219 H219       -2.8275  -23.1882  -52.6491 H         1 UNK         0.0600 
    220 H220       -5.9710  -26.1018  -51.1604 H         1 UNK         0.3000 
    221 H221       -7.9829  -26.4550  -51.9701 H         1 UNK         0.0600 
    222 H222       -6.6629  -26.5751  -54.7350 H         1 UNK         0.0600 
    223 H223       -6.7599  -27.9106  -53.5877 H         1 UNK         0.0600 
    224 H224       -8.2252  -27.2511  -54.2964 H         1 UNK         0.0600 
    225 H225       -7.7053  -23.9684  -51.2586 H         1 UNK         0.3000 
    226 H226       -8.4989  -21.9381  -51.2691 H         1 UNK         0.0600 
    227 H227      -10.6632  -23.1416  -51.6267 H         1 UNK         0.0600 
    228 H228      -10.6983  -21.5112  -52.2739 H         1 UNK         0.0600 
    229 H229      -10.5208  -22.8781  -53.3647 H         1 UNK         0.0600 
    230 H230       -6.2890  -22.4685  -53.1643 H         1 UNK         0.3000 
    231 H231       -6.5876  -20.5455  -55.3431 H         1 UNK         0.0600 
    232 H232       -4.1565  -20.9849  -55.6738 H         1 UNK         0.0600 
    233 H233       -5.0674  -22.4855  -55.5859 H         1 UNK         0.0600 
    234 H234       -4.1169  -21.9498  -54.2026 H         1 UNK         0.0600 
    235 H235       -5.1016  -20.6528  -52.1108 H         1 UNK         0.3000 
    236 H236       -4.2869  -19.1457  -50.6893 H         1 UNK         0.0600 
    237 H237       -6.7506  -18.6952  -50.6205 H         1 UNK         0.0600 
    238 H238       -5.8221  -17.2614  -50.2147 H         1 UNK         0.0600 
    239 H239       -6.5516  -17.4109  -51.8099 H         1 UNK         0.0600 
    240 H240       -2.7092  -19.1567  -52.9362 H         1 UNK         0.3000 
    241 H241       -1.0279  -18.1628  -53.9447 H         1 UNK         0.0600 
    242 H242       -3.7067  -16.2324  -56.0166 H         1 UNK         0.3800 
    243 H243       -4.0749  -17.3863  -54.7610 H         1 UNK         0.3800 
    244 H244       -0.0392  -15.9848  -53.1542 H         1 UNK         0.0800 
    245 H245       -1.3708  -15.7727  -52.0679 H         1 UNK         0.0800 
    246 H246        1.7919  -18.0524  -52.9324 H         1 UNK         0.0800 
    247 H247        2.0692  -16.4761  -52.2320 H         1 UNK         0.0800 
@<TRIPOS>BOND
     1    1    2 1    
     2    1  127 1    
     3    1  128 1    
     4    1  129 1    
     5    2    3 2    
     6    2    4 am   BACKBONE|DICT|INTERRES
     7    4    5 1    
     8    4  130 1    
     9    5    6 1    
    10    5   65 1    
    11    5  131 1    
    12    6    7 1    
    13    6  132 1    
    14    6  133 1    
    15    7    8 1    
    16    8    9 1    
    17    8  134 1    
    18    8  135 1    
    19    9   10 ar   
    20    9   14 ar   
    21   10   11 ar   
    22   10  136 1    
    23   11   12 ar   
    24   11  126 1    
    25   12   13 ar   
    26   12  137 1    
    27   13   14 ar   
    28   13   15 1    
    29   14  138 1    
    30   15   16 1    
    31   15  139 1    
    32   15  140 1    
    33   16   17 1    
    34   17   18 1    
    35   17  141 1    
    36   17  142 1    
    37   18   19 1    
    38   18   67 1    
    39   18  143 1    
    40   19   20 am   BACKBONE|DICT|INTERRES
    41   19  144 1    
    42   20   21 2    
    43   20   22 1    
    44   22   23 1    
    45   22   24 1    
    46   22  145 1    
    47   23  146 1    
    48   23  147 1    
    49   23  148 1    
    50   24   25 am   BACKBONE|DICT|INTERRES
    51   24  149 1    
    52   25   26 2    
    53   25   27 1    
    54   27   28 1    
    55   27   29 1    
    56   27  150 1    
    57   28  151 1    
    58   28  152 1    
    59   28  153 1    
    60   29   30 am   BACKBONE|DICT|INTERRES
    61   29  154 1    
    62   30   31 2    
    63   30   32 1    
    64   32   33 1    
    65   32   34 1    
    66   32  155 1    
    67   33  156 1    
    68   33  157 1    
    69   33  158 1    
    70   34   35 am   BACKBONE|DICT|INTERRES
    71   34  159 1    
    72   35   36 2    
    73   35   37 1    
    74   37   38 1    
    75   37   39 1    
    76   37  160 1    
    77   38  161 1    
    78   38  162 1    
    79   38  163 1    
    80   39   40 am   BACKBONE|DICT|INTERRES
    81   39  164 1    
    82   40   41 2    
    83   40   42 1    
    84   42   43 1    
    85   42   44 1    
    86   42  165 1    
    87   43  166 1    
    88   43  167 1    
    89   43  168 1    
    90   44   45 am   BACKBONE|DICT|INTERRES
    91   44  169 1    
    92   45   46 2    
    93   45   47 1    
    94   47   48 1    
    95   47   49 1    
    96   47  170 1    
    97   48  171 1    
    98   48  172 1    
    99   48  173 1    
   100   49   50 am   BACKBONE|DICT|INTERRES
   101   49  174 1    
   102   50   51 2    
   103   50   52 1    
   104   52   53 1    
   105   52   54 1    
   106   52  175 1    
   107   53  176 1    
   108   53  177 1    
   109   53  178 1    
   110   54   55 am   BACKBONE|DICT|INTERRES
   111   54  179 1    
   112   55   56 2    
   113   55   57 1    
   114   57   58 1    
   115   57   59 1    
   116   57  180 1    
   117   58  181 1    
   118   58  182 1    
   119   58  183 1    
   120   59   60 am   BACKBONE|DICT|INTERRES
   121   59  184 1    
   122   60   61 2    
   123   60   62 1    
   124   62   63 1    
   125   62   64 1    
   126   62  185 1    
   127   63  186 1    
   128   63  187 1    
   129   63  188 1    
   130   64   65 am   BACKBONE|DICT|INTERRES
   131   64  189 1    
   132   65   66 2    
   133   67   68 2    
   134   67   69 am   BACKBONE|DICT|INTERRES
   135   69   70 1    
   136   69  190 1    
   137   70   71 1    
   138   70   72 1    
   139   70  191 1    
   140   71  192 1    
   141   71  193 1    
   142   71  194 1    
   143   72   73 2    
   144   72   74 am   BACKBONE|DICT|INTERRES
   145   74   75 1    
   146   74  195 1    
   147   75   76 1    
   148   75   77 1    
   149   75  196 1    
   150   76  197 1    
   151   76  198 1    
   152   76  199 1    
   153   77   78 2    
   154   77   79 am   BACKBONE|DICT|INTERRES
   155   79   80 1    
   156   79  200 1    
   157   80   81 1    
   158   80   82 1    
   159   80  201 1    
   160   81  202 1    
   161   81  203 1    
   162   81  204 1    
   163   82   83 2    
   164   82   84 am   BACKBONE|DICT|INTERRES
   165   84   85 1    
   166   84  205 1    
   167   85   86 1    
   168   85   87 1    
   169   85  206 1    
   170   86  207 1    
   171   86  208 1    
   172   86  209 1    
   173   87   88 2    
   174   87   89 am   BACKBONE|DICT|INTERRES
   175   89   90 1    
   176   89  210 1    
   177   90   91 1    
   178   90   92 1    
   179   90  211 1    
   180   91  212 1    
   181   91  213 1    
   182   91  214 1    
   183   92   93 2    
   184   92   94 am   BACKBONE|DICT|INTERRES
   185   94   95 1    
   186   94  215 1    
   187   95   96 1    
   188   95   97 1    
   189   95  216 1    
   190   96  217 1    
   191   96  218 1    
   192   96  219 1    
   193   97   98 2    
   194   97   99 am   BACKBONE|DICT|INTERRES
   195   99  100 1    
   196   99  220 1    
   197  100  101 1    
   198  100  102 1    
   199  100  221 1    
   200  101  222 1    
   201  101  223 1    
   202  101  224 1    
   203  102  103 2    
   204  102  104 am   BACKBONE|DICT|INTERRES
   205  104  105 1    
   206  104  225 1    
   207  105  106 1    
   208  105  107 1    
   209  105  226 1    
   210  106  227 1    
   211  106  228 1    
   212  106  229 1    
   213  107  108 2    
   214  107  109 am   BACKBONE|DICT|INTERRES
   215  109  110 1    
   216  109  230 1    
   217  110  111 1    
   218  110  112 1    
   219  110  231 1    
   220  111  232 1    
   221  111  233 1    
   222  111  234 1    
   223  112  113 2    
   224  112  114 am   BACKBONE|DICT|INTERRES
   225  114  115 1    
   226  114  235 1    
   227  115  116 1    
   228  115  117 1    
   229  115  236 1    
   230  116  237 1    
   231  116  238 1    
   232  116  239 1    
   233  117  118 2    
   234  117  119 am   BACKBONE|DICT|INTERRES
   235  119  120 1    
   236  119  240 1    
   237  120  121 1    
   238  120  124 1    
   239  120  241 1    
   240  121  122 am   BACKBONE|DICT|INTERRES
   241  121  123 2    
   242  122  242 1    
   243  122  243 1    
   244  124  125 1    
   245  124  244 1    
   246  124  245 1    
   247  125  126 1    
   248  126  246 1    
   249  126  247 1    
@<TRIPOS>SUBSTRUCTURE
     1 UNK         1 GROUP             0       ****    0 ROOT    
