@<TRIPOS>MOLECULE
3R540
247   249    1
SMALL
USER_CHARGES


@<TRIPOS>ATOM
      1 CA         -2.8007   -9.9612  -48.0446 C.3       0 UNK        -0.1800 
      2 C          -2.5569  -11.4524  -48.2293 C.2       0 UNK         0.5000 
      3 O          -3.2565  -12.2637  -47.6237 O.2       0 UNK        -0.5000 
      4 N          -1.5691  -11.8090  -49.0630 N.am      1 UNK        -0.5000 
      5 CA         -1.1441  -13.1814  -49.3751 C.3       1 UNK         0.1400 
      6 C6         -2.2469  -14.0008  -50.1099 C.3       23 UNK        -0.0398 
      7 S7         -1.7569  -15.4586  -51.1182 S.3       23 UNK        -0.2404 
      8 C8          0.0626  -15.4311  -51.2518 C.3       23 UNK        -0.0205 
      9 C9          0.6108  -16.8128  -51.5617 C.ar      23 UNK        -0.0193 
     10 C10         1.0986  -17.1194  -52.8334 C.ar      23 UNK        -0.1150 
     11 C11         1.6331  -18.3832  -53.0973 C.ar      23 UNK        -0.0193 
     12 C12         1.6822  -19.3373  -52.0768 C.ar      23 UNK        -0.1150 
     13 C13         1.2096  -19.0431  -50.7938 C.ar      23 UNK        -0.0193 
     14 C14         0.6627  -17.7768  -50.5508 C.ar      23 UNK        -0.1150 
     15 C15         1.3143  -20.1196  -49.7125 C.3       23 UNK        -0.0205 
     16 S16         1.2885  -19.5059  -47.9905 S.3       23 UNK        -0.2404 
     17 C17        -0.4626  -19.7676  -47.5441 C.3       23 UNK        -0.0398 
     18 CA         -0.6519  -21.1538  -46.8873 C.3       11 UNK         0.1400 
     19 N           0.0192  -21.2682  -45.5893 N.am      11 UNK        -0.5000 
     20 C           0.3041  -22.4377  -45.0020 C.2       10 UNK         0.5000 
     21 O           0.0253  -23.5305  -45.4952 O.2       10 UNK        -0.5000 
     22 CA          0.9796  -22.3824  -43.6206 C.3       10 UNK         0.1400 
     23 CB          2.4721  -22.0451  -43.7541 C.3       10 UNK        -0.1800 
     24 N           0.3345  -21.4366  -42.7092 N.am      10 UNK        -0.5000 
     25 C          -0.9285  -21.5488  -42.2734 C.2       9 UNK         0.5000 
     26 O          -1.6788  -22.4735  -42.5839 O.2       9 UNK        -0.5000 
     27 CA         -1.4604  -20.4221  -41.3701 C.3       9 UNK         0.1400 
     28 CB         -0.9680  -20.6000  -39.9262 C.3       9 UNK        -0.1800 
     29 N          -1.1016  -19.0886  -41.8508 N.am      9 UNK        -0.5000 
     30 C          -1.4799  -18.5738  -43.0300 C.2       8 UNK         0.5000 
     31 O          -2.1949  -19.1599  -43.8410 O.2       8 UNK        -0.5000 
     32 CA         -0.9100  -17.1919  -43.3894 C.3       8 UNK         0.1400 
     33 CB         -1.6155  -16.0908  -42.5797 C.3       8 UNK        -0.1800 
     34 N           0.5377  -17.1266  -43.1819 N.am      8 UNK        -0.5000 
     35 C           1.4303  -17.9262  -43.7866 C.2       7 UNK         0.5000 
     36 O           1.1354  -18.7703  -44.6312 O.2       7 UNK        -0.5000 
     37 CA          2.8910  -17.8051  -43.3236 C.3       7 UNK         0.1400 
     38 CB          3.5995  -16.6389  -44.0293 C.3       7 UNK        -0.1800 
     39 N           2.9845  -17.6444  -41.8724 N.am      7 UNK        -0.5000 
     40 C           2.7000  -18.6118  -40.9881 C.2       6 UNK         0.5000 
     41 O           2.3723  -19.7547  -41.3065 O.2       6 UNK        -0.5000 
     42 CA          2.7494  -18.2223  -39.4991 C.3       6 UNK         0.1400 
     43 CB          4.1908  -18.2762  -38.9714 C.3       6 UNK        -0.1800 
     44 N           2.1903  -16.8926  -39.2501 N.am      6 UNK        -0.5000 
     45 C           0.8978  -16.5741  -39.4102 C.2       5 UNK         0.5000 
     46 O           0.0314  -17.3868  -39.7321 O.2       5 UNK        -0.5000 
     47 CA          0.5193  -15.0900  -39.2286 C.3       5 UNK         0.1400 
     48 CB          0.1574  -14.8026  -37.7641 C.3       5 UNK        -0.1800 
     49 N           1.5641  -14.1550  -39.6638 N.am      5 UNK        -0.5000 
     50 C           2.0477  -14.0834  -40.9106 C.2       4 UNK         0.5000 
     51 O           1.6671  -14.8148  -41.8296 O.2       4 UNK        -0.5000 
     52 CA          3.1741  -13.0701  -41.1633 C.3       4 UNK         0.1400 
     53 CB          4.4655  -13.5074  -40.4425 C.3       4 UNK        -0.1800 
     54 N           3.4000  -13.0033  -42.6030 N.am      4 UNK        -0.5000 
     55 C           4.1362  -12.1069  -43.2696 C.2       3 UNK         0.5000 
     56 O           4.7028  -11.1535  -42.7342 O.2       3 UNK        -0.5000 
     57 CA          4.2766  -12.3158  -44.7912 C.3       3 UNK         0.1400 
     58 CB          5.6140  -13.0040  -45.1082 C.3       3 UNK        -0.1800 
     59 N           3.1899  -13.1270  -45.3471 N.am      3 UNK        -0.5000 
     60 C           2.0220  -12.6342  -45.7738 C.2       2 UNK         0.5000 
     61 O           1.7563  -11.4310  -45.8297 O.2       2 UNK        -0.5000 
     62 CA          0.9594  -13.6616  -46.1787 C.3       2 UNK         0.1400 
     63 CB          0.0035  -13.9276  -45.0048 C.3       2 UNK        -0.1800 
     64 N           0.2246  -13.1572  -47.3326 N.am      2 UNK        -0.5000 
     65 C          -0.5488  -13.8981  -48.1355 C.2       1 UNK         0.5000 
     66 O          -0.7732  -15.0929  -47.9364 O.2       1 UNK        -0.5000 
     67 C          -2.1345  -21.5684  -46.8132 C.2       11 UNK         0.5000 
     68 O          -2.6274  -22.1727  -47.7664 O.2       11 UNK        -0.5000 
     69 N          -2.8063  -21.3012  -45.6822 N.am      12 UNK        -0.5000 
     70 CA         -4.1531  -21.7949  -45.3868 C.3       12 UNK         0.1400 
     71 CB         -4.6934  -21.1481  -44.1032 C.3       12 UNK        -0.1800 
     72 C          -4.2000  -23.3297  -45.2930 C.2       12 UNK         0.5000 
     73 O          -5.0622  -23.9430  -45.9238 O.2       12 UNK        -0.5000 
     74 N          -3.2433  -23.9181  -44.5578 N.am      13 UNK        -0.5000 
     75 CA         -3.0573  -25.3656  -44.4214 C.3       13 UNK         0.1400 
     76 CB         -1.9651  -25.6552  -43.3813 C.3       13 UNK        -0.1800 
     77 C          -2.7412  -26.0636  -45.7574 C.2       13 UNK         0.5000 
     78 O          -3.2150  -27.1768  -45.9850 O.2       13 UNK        -0.5000 
     79 N          -2.0229  -25.3717  -46.6524 N.am      14 UNK        -0.5000 
     80 CA         -1.7720  -25.7580  -48.0445 C.3       14 UNK         0.1400 
     81 CB         -0.5116  -25.0288  -48.5435 C.3       14 UNK        -0.1800 
     82 C          -2.9916  -25.5167  -48.9674 C.2       14 UNK         0.5000 
     83 O          -2.8243  -25.0802  -50.1080 O.2       14 UNK        -0.5000 
     84 N          -4.1986  -25.8000  -48.4562 N.am      15 UNK        -0.5000 
     85 CA         -5.5081  -25.6945  -49.1045 C.3       15 UNK         0.1400 
     86 CB         -5.6674  -26.8139  -50.1540 C.3       15 UNK        -0.1800 
     87 C          -5.7983  -24.2914  -49.6749 C.2       15 UNK         0.5000 
     88 O          -6.2928  -24.1799  -50.7966 O.2       15 UNK        -0.5000 
     89 N          -5.4602  -23.2478  -48.9028 N.am      16 UNK        -0.5000 
     90 CA         -5.5515  -21.8269  -49.2655 C.3       16 UNK         0.1400 
     91 CB         -7.0262  -21.3824  -49.3556 C.3       16 UNK        -0.1800 
     92 C          -4.7433  -21.5050  -50.5395 C.2       16 UNK         0.5000 
     93 O          -5.2982  -21.0020  -51.5176 O.2       16 UNK        -0.5000 
     94 N          -3.4504  -21.8579  -50.5081 N.am      17 UNK        -0.5000 
     95 CA         -2.4837  -21.7816  -51.6095 C.3       17 UNK         0.1400 
     96 CB         -2.1312  -20.3116  -51.9223 C.3       17 UNK        -0.1800 
     97 C          -2.9561  -22.5694  -52.8511 C.2       17 UNK         0.5000 
     98 O          -2.9809  -22.0284  -53.9586 O.2       17 UNK        -0.5000 
     99 N          -3.3607  -23.8276  -52.6193 N.am      18 UNK        -0.5000 
    100 CA        -3.9157  -24.7790  -53.5879 C.3       18 UNK         0.1400 
    101 CB        -2.8109  -25.2731  -54.5438 C.3       18 UNK        -0.1800 
    102 C         -5.1574  -24.2288  -54.3228 C.2       18 UNK         0.5000 
    103 O         -5.2147  -24.2571  -55.5527 O.2       18 UNK        -0.5000 
    104 N         -6.1188  -23.7177  -53.5410 N.am      19 UNK        -0.5000 
    105 CA        -7.3415  -23.0293  -53.9636 C.3       19 UNK         0.1400 
    106 CB        -8.3015  -23.9999  -54.6829 C.3       19 UNK        -0.1800 
    107 C         -7.0391  -21.7500  -54.7715 C.2       19 UNK         0.5000 
    108 O         -7.6228  -21.5311  -55.8350 O.2       19 UNK        -0.5000 
    109 N         -6.1184  -20.9355  -54.2357 N.am      20 UNK        -0.5000 
    110 CA        -5.6081  -19.6752  -54.7783 C.3       20 UNK         0.1400 
    111 CB        -6.6976  -18.5845  -54.7254 C.3       20 UNK        -0.1800 
    112 C         -4.9682  -19.8265  -56.1743 C.2       20 UNK         0.5000 
    113 O         -5.1873  -18.9861  -57.0500 O.2       20 UNK        -0.5000 
    114 N         -4.1603  -20.8822  -56.3550 N.am      21 UNK        -0.5000 
    115 CA        -3.4484  -21.1925  -57.6013 C.3       21 UNK         0.1400 
    116 CB        -2.7413  -22.5485  -57.4635 C.3       21 UNK        -0.1800 
    117 C         -2.4346  -20.1077  -58.0117 C.2       21 UNK         0.5000 
    118 O         -2.1849  -19.9208  -59.2033 O.2       21 UNK        -0.5000 
    119 N         -1.8960  -19.4008  -57.0130 N.am      22 UNK        -0.5000 
    120 CA        -1.0196  -18.2328  -57.1689 C.3       22 UNK         0.1400 
    121 C         -1.7645  -16.9204  -57.5619 C.2       22 UNK         0.5000 
    122 N         -3.0911  -16.8866  -57.6346 N.am      22 UNK        -0.7600 
    123 O         -1.1210  -15.9063  -57.8180 O.2       22 UNK        -0.5000 
    124 C124       -0.1455  -18.0210  -55.9079 C.3       23 UNK        -0.0398 
    125 S125        0.9059  -19.4675  -55.5375 S.3       23 UNK        -0.2404 
    126 C126        2.1775  -18.7151  -54.4779 C.3       23 UNK        -0.0205 
    127 H127       -2.1160   -9.3600  -48.6434 H         1 UNK         0.0600 
    128 H128       -2.6675   -9.6867  -46.9982 H         1 UNK         0.0600 
    129 H129       -3.8198   -9.7085  -48.3376 H         1 UNK         0.0600 
    130 H130       -1.0414  -11.0816  -49.5259 H         1 UNK         0.3000 
    131 H131       -0.3177  -13.0370  -50.0701 H         1 UNK         0.0600 
    132 H132       -3.0045  -14.3312  -49.3974 H         1 UNK         0.0800 
    133 H133       -2.7757  -13.3375  -50.7956 H         1 UNK         0.0800 
    134 H134        0.3583  -14.7106  -52.0159 H         1 UNK         0.0800 
    135 H135        0.5334  -15.1128  -50.3254 H         1 UNK         0.0800 
    136 H136        1.0675  -16.3740  -53.6154 H         1 UNK         0.1150 
    137 H137        2.0994  -20.3132  -52.2826 H         1 UNK         0.1150 
    138 H138        0.2796  -17.5216  -49.5731 H         1 UNK         0.1150 
    139 H139        0.5217  -20.8538  -49.8620 H         1 UNK         0.0800 
    140 H140        2.2536  -20.6588  -49.8450 H         1 UNK         0.0800 
    141 H141       -1.0762  -19.6637  -48.4411 H         1 UNK         0.0800 
    142 H142       -0.7754  -18.9737  -46.8634 H         1 UNK         0.0800 
    143 H143       -0.1803  -21.8815  -47.5509 H         1 UNK         0.0600 
    144 H144        0.3161  -20.3997  -45.1496 H         1 UNK         0.3000 
    145 H145        0.8987  -23.3760  -43.1751 H         1 UNK         0.0600 
    146 H146        2.9737  -22.0877  -42.7872 H         1 UNK         0.0600 
    147 H147        2.9748  -22.7539  -44.4131 H         1 UNK         0.0600 
    148 H148        2.6253  -21.0480  -44.1669 H         1 UNK         0.0600 
    149 H149        0.9026  -20.6638  -42.3777 H         1 UNK         0.3000 
    150 H150       -2.5501  -20.4883  -41.3661 H         1 UNK         0.0600 
    151 H151       -1.4137  -19.8572  -39.2644 H         1 UNK         0.0600 
    152 H152       -1.2370  -21.5838  -39.5397 H         1 UNK         0.0600 
    153 H153        0.1156  -20.5027  -39.8545 H         1 UNK         0.0600 
    154 H154       -0.5364  -18.5190  -41.2277 H         1 UNK         0.3000 
    155 H155       -1.0972  -17.0141  -44.4503 H         1 UNK         0.0600 
    156 H156       -1.5632  -16.2760  -41.5078 H         1 UNK         0.0600 
    157 H157       -2.6716  -16.0359  -42.8459 H         1 UNK         0.0600 
    158 H158       -1.1834  -15.1087  -42.7626 H         1 UNK         0.0600 
    159 H159        0.8775  -16.4303  -42.5253 H         1 UNK         0.3000 
    160 H160        3.4076  -18.7275  -43.5974 H         1 UNK         0.0600 
    161 H161        3.1147  -15.6872  -43.8211 H         1 UNK         0.0600 
    162 H162        3.5926  -16.7809  -45.1108 H         1 UNK         0.0600 
    163 H163        4.6412  -16.5618  -43.7175 H         1 UNK         0.0600 
    164 H164        3.1822  -16.7165  -41.5297 H         1 UNK         0.3000 
    165 H165        2.1547  -18.9513  -38.9443 H         1 UNK         0.0600 
    166 H166        4.2259  -18.0769  -37.9002 H         1 UNK         0.0600 
    167 H167        4.6278  -19.2629  -39.1318 H         1 UNK         0.0600 
    168 H168        4.8319  -17.5480  -39.4700 H         1 UNK         0.0600 
    169 H169        2.8354  -16.1661  -38.9776 H         1 UNK         0.3000 
    170 H170       -0.3654  -14.9018  -39.8400 H         1 UNK         0.0600 
    171 H171       -0.6340  -15.4697  -37.4194 H         1 UNK         0.0600 
    172 H172        1.0139  -14.9399  -37.1028 H         1 UNK         0.0600 
    173 H173       -0.2038  -13.7816  -37.6397 H         1 UNK         0.0600 
    174 H174        1.9280  -13.5291  -38.9598 H         1 UNK         0.3000 
    175 H175        2.8523  -12.0912  -40.8031 H         1 UNK         0.0600 
    176 H176        4.8109  -14.4805  -40.7944 H         1 UNK         0.0600 
    177 H177        5.2729  -12.7924  -40.5996 H         1 UNK         0.0600 
    178 H178        4.3147  -13.5811  -39.3651 H         1 UNK         0.0600 
    179 H179        2.9068  -13.7232  -43.1136 H         1 UNK         0.3000 
    180 H180        4.2808  -11.3314  -45.2643 H         1 UNK         0.0600 
    181 H181        5.6762  -13.9944  -44.6551 H         1 UNK         0.0600 
    182 H182        6.4537  -12.4180  -44.7319 H         1 UNK         0.0600 
    183 H183        5.7543  -13.1166  -46.1834 H         1 UNK         0.0600 
    184 H184        3.3448  -14.1236  -45.3749 H         1 UNK         0.3000 
    185 H185        1.4564  -14.5935  -46.4580 H         1 UNK         0.0600 
    186 H186        0.5547  -14.2836  -44.1359 H         1 UNK         0.0600 
    187 H187       -0.5329  -13.0252  -44.7092 H         1 UNK         0.0600 
    188 H188       -0.7352  -14.6886  -45.2537 H         1 UNK         0.0600 
    189 H189        0.3691  -12.1756  -47.5326 H         1 UNK         0.3000 
    190 H190       -2.3617  -20.7432  -44.9585 H         1 UNK         0.3000 
    191 H191       -4.8081  -21.4927  -46.2042 H         1 UNK         0.0600 
    192 H192       -4.7609  -20.0653  -44.2074 H         1 UNK         0.0600 
    193 H193       -5.6949  -21.5139  -43.8731 H         1 UNK         0.0600 
    194 H194       -4.0603  -21.3626  -43.2427 H         1 UNK         0.0600 
    195 H195       -2.5944  -23.3325  -44.0381 H         1 UNK         0.3000 
    196 H196       -3.9958  -25.7819  -44.0500 H         1 UNK         0.0600 
    197 H197       -1.8242  -26.7288  -43.2505 H         1 UNK         0.0600 
    198 H198       -2.2291  -25.2415  -42.4079 H         1 UNK         0.0600 
    199 H199       -1.0050  -25.2312  -43.6750 H         1 UNK         0.0600 
    200 H200       -1.6343  -24.4821  -46.3599 H         1 UNK         0.3000 
    201 H201       -1.5647  -26.8294  -48.0704 H         1 UNK         0.0600 
    202 H202        0.3347  -25.1991  -47.8778 H         1 UNK         0.0600 
    203 H203       -0.6732  -23.9535  -48.6128 H         1 UNK         0.0600 
    204 H204       -0.2207  -25.3807  -49.5339 H         1 UNK         0.0600 
    205 H205       -4.2137  -26.1536  -47.5070 H         1 UNK         0.3000 
    206 H206       -6.2520  -25.8624  -48.3246 H         1 UNK         0.0600 
    207 H207       -5.5156  -27.7960  -49.7065 H         1 UNK         0.0600 
    208 H208       -6.6680  -26.8084  -50.5880 H         1 UNK         0.0600 
    209 H209       -4.9538  -26.7059  -50.9706 H         1 UNK         0.0600 
    210 H210       -5.0504  -23.4504  -47.9978 H         1 UNK         0.3000 
    211 H211       -5.0884  -21.2580  -48.4605 H         1 UNK         0.0600 
    212 H212       -7.5560  -21.8848  -50.1655 H         1 UNK         0.0600 
    213 H213       -7.0981  -20.3093  -49.5364 H         1 UNK         0.0600 
    214 H214       -7.5571  -21.5918  -48.4271 H         1 UNK         0.0600 
    215 H215       -3.1022  -22.2566  -49.6399 H         1 UNK         0.3000 
    216 H216       -1.5753  -22.2730  -51.2582 H         1 UNK         0.0600 
    217 H217       -1.3368  -20.2495  -52.6675 H         1 UNK         0.0600 
    218 H218       -1.7792  -19.7919  -51.0314 H         1 UNK         0.0600 
    219 H219       -2.9878  -19.7615  -52.3120 H         1 UNK         0.0600 
    220 H220       -3.2835  -24.1798  -51.6665 H         1 UNK         0.3000 
    221 H221       -4.2593  -25.6388  -53.0124 H         1 UNK         0.0600 
    222 H222       -2.4106  -24.4634  -55.1532 H         1 UNK         0.0600 
    223 H223       -1.9824  -25.7148  -53.9901 H         1 UNK         0.0600 
    224 H224       -3.1918  -26.0374  -55.2219 H         1 UNK         0.0600 
    225 H225       -5.9984  -23.7798  -52.5305 H         1 UNK         0.3000 
    226 H226       -7.8338  -22.7012  -53.0468 H         1 UNK         0.0600 
    227 H227       -8.5032  -24.8789  -54.0708 H         1 UNK         0.0600 
    228 H228       -9.2593  -23.5198  -54.8865 H         1 UNK         0.0600 
    229 H229       -7.8983  -24.3402  -55.6370 H         1 UNK         0.0600 
    230 H230       -5.7256  -21.1922  -53.3320 H         1 UNK         0.3000 
    231 H231       -4.8030  -19.3665  -54.1103 H         1 UNK         0.0600 
    232 H232       -7.5243  -18.8045  -55.4015 H         1 UNK         0.0600 
    233 H233       -6.2922  -17.6125  -55.0089 H         1 UNK         0.0600 
    234 H234       -7.1042  -18.4838  -53.7191 H         1 UNK         0.0600 
    235 H235       -3.9738  -21.4913  -55.5624 H         1 UNK         0.3000 
    236 H236       -4.1901  -21.2698  -58.3986 H         1 UNK         0.0600 
    237 H237       -3.4563  -23.3503  -57.2852 H         1 UNK         0.0600 
    238 H238       -2.1955  -22.8011  -58.3735 H         1 UNK         0.0600 
    239 H239       -2.0251  -22.5440  -56.6409 H         1 UNK         0.0600 
    240 H240       -2.1484  -19.6476  -56.0675 H         1 UNK         0.3000 
    241 H241       -0.3428  -18.4402  -58.0001 H         1 UNK         0.0600 
    242 H242       -3.5444  -16.0258  -57.8973 H         1 UNK         0.3800 
    243 H243       -3.6564  -17.7079  -57.4515 H         1 UNK         0.3800 
    244 H244        0.5025  -17.1528  -56.0397 H         1 UNK         0.0800 
    245 H245       -0.7719  -17.8114  -55.0390 H         1 UNK         0.0800 
    246 H246        2.5820  -17.8220  -54.9565 H         1 UNK         0.0800 
    247 H247        3.0126  -19.4111  -54.3857 H         1 UNK         0.0800 
@<TRIPOS>BOND
     1    1    2 1    
     2    1  127 1    
     3    1  128 1    
     4    1  129 1    
     5    2    3 2    
     6    2    4 am   BACKBONE|DICT|INTERRES
     7    4    5 1    
     8    4  130 1    
     9    5    6 1    
    10    5   65 1    
    11    5  131 1    
    12    6    7 1    
    13    6  132 1    
    14    6  133 1    
    15    7    8 1    
    16    8    9 1    
    17    8  134 1    
    18    8  135 1    
    19    9   10 ar   
    20    9   14 ar   
    21   10   11 ar   
    22   10  136 1    
    23   11   12 ar   
    24   11  126 1    
    25   12   13 ar   
    26   12  137 1    
    27   13   14 ar   
    28   13   15 1    
    29   14  138 1    
    30   15   16 1    
    31   15  139 1    
    32   15  140 1    
    33   16   17 1    
    34   17   18 1    
    35   17  141 1    
    36   17  142 1    
    37   18   19 1    
    38   18   67 1    
    39   18  143 1    
    40   19   20 am   BACKBONE|DICT|INTERRES
    41   19  144 1    
    42   20   21 2    
    43   20   22 1    
    44   22   23 1    
    45   22   24 1    
    46   22  145 1    
    47   23  146 1    
    48   23  147 1    
    49   23  148 1    
    50   24   25 am   BACKBONE|DICT|INTERRES
    51   24  149 1    
    52   25   26 2    
    53   25   27 1    
    54   27   28 1    
    55   27   29 1    
    56   27  150 1    
    57   28  151 1    
    58   28  152 1    
    59   28  153 1    
    60   29   30 am   BACKBONE|DICT|INTERRES
    61   29  154 1    
    62   30   31 2    
    63   30   32 1    
    64   32   33 1    
    65   32   34 1    
    66   32  155 1    
    67   33  156 1    
    68   33  157 1    
    69   33  158 1    
    70   34   35 am   BACKBONE|DICT|INTERRES
    71   34  159 1    
    72   35   36 2    
    73   35   37 1    
    74   37   38 1    
    75   37   39 1    
    76   37  160 1    
    77   38  161 1    
    78   38  162 1    
    79   38  163 1    
    80   39   40 am   BACKBONE|DICT|INTERRES
    81   39  164 1    
    82   40   41 2    
    83   40   42 1    
    84   42   43 1    
    85   42   44 1    
    86   42  165 1    
    87   43  166 1    
    88   43  167 1    
    89   43  168 1    
    90   44   45 am   BACKBONE|DICT|INTERRES
    91   44  169 1    
    92   45   46 2    
    93   45   47 1    
    94   47   48 1    
    95   47   49 1    
    96   47  170 1    
    97   48  171 1    
    98   48  172 1    
    99   48  173 1    
   100   49   50 am   BACKBONE|DICT|INTERRES
   101   49  174 1    
   102   50   51 2    
   103   50   52 1    
   104   52   53 1    
   105   52   54 1    
   106   52  175 1    
   107   53  176 1    
   108   53  177 1    
   109   53  178 1    
   110   54   55 am   BACKBONE|DICT|INTERRES
   111   54  179 1    
   112   55   56 2    
   113   55   57 1    
   114   57   58 1    
   115   57   59 1    
   116   57  180 1    
   117   58  181 1    
   118   58  182 1    
   119   58  183 1    
   120   59   60 am   BACKBONE|DICT|INTERRES
   121   59  184 1    
   122   60   61 2    
   123   60   62 1    
   124   62   63 1    
   125   62   64 1    
   126   62  185 1    
   127   63  186 1    
   128   63  187 1    
   129   63  188 1    
   130   64   65 am   BACKBONE|DICT|INTERRES
   131   64  189 1    
   132   65   66 2    
   133   67   68 2    
   134   67   69 am   BACKBONE|DICT|INTERRES
   135   69   70 1    
   136   69  190 1    
   137   70   71 1    
   138   70   72 1    
   139   70  191 1    
   140   71  192 1    
   141   71  193 1    
   142   71  194 1    
   143   72   73 2    
   144   72   74 am   BACKBONE|DICT|INTERRES
   145   74   75 1    
   146   74  195 1    
   147   75   76 1    
   148   75   77 1    
   149   75  196 1    
   150   76  197 1    
   151   76  198 1    
   152   76  199 1    
   153   77   78 2    
   154   77   79 am   BACKBONE|DICT|INTERRES
   155   79   80 1    
   156   79  200 1    
   157   80   81 1    
   158   80   82 1    
   159   80  201 1    
   160   81  202 1    
   161   81  203 1    
   162   81  204 1    
   163   82   83 2    
   164   82   84 am   BACKBONE|DICT|INTERRES
   165   84   85 1    
   166   84  205 1    
   167   85   86 1    
   168   85   87 1    
   169   85  206 1    
   170   86  207 1    
   171   86  208 1    
   172   86  209 1    
   173   87   88 2    
   174   87   89 am   BACKBONE|DICT|INTERRES
   175   89   90 1    
   176   89  210 1    
   177   90   91 1    
   178   90   92 1    
   179   90  211 1    
   180   91  212 1    
   181   91  213 1    
   182   91  214 1    
   183   92   93 2    
   184   92   94 am   BACKBONE|DICT|INTERRES
   185   94   95 1    
   186   94  215 1    
   187   95   96 1    
   188   95   97 1    
   189   95  216 1    
   190   96  217 1    
   191   96  218 1    
   192   96  219 1    
   193   97   98 2    
   194   97   99 am   BACKBONE|DICT|INTERRES
   195   99  100 1    
   196   99  220 1    
   197  100  101 1    
   198  100  102 1    
   199  100  221 1    
   200  101  222 1    
   201  101  223 1    
   202  101  224 1    
   203  102  103 2    
   204  102  104 am   BACKBONE|DICT|INTERRES
   205  104  105 1    
   206  104  225 1    
   207  105  106 1    
   208  105  107 1    
   209  105  226 1    
   210  106  227 1    
   211  106  228 1    
   212  106  229 1    
   213  107  108 2    
   214  107  109 am   BACKBONE|DICT|INTERRES
   215  109  110 1    
   216  109  230 1    
   217  110  111 1    
   218  110  112 1    
   219  110  231 1    
   220  111  232 1    
   221  111  233 1    
   222  111  234 1    
   223  112  113 2    
   224  112  114 am   BACKBONE|DICT|INTERRES
   225  114  115 1    
   226  114  235 1    
   227  115  116 1    
   228  115  117 1    
   229  115  236 1    
   230  116  237 1    
   231  116  238 1    
   232  116  239 1    
   233  117  118 2    
   234  117  119 am   BACKBONE|DICT|INTERRES
   235  119  120 1    
   236  119  240 1    
   237  120  121 1    
   238  120  124 1    
   239  120  241 1    
   240  121  122 am   BACKBONE|DICT|INTERRES
   241  121  123 2    
   242  122  242 1    
   243  122  243 1    
   244  124  125 1    
   245  124  244 1    
   246  124  245 1    
   247  125  126 1    
   248  126  246 1    
   249  126  247 1    
@<TRIPOS>SUBSTRUCTURE
     1 UNK         1 GROUP             0       ****    0 ROOT    
