@<TRIPOS>MOLECULE
3R540
247   249    1
SMALL
USER_CHARGES


@<TRIPOS>ATOM
      1 CA         -0.4927  -11.0150  -51.5933 C.3       0 UNK        -0.1800 
      2 C          -0.0915  -12.2621  -52.3770 C.2       0 UNK         0.5000 
      3 O           0.0591  -12.1704  -53.5936 O.2       0 UNK        -0.5000 
      4 N           0.0798  -13.4484  -51.7750 N.am      1 UNK        -0.5000 
      5 CA          0.0397  -13.8337  -50.3596 C.3       1 UNK         0.1400 
      6 C6         -1.2351  -13.3924  -49.5837 C.3       23 UNK        -0.0398 
      7 S7         -1.4278  -14.1718  -47.9398 S.3       23 UNK        -0.2404 
      8 C8         -2.3893  -15.6700  -48.3227 C.3       23 UNK        -0.0205 
      9 C9         -1.5792  -16.6687  -49.1342 C.ar      23 UNK        -0.0193 
     10 C10        -1.9643  -17.0009  -50.4344 C.ar      23 UNK        -0.1150 
     11 C11        -1.1934  -17.8813  -51.1990 C.ar      23 UNK        -0.0193 
     12 C12        -0.0536  -18.4649  -50.6362 C.ar      23 UNK        -0.1150 
     13 C13         0.3174  -18.1745  -49.3202 C.ar      23 UNK        -0.0193 
     14 C14        -0.4361  -17.2553  -48.5864 C.ar      23 UNK        -0.1150 
     15 C15         1.5165  -18.8625  -48.6775 C.3       23 UNK        -0.0205 
     16 S16         1.3234  -20.6739  -48.5537 S.3       23 UNK        -0.2404 
     17 C17        -0.3601  -20.8387  -47.8728 C.3       23 UNK        -0.0398 
     18 CA         -0.5566  -22.1394  -47.0601 C.3       11 UNK         0.1400 
     19 N           0.1062  -22.1053  -45.7520 N.am      11 UNK        -0.5000 
     20 C           0.2329  -23.1652  -44.9398 C.2       10 UNK         0.5000 
     21 O          -0.1771  -24.2911  -45.2212 O.2       10 UNK        -0.5000 
     22 CA          0.8704  -22.9207  -43.5597 C.3       10 UNK         0.1400 
     23 CB          2.3967  -22.7839  -43.6655 C.3       10 UNK        -0.1800 
     24 N           0.3117  -21.7482  -42.8870 N.am      10 UNK        -0.5000 
     25 C          -0.9666  -21.6321  -42.4993 C.2       9 UNK         0.5000 
     26 O          -1.8037  -22.5260  -42.6216 O.2       9 UNK        -0.5000 
     27 CA         -1.3981  -20.2640  -41.9418 C.3       9 UNK         0.1400 
     28 CB         -1.0051  -20.1083  -40.4648 C.3       9 UNK        -0.1800 
     29 N          -0.8453  -19.1619  -42.7305 N.am      9 UNK        -0.5000 
     30 C          -1.2145  -18.8985  -43.9918 C.2       8 UNK         0.5000 
     31 O          -2.0958  -19.5156  -44.5864 O.2       8 UNK        -0.5000 
     32 CA         -0.4451  -17.8019  -44.7430 C.3       8 UNK         0.1400 
     33 CB         -1.1424  -16.4438  -44.5965 C.3       8 UNK        -0.1800 
     34 N           0.9670  -17.7059  -44.3609 N.am      8 UNK        -0.5000 
     35 C           1.8566  -18.6782  -44.6125 C.2       7 UNK         0.5000 
     36 O           1.5685  -19.7162  -45.2059 O.2       7 UNK        -0.5000 
     37 CA          3.2859  -18.5001  -44.0736 C.3       7 UNK         0.1400 
     38 CB          4.0966  -17.5314  -44.9405 C.3       7 UNK        -0.1800 
     39 N           3.3360  -18.0592  -42.6828 N.am      7 UNK        -0.5000 
     40 C           2.8461  -18.7319  -41.6363 C.2       6 UNK         0.5000 
     41 O           2.2090  -19.7796  -41.7474 O.2       6 UNK        -0.5000 
     42 CA          3.0907  -18.1489  -40.2292 C.3       6 UNK         0.1400 
     43 CB          4.3255  -18.7963  -39.5757 C.3       6 UNK        -0.1800 
     44 N           3.1596  -16.6820  -40.1594 N.am      6 UNK        -0.5000 
     45 C           4.0643  -15.8321  -40.6653 C.2       5 UNK         0.5000 
     46 O           5.0401  -16.1874  -41.3278 O.2       5 UNK        -0.5000 
     47 CA          3.7822  -14.3302  -40.4360 C.3       5 UNK         0.1400 
     48 CB          4.9222  -13.4288  -40.9431 C.3       5 UNK        -0.1800 
     49 N           2.5367  -13.9100  -41.0813 N.am      5 UNK        -0.5000 
     50 C           1.2970  -14.2117  -40.6753 C.2       4 UNK         0.5000 
     51 O           1.0643  -14.8374  -39.6392 O.2       4 UNK        -0.5000 
     52 CA          0.1146  -13.7658  -41.5593 C.3       4 UNK         0.1400 
     53 CB         -0.8354  -12.8485  -40.7716 C.3       4 UNK        -0.1800 
     54 N           0.4716  -13.0917  -42.8119 N.am      4 UNK        -0.5000 
     55 C           1.0638  -13.6396  -43.8815 C.2       3 UNK         0.5000 
     56 O           1.5054  -14.7914  -43.9049 O.2       3 UNK        -0.5000 
     57 CA          1.1161  -12.7302  -45.1262 C.3       3 UNK         0.1400 
     58 CB          1.8862  -11.4182  -44.8593 C.3       3 UNK        -0.1800 
     59 N           1.5971  -13.3992  -46.3391 N.am      3 UNK        -0.5000 
     60 C           2.8493  -13.7588  -46.6589 C.2       2 UNK         0.5000 
     61 O           3.8262  -13.5845  -45.9297 O.2       2 UNK        -0.5000 
     62 CA          3.0583  -14.4104  -48.0445 C.3       2 UNK         0.1400 
     63 CB          3.6148  -15.8328  -47.9067 C.3       2 UNK        -0.1800 
     64 N           1.8365  -14.4825  -48.8484 N.am      2 UNK        -0.5000 
     65 C           1.3626  -13.5087  -49.6348 C.2       1 UNK         0.5000 
     66 O           1.9172  -12.4194  -49.7860 O.2       1 UNK        -0.5000 
     67 C          -2.0566  -22.4838  -46.9547 C.2       11 UNK         0.5000 
     68 O          -2.5646  -23.1869  -47.8279 O.2       11 UNK        -0.5000 
     69 N          -2.7419  -22.0082  -45.9058 N.am      12 UNK        -0.5000 
     70 CA         -4.1348  -22.3523  -45.6191 C.3       12 UNK         0.1400 
     71 CB         -4.7055  -21.4068  -44.5522 C.3       12 UNK        -0.1800 
     72 C          -4.2938  -23.8221  -45.1946 C.2       12 UNK         0.5000 
     73 O          -5.1828  -24.5022  -45.7064 O.2       12 UNK        -0.5000 
     74 N          -3.4116  -24.2970  -44.3029 N.am      13 UNK        -0.5000 
     75 CA         -3.3762  -25.6796  -43.8174 C.3       13 UNK         0.1400 
     76 CB         -2.3649  -25.7944  -42.6669 C.3       13 UNK        -0.1800 
     77 C          -3.0584  -26.7015  -44.9251 C.2       13 UNK         0.5000 
     78 O          -3.6674  -27.7712  -44.9607 O.2       13 UNK        -0.5000 
     79 N          -2.1365  -26.3395  -45.8268 N.am      14 UNK        -0.5000 
     80 CA         -1.7693  -27.1217  -47.0091 C.3       14 UNK         0.1400 
     81 CB         -0.4104  -26.6185  -47.5230 C.3       14 UNK        -0.1800 
     82 C          -2.8155  -27.0576  -48.1412 C.2       14 UNK         0.5000 
     83 O          -2.7250  -27.8460  -49.0822 O.2       14 UNK        -0.5000 
     84 N          -3.7483  -26.0960  -48.0564 N.am      15 UNK        -0.5000 
     85 CA         -4.7495  -25.7046  -49.0586 C.3       15 UNK         0.1400 
     86 CB         -5.7045  -26.8667  -49.3962 C.3       15 UNK        -0.1800 
     87 C          -4.1447  -25.0547  -50.3223 C.2       15 UNK         0.5000 
     88 O          -4.8667  -24.8117  -51.2903 O.2       15 UNK        -0.5000 
     89 N          -2.8461  -24.7278  -50.2749 N.am      16 UNK        -0.5000 
     90 CA         -2.0893  -24.0317  -51.3127 C.3       16 UNK         0.1400 
     91 CB         -0.6080  -23.9851  -50.9105 C.3       16 UNK        -0.1800 
     92 C          -2.6191  -22.6131  -51.5750 C.2       16 UNK         0.5000 
     93 O          -2.6144  -22.1709  -52.7238 O.2       16 UNK        -0.5000 
     94 N          -3.1093  -21.9516  -50.5144 N.am      17 UNK        -0.5000 
     95 CA         -3.7462  -20.6358  -50.5762 C.3       17 UNK         0.1400 
     96 CB         -4.0970  -20.1525  -49.1598 C.3       17 UNK        -0.1800 
     97 C          -4.9906  -20.6220  -51.4812 C.2       17 UNK         0.5000 
     98 O          -5.1396  -19.7180  -52.3042 O.2       17 UNK        -0.5000 
     99 N          -5.8345  -21.6507  -51.3301 N.am      18 UNK        -0.5000 
    100 CA        -7.0421  -21.8545  -52.1251 C.3       18 UNK         0.1400 
    101 CB        -7.9761  -22.8251  -51.3854 C.3       18 UNK        -0.1800 
    102 C         -6.7280  -22.3727  -53.5383 C.2       18 UNK         0.5000 
    103 O         -7.3628  -21.9305  -54.4957 O.2       18 UNK        -0.5000 
    104 N         -5.7635  -23.2987  -53.6422 N.am      19 UNK        -0.5000 
    105 CA        -5.3654  -23.9425  -54.8939 C.3       19 UNK         0.1400 
    106 CB        -4.4385  -25.1299  -54.5938 C.3       19 UNK        -0.1800 
    107 C         -4.7061  -22.9758  -55.8926 C.2       19 UNK         0.5000 
    108 O         -5.0659  -22.9909  -57.0708 O.2       19 UNK        -0.5000 
    109 N         -3.7600  -22.1555  -55.4138 N.am      20 UNK        -0.5000 
    110 CA        -3.0616  -21.1666  -56.2372 C.3       20 UNK         0.1400 
    111 CB        -1.7072  -20.8325  -55.6005 C.3       20 UNK        -0.1800 
    112 C         -3.8914  -19.8893  -56.4578 C.2       20 UNK         0.5000 
    113 O         -3.7527  -19.2660  -57.5108 O.2       20 UNK        -0.5000 
    114 N         -4.7401  -19.5386  -55.4767 N.am      21 UNK        -0.5000 
    115 CA        -5.6657  -18.3992  -55.4702 C.3       21 UNK         0.1400 
    116 CB        -6.8134  -18.6367  -56.4736 C.3       21 UNK        -0.1800 
    117 C         -4.9483  -17.0472  -55.6751 C.2       21 UNK         0.5000 
    118 O         -5.3033  -16.2820  -56.5744 O.2       21 UNK        -0.5000 
    119 N         -3.9219  -16.8071  -54.8487 N.am      22 UNK        -0.5000 
    120 CA        -3.0649  -15.6091  -54.8572 C.3       22 UNK         0.1400 
    121 C         -3.8545  -14.2791  -54.6862 C.2       22 UNK         0.5000 
    122 N         -3.4824  -13.2302  -55.4069 N.am      22 UNK        -0.7600 
    123 O         -4.7681  -14.1791  -53.8700 O.2       22 UNK        -0.5000 
    124 C124       -1.9525  -15.6870  -53.7794 C.3       23 UNK        -0.0398 
    125 S125       -0.9034  -17.1789  -53.8885 S.3       23 UNK        -0.2404 
    126 C126       -1.6230  -18.2571  -52.6085 C.3       23 UNK        -0.0205 
    127 H127       -1.5581  -11.0370  -51.3655 H         1 UNK         0.0600 
    128 H128        0.0687  -10.9079  -50.6678 H         1 UNK         0.0600 
    129 H129       -0.3020  -10.1213  -52.1877 H         1 UNK         0.0600 
    130 H130        0.3688  -14.2075  -52.3752 H         1 UNK         0.3000 
    131 H131        0.0002  -14.9198  -50.4268 H         1 UNK         0.0600 
    132 H132       -1.2355  -12.3184  -49.4077 H         1 UNK         0.0800 
    133 H133       -2.1248  -13.6031  -50.1786 H         1 UNK         0.0800 
    134 H134       -3.3074  -15.3899  -48.8413 H         1 UNK         0.0800 
    135 H135       -2.6967  -16.1415  -47.3885 H         1 UNK         0.0800 
    136 H136       -2.8643  -16.5706  -50.8489 H         1 UNK         0.1150 
    137 H137        0.5304  -19.1697  -51.2116 H         1 UNK         0.1150 
    138 H138       -0.1346  -16.9865  -47.5866 H         1 UNK         0.1150 
    139 H139        1.6902  -18.4725  -47.6748 H         1 UNK         0.0800 
    140 H140        2.4135  -18.6383  -49.2559 H         1 UNK         0.0800 
    141 H141       -1.0300  -20.8098  -48.7333 H         1 UNK         0.0800 
    142 H142       -0.6044  -19.9698  -47.2610 H         1 UNK         0.0800 
    143 H143       -0.1000  -22.9565  -47.6222 H         1 UNK         0.0600 
    144 H144        0.5262  -21.2199  -45.4758 H         1 UNK         0.3000 
    145 H145        0.6545  -23.7917  -42.9376 H         1 UNK         0.0600 
    146 H146        2.8502  -22.6673  -42.6810 H         1 UNK         0.0600 
    147 H147        2.8356  -23.6705  -44.1245 H         1 UNK         0.0600 
    148 H148        2.6878  -21.9247  -44.2693 H         1 UNK         0.0600 
    149 H149        0.9451  -20.9728  -42.7178 H         1 UNK         0.3000 
    150 H150       -2.4871  -20.2095  -42.0035 H         1 UNK         0.0600 
    151 H151        0.0720  -20.1765  -40.3168 H         1 UNK         0.0600 
    152 H152       -1.4656  -20.8897  -39.8590 H         1 UNK         0.0600 
    153 H153       -1.3389  -19.1501  -40.0666 H         1 UNK         0.0600 
    154 H154       -0.0742  -18.6486  -42.3304 H         1 UNK         0.3000 
    155 H155       -0.4834  -18.0847  -45.7930 H         1 UNK         0.0600 
    156 H156       -1.0873  -16.0734  -43.5738 H         1 UNK         0.0600 
    157 H157       -2.1976  -16.5138  -44.8635 H         1 UNK         0.0600 
    158 H158       -0.6946  -15.7005  -45.2553 H         1 UNK         0.0600 
    159 H159        1.2738  -16.8416  -43.9253 H         1 UNK         0.3000 
    160 H160        3.7741  -19.4758  -44.1185 H         1 UNK         0.0600 
    161 H161        3.6505  -16.5358  -44.9585 H         1 UNK         0.0600 
    162 H162        4.1582  -17.8978  -45.9652 H         1 UNK         0.0600 
    163 H163        5.1182  -17.4321  -44.5732 H         1 UNK         0.0600 
    164 H164        3.8891  -17.2323  -42.4821 H         1 UNK         0.3000 
    165 H165        2.2215  -18.4272  -39.6311 H         1 UNK         0.0600 
    166 H166        4.4624  -18.4420  -38.5540 H         1 UNK         0.0600 
    167 H167        5.2396  -18.5841  -40.1308 H         1 UNK         0.0600 
    168 H168        4.2174  -19.8809  -39.5317 H         1 UNK         0.0600 
    169 H169        2.3600  -16.2434  -39.7093 H         1 UNK         0.3000 
    170 H170        3.6888  -14.1765  -39.3589 H         1 UNK         0.0600 
    171 H171        5.8697  -13.6935  -40.4718 H         1 UNK         0.0600 
    172 H172        5.0550  -13.5154  -42.0225 H         1 UNK         0.0600 
    173 H173        4.7282  -12.3811  -40.7126 H         1 UNK         0.0600 
    174 H174        2.6317  -13.4384  -41.9685 H         1 UNK         0.3000 
    175 H175       -0.4340  -14.6728  -41.8163 H         1 UNK         0.0600 
    176 H176       -0.3485  -11.9140  -40.4901 H         1 UNK         0.0600 
    177 H177       -1.7228  -12.6034  -41.3557 H         1 UNK         0.0600 
    178 H178       -1.1793  -13.3284  -39.8543 H         1 UNK         0.0600 
    179 H179        0.1595  -12.1341  -42.8843 H         1 UNK         0.3000 
    180 H180        0.0819  -12.4620  -45.3476 H         1 UNK         0.0600 
    181 H181        2.8964  -11.6041  -44.4934 H         1 UNK         0.0600 
    182 H182        1.3812  -10.8058  -44.1121 H         1 UNK         0.0600 
    183 H183        1.9635  -10.8155  -45.7644 H         1 UNK         0.0600 
    184 H184        0.8747  -13.6315  -47.0058 H         1 UNK         0.3000 
    185 H185        3.7991  -13.8082  -48.5747 H         1 UNK         0.0600 
    186 H186        4.5568  -15.8343  -47.3572 H         1 UNK         0.0600 
    187 H187        2.9141  -16.4752  -47.3750 H         1 UNK         0.0600 
    188 H188        3.8091  -16.2795  -48.8819 H         1 UNK         0.0600 
    189 H189        1.3169  -15.3460  -48.7832 H         1 UNK         0.3000 
    190 H190       -2.2930  -21.3619  -45.2645 H         1 UNK         0.3000 
    191 H191       -4.7139  -22.2090  -46.5336 H         1 UNK         0.0600 
    192 H192       -5.7415  -21.6574  -44.3211 H         1 UNK         0.0600 
    193 H193       -4.6915  -20.3729  -44.8970 H         1 UNK         0.0600 
    194 H194       -4.1394  -21.4571  -43.6220 H         1 UNK         0.0600 
    195 H195       -2.7301  -23.6599  -43.8993 H         1 UNK         0.3000 
    196 H196       -4.3662  -25.9178  -43.4232 H         1 UNK         0.0600 
    197 H197       -1.3578  -25.5270  -42.9882 H         1 UNK         0.0600 
    198 H198       -2.6355  -25.1397  -41.8383 H         1 UNK         0.0600 
    199 H199       -2.3275  -26.8127  -42.2780 H         1 UNK         0.0600 
    200 H200       -1.6234  -25.4739  -45.6780 H         1 UNK         0.3000 
    201 H201       -1.6613  -28.1683  -46.7173 H         1 UNK         0.0600 
    202 H202       -0.4577  -25.5709  -47.8236 H         1 UNK         0.0600 
    203 H203       -0.0772  -27.1943  -48.3875 H         1 UNK         0.0600 
    204 H204        0.3592  -26.7107  -46.7564 H         1 UNK         0.0600 
    205 H205       -3.7267  -25.5064  -47.2342 H         1 UNK         0.3000 
    206 H206       -5.3444  -24.9230  -48.5841 H         1 UNK         0.0600 
    207 H207       -6.1210  -27.3099  -48.4916 H         1 UNK         0.0600 
    208 H208       -6.5422  -26.5183  -50.0015 H         1 UNK         0.0600 
    209 H209       -5.2052  -27.6550  -49.9596 H         1 UNK         0.0600 
    210 H210       -2.3711  -24.8760  -49.3961 H         1 UNK         0.3000 
    211 H211       -2.1779  -24.6053  -52.2359 H         1 UNK         0.0600 
    212 H212       -0.0086  -23.5067  -51.6863 H         1 UNK         0.0600 
    213 H213       -0.2069  -24.9879  -50.7615 H         1 UNK         0.0600 
    214 H214       -0.4578  -23.4229  -49.9886 H         1 UNK         0.0600 
    215 H215       -3.0680  -22.4074  -49.6087 H         1 UNK         0.3000 
    216 H216       -3.0218  -19.9436  -50.9980 H         1 UNK         0.0600 
    217 H217       -4.7522  -20.8546  -48.6437 H         1 UNK         0.0600 
    218 H218       -4.6079  -19.1892  -49.1929 H         1 UNK         0.0600 
    219 H219       -3.2052  -20.0150  -48.5504 H         1 UNK         0.0600 
    220 H220       -5.6013  -22.3744  -50.6668 H         1 UNK         0.3000 
    221 H221       -7.5582  -20.8970  -52.2256 H         1 UNK         0.0600 
    222 H222       -8.2559  -22.4341  -50.4071 H         1 UNK         0.0600 
    223 H223       -7.5111  -23.8005  -51.2365 H         1 UNK         0.0600 
    224 H224       -8.8975  -22.9834  -51.9473 H         1 UNK         0.0600 
    225 H225       -5.3304  -23.6517  -52.7940 H         1 UNK         0.3000 
    226 H226       -6.2694  -24.3363  -55.3632 H         1 UNK         0.0600 
    227 H227       -3.5121  -24.8055  -54.1213 H         1 UNK         0.0600 
    228 H228       -4.9195  -25.8501  -53.9317 H         1 UNK         0.0600 
    229 H229       -4.1717  -25.6577  -55.5101 H         1 UNK         0.0600 
    230 H230       -3.4923  -22.2086  -54.4340 H         1 UNK         0.3000 
    231 H231       -2.8628  -21.6030  -57.2186 H         1 UNK         0.0600 
    232 H232       -1.8367  -20.4053  -54.6098 H         1 UNK         0.0600 
    233 H233       -1.1560  -20.1086  -56.2022 H         1 UNK         0.0600 
    234 H234       -1.0848  -21.7220  -55.5032 H         1 UNK         0.0600 
    235 H235       -4.7617  -20.1116  -54.6437 H         1 UNK         0.3000 
    236 H236       -6.1082  -18.3639  -54.4739 H         1 UNK         0.0600 
    237 H237       -7.3221  -19.5795  -56.2710 H         1 UNK         0.0600 
    238 H238       -7.5600  -17.8446  -56.4075 H         1 UNK         0.0600 
    239 H239       -6.4548  -18.6646  -57.5029 H         1 UNK         0.0600 
    240 H240       -3.7006  -17.5027  -54.1542 H         1 UNK         0.3000 
    241 H241       -2.5818  -15.5880  -55.8359 H         1 UNK         0.0600 
    242 H242       -3.9763  -12.3587  -55.2930 H         1 UNK         0.3800 
    243 H243       -2.7258  -13.2840  -56.0716 H         1 UNK         0.3800 
    244 H244       -2.3802  -15.6031  -52.7822 H         1 UNK         0.0800 
    245 H245       -1.2878  -14.8289  -53.8866 H         1 UNK         0.0800 
    246 H246       -2.7102  -18.2569  -52.6880 H         1 UNK         0.0800 
    247 H247       -1.3071  -19.2821  -52.7997 H         1 UNK         0.0800 
@<TRIPOS>BOND
     1    1    2 1    
     2    1  127 1    
     3    1  128 1    
     4    1  129 1    
     5    2    3 2    
     6    2    4 am   BACKBONE|DICT|INTERRES
     7    4    5 1    
     8    4  130 1    
     9    5    6 1    
    10    5   65 1    
    11    5  131 1    
    12    6    7 1    
    13    6  132 1    
    14    6  133 1    
    15    7    8 1    
    16    8    9 1    
    17    8  134 1    
    18    8  135 1    
    19    9   10 ar   
    20    9   14 ar   
    21   10   11 ar   
    22   10  136 1    
    23   11   12 ar   
    24   11  126 1    
    25   12   13 ar   
    26   12  137 1    
    27   13   14 ar   
    28   13   15 1    
    29   14  138 1    
    30   15   16 1    
    31   15  139 1    
    32   15  140 1    
    33   16   17 1    
    34   17   18 1    
    35   17  141 1    
    36   17  142 1    
    37   18   19 1    
    38   18   67 1    
    39   18  143 1    
    40   19   20 am   BACKBONE|DICT|INTERRES
    41   19  144 1    
    42   20   21 2    
    43   20   22 1    
    44   22   23 1    
    45   22   24 1    
    46   22  145 1    
    47   23  146 1    
    48   23  147 1    
    49   23  148 1    
    50   24   25 am   BACKBONE|DICT|INTERRES
    51   24  149 1    
    52   25   26 2    
    53   25   27 1    
    54   27   28 1    
    55   27   29 1    
    56   27  150 1    
    57   28  151 1    
    58   28  152 1    
    59   28  153 1    
    60   29   30 am   BACKBONE|DICT|INTERRES
    61   29  154 1    
    62   30   31 2    
    63   30   32 1    
    64   32   33 1    
    65   32   34 1    
    66   32  155 1    
    67   33  156 1    
    68   33  157 1    
    69   33  158 1    
    70   34   35 am   BACKBONE|DICT|INTERRES
    71   34  159 1    
    72   35   36 2    
    73   35   37 1    
    74   37   38 1    
    75   37   39 1    
    76   37  160 1    
    77   38  161 1    
    78   38  162 1    
    79   38  163 1    
    80   39   40 am   BACKBONE|DICT|INTERRES
    81   39  164 1    
    82   40   41 2    
    83   40   42 1    
    84   42   43 1    
    85   42   44 1    
    86   42  165 1    
    87   43  166 1    
    88   43  167 1    
    89   43  168 1    
    90   44   45 am   BACKBONE|DICT|INTERRES
    91   44  169 1    
    92   45   46 2    
    93   45   47 1    
    94   47   48 1    
    95   47   49 1    
    96   47  170 1    
    97   48  171 1    
    98   48  172 1    
    99   48  173 1    
   100   49   50 am   BACKBONE|DICT|INTERRES
   101   49  174 1    
   102   50   51 2    
   103   50   52 1    
   104   52   53 1    
   105   52   54 1    
   106   52  175 1    
   107   53  176 1    
   108   53  177 1    
   109   53  178 1    
   110   54   55 am   BACKBONE|DICT|INTERRES
   111   54  179 1    
   112   55   56 2    
   113   55   57 1    
   114   57   58 1    
   115   57   59 1    
   116   57  180 1    
   117   58  181 1    
   118   58  182 1    
   119   58  183 1    
   120   59   60 am   BACKBONE|DICT|INTERRES
   121   59  184 1    
   122   60   61 2    
   123   60   62 1    
   124   62   63 1    
   125   62   64 1    
   126   62  185 1    
   127   63  186 1    
   128   63  187 1    
   129   63  188 1    
   130   64   65 am   BACKBONE|DICT|INTERRES
   131   64  189 1    
   132   65   66 2    
   133   67   68 2    
   134   67   69 am   BACKBONE|DICT|INTERRES
   135   69   70 1    
   136   69  190 1    
   137   70   71 1    
   138   70   72 1    
   139   70  191 1    
   140   71  192 1    
   141   71  193 1    
   142   71  194 1    
   143   72   73 2    
   144   72   74 am   BACKBONE|DICT|INTERRES
   145   74   75 1    
   146   74  195 1    
   147   75   76 1    
   148   75   77 1    
   149   75  196 1    
   150   76  197 1    
   151   76  198 1    
   152   76  199 1    
   153   77   78 2    
   154   77   79 am   BACKBONE|DICT|INTERRES
   155   79   80 1    
   156   79  200 1    
   157   80   81 1    
   158   80   82 1    
   159   80  201 1    
   160   81  202 1    
   161   81  203 1    
   162   81  204 1    
   163   82   83 2    
   164   82   84 am   BACKBONE|DICT|INTERRES
   165   84   85 1    
   166   84  205 1    
   167   85   86 1    
   168   85   87 1    
   169   85  206 1    
   170   86  207 1    
   171   86  208 1    
   172   86  209 1    
   173   87   88 2    
   174   87   89 am   BACKBONE|DICT|INTERRES
   175   89   90 1    
   176   89  210 1    
   177   90   91 1    
   178   90   92 1    
   179   90  211 1    
   180   91  212 1    
   181   91  213 1    
   182   91  214 1    
   183   92   93 2    
   184   92   94 am   BACKBONE|DICT|INTERRES
   185   94   95 1    
   186   94  215 1    
   187   95   96 1    
   188   95   97 1    
   189   95  216 1    
   190   96  217 1    
   191   96  218 1    
   192   96  219 1    
   193   97   98 2    
   194   97   99 am   BACKBONE|DICT|INTERRES
   195   99  100 1    
   196   99  220 1    
   197  100  101 1    
   198  100  102 1    
   199  100  221 1    
   200  101  222 1    
   201  101  223 1    
   202  101  224 1    
   203  102  103 2    
   204  102  104 am   BACKBONE|DICT|INTERRES
   205  104  105 1    
   206  104  225 1    
   207  105  106 1    
   208  105  107 1    
   209  105  226 1    
   210  106  227 1    
   211  106  228 1    
   212  106  229 1    
   213  107  108 2    
   214  107  109 am   BACKBONE|DICT|INTERRES
   215  109  110 1    
   216  109  230 1    
   217  110  111 1    
   218  110  112 1    
   219  110  231 1    
   220  111  232 1    
   221  111  233 1    
   222  111  234 1    
   223  112  113 2    
   224  112  114 am   BACKBONE|DICT|INTERRES
   225  114  115 1    
   226  114  235 1    
   227  115  116 1    
   228  115  117 1    
   229  115  236 1    
   230  116  237 1    
   231  116  238 1    
   232  116  239 1    
   233  117  118 2    
   234  117  119 am   BACKBONE|DICT|INTERRES
   235  119  120 1    
   236  119  240 1    
   237  120  121 1    
   238  120  124 1    
   239  120  241 1    
   240  121  122 am   BACKBONE|DICT|INTERRES
   241  121  123 2    
   242  122  242 1    
   243  122  243 1    
   244  124  125 1    
   245  124  244 1    
   246  124  245 1    
   247  125  126 1    
   248  126  246 1    
   249  126  247 1    
@<TRIPOS>SUBSTRUCTURE
     1 UNK         1 GROUP             0       ****    0 ROOT    
