@<TRIPOS>MOLECULE
3R540
247   249    1
SMALL
USER_CHARGES


@<TRIPOS>ATOM
      1 CA          7.8060  -16.2920  -46.4275 C.3       0 UNK        -0.1800 
      2 C           6.3292  -15.9383  -46.3297 C.2       0 UNK         0.5000 
      3 O           5.7524  -16.0118  -45.2447 O.2       0 UNK        -0.5000 
      4 N           5.7119  -15.5547  -47.4551 N.am      1 UNK        -0.5000 
      5 CA          4.3140  -15.1224  -47.5271 C.3       1 UNK         0.1400 
      6 C6          3.8260  -15.0219  -48.9974 C.3       23 UNK        -0.0398 
      7 S7          2.0570  -14.6028  -49.1995 S.3       23 UNK        -0.2404 
      8 C8          1.2403  -16.1007  -48.5718 C.3       23 UNK        -0.0205 
      9 C9          0.4812  -16.8582  -49.6451 C.ar      23 UNK        -0.0193 
     10 C10        -0.8925  -16.6550  -49.8072 C.ar      23 UNK        -0.1150 
     11 C11        -1.6125  -17.3957  -50.7476 C.ar      23 UNK        -0.0193 
     12 C12        -0.9424  -18.3281  -51.5433 C.ar      23 UNK        -0.1150 
     13 C13         0.4331  -18.5309  -51.3997 C.ar      23 UNK        -0.0193 
     14 C14         1.1398  -17.7958  -50.4447 C.ar      23 UNK        -0.1150 
     15 C15         1.1570  -19.5353  -52.2835 C.3       23 UNK        -0.0205 
     16 S16         1.4867  -21.1034  -51.4187 S.3       23 UNK        -0.2404 
     17 C17        -0.2021  -21.7373  -51.1436 C.3       23 UNK        -0.0398 
     18 CA         -0.4913  -22.0756  -49.6630 C.3       11 UNK         0.1400 
     19 N          -0.1631  -20.9898  -48.7284 N.am      11 UNK        -0.5000 
     20 C           0.0367  -21.1902  -47.4182 C.2       10 UNK         0.5000 
     21 O          -0.1050  -22.2832  -46.8701 O.2       10 UNK        -0.5000 
     22 CA          0.4210  -19.9659  -46.5683 C.3       10 UNK         0.1400 
     23 CB          1.8629  -19.5362  -46.8838 C.3       10 UNK        -0.1800 
     24 N          -0.4807  -18.8126  -46.6835 N.am      10 UNK        -0.5000 
     25 C          -1.8209  -18.8400  -46.5893 C.2       9 UNK         0.5000 
     26 O          -2.4797  -19.8779  -46.5475 O.2       9 UNK        -0.5000 
     27 CA         -2.5388  -17.4813  -46.4961 C.3       9 UNK         0.1400 
     28 CB         -3.9757  -17.5915  -45.9551 C.3       9 UNK        -0.1800 
     29 N          -1.7720  -16.5861  -45.6363 N.am      9 UNK        -0.5000 
     30 C          -1.5086  -15.2978  -45.8865 C.2       8 UNK         0.5000 
     31 O          -1.9537  -14.6880  -46.8582 O.2       8 UNK        -0.5000 
     32 CA         -0.5605  -14.5692  -44.9116 C.3       8 UNK         0.1400 
     33 CB         -1.3199  -13.5291  -44.0760 C.3       8 UNK        -0.1800 
     34 N           0.1528  -15.4793  -44.0109 N.am      8 UNK        -0.5000 
     35 C           1.1392  -16.3068  -44.3802 C.2       7 UNK         0.5000 
     36 O           1.6412  -16.2825  -45.5009 O.2       7 UNK        -0.5000 
     37 CA          1.6472  -17.3418  -43.3597 C.3       7 UNK         0.1400 
     38 CB          3.1088  -17.0649  -42.9834 C.3       7 UNK        -0.1800 
     39 N           0.8368  -17.4143  -42.1447 N.am      7 UNK        -0.5000 
     40 C          -0.3847  -17.9598  -42.0661 C.2       6 UNK         0.5000 
     41 O          -0.9767  -18.4488  -43.0290 O.2       6 UNK        -0.5000 
     42 CA         -1.0645  -17.9018  -40.6858 C.3       6 UNK         0.1400 
     43 CB         -0.6468  -19.1056  -39.8282 C.3       6 UNK        -0.1800 
     44 N          -0.7486  -16.6613  -39.9701 N.am      6 UNK        -0.5000 
     45 C          -1.2663  -15.4657  -40.2857 C.2       5 UNK         0.5000 
     46 O          -2.1020  -15.2996  -41.1734 O.2       5 UNK        -0.5000 
     47 CA         -0.7343  -14.2470  -39.5069 C.3       5 UNK         0.1400 
     48 CB         -1.4627  -14.1035  -38.1620 C.3       5 UNK        -0.1800 
     49 N           0.7144  -14.2778  -39.2760 N.am      5 UNK        -0.5000 
     50 C           1.6392  -14.2687  -40.2445 C.2       4 UNK         0.5000 
     51 O           1.3684  -14.2874  -41.4491 O.2       4 UNK        -0.5000 
     52 CA          3.1103  -14.2606  -39.7998 C.3       4 UNK         0.1400 
     53 CB          3.5142  -15.6079  -39.1739 C.3       4 UNK        -0.1800 
     54 N           3.9228  -14.0050  -40.9808 N.am      4 UNK        -0.5000 
     55 C           5.1537  -13.4888  -41.0353 C.2       3 UNK         0.5000 
     56 O           5.8064  -13.1742  -40.0394 O.2       3 UNK        -0.5000 
     57 CA          5.7617  -13.2949  -42.4430 C.3       3 UNK         0.1400 
     58 CB          6.8757  -14.3234  -42.6899 C.3       3 UNK        -0.1800 
     59 N           4.7699  -13.3965  -43.5223 N.am      3 UNK        -0.5000 
     60 C           3.8695  -12.4441  -43.8120 C.2       2 UNK         0.5000 
     61 O           3.8478  -11.3484  -43.2493 O.2       2 UNK        -0.5000 
     62 CA          2.7816  -12.7871  -44.8524 C.3       2 UNK         0.1400 
     63 CB          2.2403  -11.5504  -45.5985 C.3       2 UNK        -0.1800 
     64 N           3.1539  -13.8502  -45.7920 N.am      2 UNK        -0.5000 
     65 C           4.1153  -13.8175  -46.7242 C.2       1 UNK         0.5000 
     66 O           4.8414  -12.8459  -46.9469 O.2       1 UNK        -0.5000 
     67 C          -1.9429  -22.5714  -49.5088 C.2       11 UNK         0.5000 
     68 O          -2.2370  -23.6905  -49.9309 O.2       11 UNK        -0.5000 
     69 N          -2.8217  -21.7536  -48.9136 N.am      12 UNK        -0.5000 
     70 CA         -4.1911  -22.1390  -48.5857 C.3       12 UNK         0.1400 
     71 CB         -5.0847  -20.8943  -48.4951 C.3       12 UNK        -0.1800 
     72 C          -4.2280  -22.9555  -47.2853 C.2       12 UNK         0.5000 
     73 O          -4.8836  -23.9953  -47.2427 O.2       12 UNK        -0.5000 
     74 N          -3.4743  -22.5037  -46.2730 N.am      13 UNK        -0.5000 
     75 CA         -3.2862  -23.1756  -44.9860 C.3       13 UNK         0.1400 
     76 CB         -2.4899  -22.2550  -44.0475 C.3       13 UNK        -0.1800 
     77 C          -2.5984  -24.5470  -45.1252 C.2       13 UNK         0.5000 
     78 O          -2.9911  -25.4979  -44.4486 O.2       13 UNK        -0.5000 
     79 N          -1.6155  -24.6334  -46.0321 N.am      14 UNK        -0.5000 
     80 CA         -0.9296  -25.8708  -46.4106 C.3       14 UNK         0.1400 
     81 CB          0.3888  -25.5069  -47.1121 C.3       14 UNK        -0.1800 
     82 C          -1.7711  -26.7927  -47.3182 C.2       14 UNK         0.5000 
     83 O          -1.3846  -27.9453  -47.5151 O.2       14 UNK        -0.5000 
     84 N          -2.8759  -26.2695  -47.8747 N.am      15 UNK        -0.5000 
     85 CA         -3.7699  -26.9005  -48.8539 C.3       15 UNK         0.1400 
     86 CB         -4.5213  -28.0930  -48.2278 C.3       15 UNK        -0.1800 
     87 C          -3.0579  -27.2561  -50.1781 C.2       15 UNK         0.5000 
     88 O          -3.3995  -28.2482  -50.8240 O.2       15 UNK        -0.5000 
     89 N          -2.0741  -26.4306  -50.5529 N.am      16 UNK        -0.5000 
     90 CA         -1.2531  -26.5771  -51.7505 C.3       16 UNK         0.1400 
     91 CB          0.1580  -26.0480  -51.4486 C.3       16 UNK        -0.1800 
     92 C          -1.8594  -25.8371  -52.9541 C.2       16 UNK         0.5000 
     93 O          -1.7204  -26.3123  -54.0817 O.2       16 UNK        -0.5000 
     94 N          -2.5196  -24.6978  -52.7024 N.am      17 UNK        -0.5000 
     95 CA         -3.1375  -23.8562  -53.7302 C.3       17 UNK         0.1400 
     96 CB         -2.0985  -22.8857  -54.3242 C.3       17 UNK        -0.1800 
     97 C          -4.3867  -23.1338  -53.1971 C.2       17 UNK         0.5000 
     98 O          -4.6942  -22.0300  -53.6559 O.2       17 UNK        -0.5000 
     99 N          -5.0893  -23.7740  -52.2504 N.am      18 UNK        -0.5000 
    100 CA        -6.3241  -23.2979  -51.6229 C.3       18 UNK         0.1400 
    101 CB        -6.7961  -24.3314  -50.5861 C.3       18 UNK        -0.1800 
    102 C         -7.4279  -23.0174  -52.6575 C.2       18 UNK         0.5000 
    103 O         -7.9249  -23.9523  -53.2872 O.2       18 UNK        -0.5000 
    104 N         -7.7350  -21.7275  -52.8415 N.am      19 UNK        -0.5000 
    105 CA        -8.6694  -21.1352  -53.8071 C.3       19 UNK         0.1400 
    106 CB       -10.0984  -21.6830  -53.6175 C.3       19 UNK        -0.1800 
    107 C         -8.2121  -21.2144  -55.2805 C.2       19 UNK         0.5000 
    108 O         -8.8817  -20.6438  -56.1426 O.2       19 UNK        -0.5000 
    109 N         -7.0805  -21.8775  -55.5525 N.am      20 UNK        -0.5000 
    110 CA        -6.4343  -21.9219  -56.8624 C.3       20 UNK         0.1400 
    111 CB        -5.6017  -23.2076  -56.9871 C.3       20 UNK        -0.1800 
    112 C         -5.5615  -20.6738  -57.0611 C.2       20 UNK         0.5000 
    113 O         -5.6488  -20.0284  -58.1063 O.2       20 UNK        -0.5000 
    114 N         -4.7696  -20.3405  -56.0335 N.am      21 UNK        -0.5000 
    115 CA        -4.0333  -19.0846  -55.9335 C.3       21 UNK         0.1400 
    116 CB        -2.6846  -19.3306  -55.2335 C.3       21 UNK        -0.1800 
    117 C         -4.8802  -18.0618  -55.1632 C.2       21 UNK         0.5000 
    118 O         -5.1858  -16.9912  -55.6894 O.2       21 UNK        -0.5000 
    119 N         -5.2522  -18.4293  -53.9333 N.am      22 UNK        -0.5000 
    120 CA        -5.9925  -17.6192  -52.9595 C.3       22 UNK         0.1400 
    121 C         -6.4384  -18.4942  -51.7556 C.2       22 UNK         0.5000 
    122 N         -7.1881  -17.9448  -50.8111 N.am      22 UNK        -0.7600 
    123 O         -6.1403  -19.6844  -51.6791 O.2       22 UNK        -0.5000 
    124 C124       -5.2756  -16.2927  -52.5385 C.3       23 UNK        -0.0398 
    125 S125       -3.4474  -16.3198  -52.4765 S.3       23 UNK        -0.2404 
    126 C126       -3.1093  -17.1902  -50.9199 C.3       23 UNK        -0.0205 
    127 H127        8.3896  -15.6432  -45.7744 H         1 UNK         0.0600 
    128 H128        8.1836  -16.1811  -47.4442 H         1 UNK         0.0600 
    129 H129        7.9652  -17.3239  -46.1151 H         1 UNK         0.0600 
    130 H130        6.2432  -15.4829  -48.3108 H         1 UNK         0.3000 
    131 H131        3.7374  -15.9089  -47.0395 H         1 UNK         0.0600 
    132 H132        4.0067  -15.9662  -49.5129 H         1 UNK         0.0800 
    133 H133        4.4093  -14.2719  -49.5342 H         1 UNK         0.0800 
    134 H134        0.5525  -15.7979  -47.7853 H         1 UNK         0.0800 
    135 H135        1.9610  -16.7702  -48.1052 H         1 UNK         0.0800 
    136 H136       -1.4008  -15.9214  -49.1977 H         1 UNK         0.1150 
    137 H137       -1.4966  -18.8847  -52.2856 H         1 UNK         0.1150 
    138 H138        2.2020  -17.9560  -50.3228 H         1 UNK         0.1150 
    139 H139        0.5840  -19.7352  -53.1906 H         1 UNK         0.0800 
    140 H140        2.1056  -19.1087  -52.6127 H         1 UNK         0.0800 
    141 H141       -0.3092  -22.6336  -51.7564 H         1 UNK         0.0800 
    142 H142       -0.9377  -21.0317  -51.5263 H         1 UNK         0.0800 
    143 H143        0.1488  -22.9230  -49.4083 H         1 UNK         0.0600 
    144 H144       -0.0285  -20.0690  -49.1214 H         1 UNK         0.3000 
    145 H145        0.3876  -20.2798  -45.5230 H         1 UNK         0.0600 
    146 H146        1.9617  -19.1735  -47.9068 H         1 UNK         0.0600 
    147 H147        2.2059  -18.7502  -46.2135 H         1 UNK         0.0600 
    148 H148        2.5519  -20.3742  -46.7700 H         1 UNK         0.0600 
    149 H149       -0.0327  -17.9088  -46.7168 H         1 UNK         0.3000 
    150 H150       -2.5870  -17.0854  -47.5109 H         1 UNK         0.0600 
    151 H151       -4.6013  -18.1883  -46.6181 H         1 UNK         0.0600 
    152 H152       -4.4417  -16.6096  -45.8725 H         1 UNK         0.0600 
    153 H153       -3.9972  -18.0570  -44.9688 H         1 UNK         0.0600 
    154 H154       -1.3783  -17.0130  -44.8057 H         1 UNK         0.3000 
    155 H155        0.1719  -14.0423  -45.5248 H         1 UNK         0.0600 
    156 H156       -1.7745  -12.7719  -44.7159 H         1 UNK         0.0600 
    157 H157       -0.6532  -13.0137  -43.3839 H         1 UNK         0.0600 
    158 H158       -2.1195  -13.9884  -43.4947 H         1 UNK         0.0600 
    159 H159       -0.1651  -15.5078  -43.0516 H         1 UNK         0.3000 
    160 H160        1.6065  -18.3176  -43.8476 H         1 UNK         0.0600 
    161 H161        3.2321  -16.0735  -42.5538 H         1 UNK         0.0600 
    162 H162        3.7518  -17.1222  -43.8620 H         1 UNK         0.0600 
    163 H163        3.4808  -17.7948  -42.2644 H         1 UNK         0.0600 
    164 H164        1.2261  -16.9900  -41.3171 H         1 UNK         0.3000 
    165 H165       -2.1444  -17.9531  -40.8420 H         1 UNK         0.0600 
    166 H166       -1.1705  -19.1083  -38.8721 H         1 UNK         0.0600 
    167 H167       -0.8856  -20.0437  -40.3311 H         1 UNK         0.0600 
    168 H168        0.4247  -19.1056  -39.6244 H         1 UNK         0.0600 
    169 H169       -0.0772  -16.7181  -39.2184 H         1 UNK         0.3000 
    170 H170       -0.9525  -13.3597  -40.1054 H         1 UNK         0.0600 
    171 H171       -2.5433  -14.0599  -38.3057 H         1 UNK         0.0600 
    172 H172       -1.2535  -14.9428  -37.4976 H         1 UNK         0.0600 
    173 H173       -1.1680  -13.1875  -37.6495 H         1 UNK         0.0600 
    174 H174        1.0149  -14.2683  -38.3118 H         1 UNK         0.3000 
    175 H175        3.2509  -13.4532  -39.0785 H         1 UNK         0.0600 
    176 H176        3.3712  -16.4347  -39.8705 H         1 UNK         0.0600 
    177 H177        4.5621  -15.6045  -38.8737 H         1 UNK         0.0600 
    178 H178        2.9258  -15.8226  -38.2813 H         1 UNK         0.0600 
    179 H179        3.4245  -14.1611  -41.8471 H         1 UNK         0.3000 
    180 H180        6.2081  -12.2988  -42.4726 H         1 UNK         0.0600 
    181 H181        6.4925  -15.3443  -42.6610 H         1 UNK         0.0600 
    182 H182        7.6572  -14.2447  -41.9332 H         1 UNK         0.0600 
    183 H183        7.3477  -14.1686  -43.6603 H         1 UNK         0.0600 
    184 H184        4.7637  -14.2604  -44.0508 H         1 UNK         0.3000 
    185 H185        1.9589  -13.1887  -44.2613 H         1 UNK         0.0600 
    186 H186        1.4614  -11.8282  -46.3087 H         1 UNK         0.0600 
    187 H187        1.8014  -10.8341  -44.9031 H         1 UNK         0.0600 
    188 H188        3.0263  -11.0316  -46.1477 H         1 UNK         0.0600 
    189 H189        2.6280  -14.7164  -45.6974 H         1 UNK         0.3000 
    190 H190       -2.4938  -20.8775  -48.5291 H         1 UNK         0.3000 
    191 H191       -4.5714  -22.7665  -49.3902 H         1 UNK         0.0600 
    192 H192       -4.9777  -20.2671  -49.3793 H         1 UNK         0.0600 
    193 H193       -6.1349  -21.1775  -48.4193 H         1 UNK         0.0600 
    194 H194       -4.8483  -20.2853  -47.6242 H         1 UNK         0.0600 
    195 H195       -2.9954  -21.6125  -46.3889 H         1 UNK         0.3000 
    196 H196       -4.2731  -23.3405  -44.5491 H         1 UNK         0.0600 
    197 H197       -2.3545  -22.7158  -43.0683 H         1 UNK         0.0600 
    198 H198       -3.0058  -21.3068  -43.8935 H         1 UNK         0.0600 
    199 H199       -1.4998  -22.0316  -44.4466 H         1 UNK         0.0600 
    200 H200       -1.2908  -23.7803  -46.4792 H         1 UNK         0.3000 
    201 H201       -0.6924  -26.4290  -45.5027 H         1 UNK         0.0600 
    202 H202        1.0194  -24.8889  -46.4727 H         1 UNK         0.0600 
    203 H203        0.2115  -24.9598  -48.0385 H         1 UNK         0.0600 
    204 H204        0.9603  -26.4011  -47.3641 H         1 UNK         0.0600 
    205 H205       -3.1260  -25.3235  -47.6182 H         1 UNK         0.3000 
    206 H206       -4.5132  -26.1457  -49.1091 H         1 UNK         0.0600 
    207 H207       -3.8514  -28.9233  -48.0036 H         1 UNK         0.0600 
    208 H208       -5.0174  -27.8018  -47.3019 H         1 UNK         0.0600 
    209 H209       -5.2913  -28.4678  -48.9030 H         1 UNK         0.0600 
    210 H210       -1.9269  -25.5879  -50.0071 H         1 UNK         0.3000 
    211 H211       -1.1705  -27.6346  -52.0106 H         1 UNK         0.0600 
    212 H212        0.8071  -26.1450  -52.3199 H         1 UNK         0.0600 
    213 H213        0.6202  -26.6069  -50.6346 H         1 UNK         0.0600 
    214 H214        0.1441  -24.9958  -51.1638 H         1 UNK         0.0600 
    215 H215       -2.5735  -24.3621  -51.7449 H         1 UNK         0.3000 
    216 H216       -3.4969  -24.4980  -54.5370 H         1 UNK         0.0600 
    217 H217       -2.5049  -22.3676  -55.1932 H         1 UNK         0.0600 
    218 H218       -1.2027  -23.4105  -54.6558 H         1 UNK         0.0600 
    219 H219       -1.7976  -22.1273  -53.6026 H         1 UNK         0.0600 
    220 H220       -4.7854  -24.6985  -51.9857 H         1 UNK         0.3000 
    221 H221       -6.0948  -22.3683  -51.0993 H         1 UNK         0.0600 
    222 H222       -7.0018  -25.2992  -51.0454 H         1 UNK         0.0600 
    223 H223       -6.0540  -24.4862  -49.8051 H         1 UNK         0.0600 
    224 H224       -7.7127  -23.9998  -50.0966 H         1 UNK         0.0600 
    225 H225       -7.1881  -21.0442  -52.3185 H         1 UNK         0.3000 
    226 H226       -8.6958  -20.0718  -53.5651 H         1 UNK         0.0600 
    227 H227      -10.4181  -21.6013  -52.5786 H         1 UNK         0.0600 
    228 H228      -10.8133  -21.1223  -54.2208 H         1 UNK         0.0600 
    229 H229      -10.1776  -22.7291  -53.9136 H         1 UNK         0.0600 
    230 H230       -6.5690  -22.2767  -54.7769 H         1 UNK         0.3000 
    231 H231       -7.1978  -21.9372  -57.6432 H         1 UNK         0.0600 
    232 H232       -4.7888  -23.2391  -56.2629 H         1 UNK         0.0600 
    233 H233       -5.1567  -23.2854  -57.9798 H         1 UNK         0.0600 
    234 H234       -6.2195  -24.0931  -56.8367 H         1 UNK         0.0600 
    235 H235       -4.7732  -20.9294  -55.2055 H         1 UNK         0.3000 
    236 H236       -3.8283  -18.6806  -56.9272 H         1 UNK         0.0600 
    237 H237       -2.0456  -19.9783  -55.8334 H         1 UNK         0.0600 
    238 H238       -2.1467  -18.3938  -55.0817 H         1 UNK         0.0600 
    239 H239       -2.8100  -19.7985  -54.2566 H         1 UNK         0.0600 
    240 H240       -4.9940  -19.3434  -53.5826 H         1 UNK         0.3000 
    241 H241       -6.9271  -17.3464  -53.4525 H         1 UNK         0.0600 
    242 H242       -7.4855  -18.5166  -50.0369 H         1 UNK         0.3800 
    243 H243       -7.4871  -16.9834  -50.8542 H         1 UNK         0.3800 
    244 H244       -5.5327  -15.5277  -53.2720 H         1 UNK         0.0800 
    245 H245       -5.6515  -15.9011  -51.5927 H         1 UNK         0.0800 
    246 H246       -3.6063  -18.1611  -50.9230 H         1 UNK         0.0800 
    247 H247       -3.5258  -16.6236  -50.0856 H         1 UNK         0.0800 
@<TRIPOS>BOND
     1    1    2 1    
     2    1  127 1    
     3    1  128 1    
     4    1  129 1    
     5    2    3 2    
     6    2    4 am   BACKBONE|DICT|INTERRES
     7    4    5 1    
     8    4  130 1    
     9    5    6 1    
    10    5   65 1    
    11    5  131 1    
    12    6    7 1    
    13    6  132 1    
    14    6  133 1    
    15    7    8 1    
    16    8    9 1    
    17    8  134 1    
    18    8  135 1    
    19    9   10 ar   
    20    9   14 ar   
    21   10   11 ar   
    22   10  136 1    
    23   11   12 ar   
    24   11  126 1    
    25   12   13 ar   
    26   12  137 1    
    27   13   14 ar   
    28   13   15 1    
    29   14  138 1    
    30   15   16 1    
    31   15  139 1    
    32   15  140 1    
    33   16   17 1    
    34   17   18 1    
    35   17  141 1    
    36   17  142 1    
    37   18   19 1    
    38   18   67 1    
    39   18  143 1    
    40   19   20 am   BACKBONE|DICT|INTERRES
    41   19  144 1    
    42   20   21 2    
    43   20   22 1    
    44   22   23 1    
    45   22   24 1    
    46   22  145 1    
    47   23  146 1    
    48   23  147 1    
    49   23  148 1    
    50   24   25 am   BACKBONE|DICT|INTERRES
    51   24  149 1    
    52   25   26 2    
    53   25   27 1    
    54   27   28 1    
    55   27   29 1    
    56   27  150 1    
    57   28  151 1    
    58   28  152 1    
    59   28  153 1    
    60   29   30 am   BACKBONE|DICT|INTERRES
    61   29  154 1    
    62   30   31 2    
    63   30   32 1    
    64   32   33 1    
    65   32   34 1    
    66   32  155 1    
    67   33  156 1    
    68   33  157 1    
    69   33  158 1    
    70   34   35 am   BACKBONE|DICT|INTERRES
    71   34  159 1    
    72   35   36 2    
    73   35   37 1    
    74   37   38 1    
    75   37   39 1    
    76   37  160 1    
    77   38  161 1    
    78   38  162 1    
    79   38  163 1    
    80   39   40 am   BACKBONE|DICT|INTERRES
    81   39  164 1    
    82   40   41 2    
    83   40   42 1    
    84   42   43 1    
    85   42   44 1    
    86   42  165 1    
    87   43  166 1    
    88   43  167 1    
    89   43  168 1    
    90   44   45 am   BACKBONE|DICT|INTERRES
    91   44  169 1    
    92   45   46 2    
    93   45   47 1    
    94   47   48 1    
    95   47   49 1    
    96   47  170 1    
    97   48  171 1    
    98   48  172 1    
    99   48  173 1    
   100   49   50 am   BACKBONE|DICT|INTERRES
   101   49  174 1    
   102   50   51 2    
   103   50   52 1    
   104   52   53 1    
   105   52   54 1    
   106   52  175 1    
   107   53  176 1    
   108   53  177 1    
   109   53  178 1    
   110   54   55 am   BACKBONE|DICT|INTERRES
   111   54  179 1    
   112   55   56 2    
   113   55   57 1    
   114   57   58 1    
   115   57   59 1    
   116   57  180 1    
   117   58  181 1    
   118   58  182 1    
   119   58  183 1    
   120   59   60 am   BACKBONE|DICT|INTERRES
   121   59  184 1    
   122   60   61 2    
   123   60   62 1    
   124   62   63 1    
   125   62   64 1    
   126   62  185 1    
   127   63  186 1    
   128   63  187 1    
   129   63  188 1    
   130   64   65 am   BACKBONE|DICT|INTERRES
   131   64  189 1    
   132   65   66 2    
   133   67   68 2    
   134   67   69 am   BACKBONE|DICT|INTERRES
   135   69   70 1    
   136   69  190 1    
   137   70   71 1    
   138   70   72 1    
   139   70  191 1    
   140   71  192 1    
   141   71  193 1    
   142   71  194 1    
   143   72   73 2    
   144   72   74 am   BACKBONE|DICT|INTERRES
   145   74   75 1    
   146   74  195 1    
   147   75   76 1    
   148   75   77 1    
   149   75  196 1    
   150   76  197 1    
   151   76  198 1    
   152   76  199 1    
   153   77   78 2    
   154   77   79 am   BACKBONE|DICT|INTERRES
   155   79   80 1    
   156   79  200 1    
   157   80   81 1    
   158   80   82 1    
   159   80  201 1    
   160   81  202 1    
   161   81  203 1    
   162   81  204 1    
   163   82   83 2    
   164   82   84 am   BACKBONE|DICT|INTERRES
   165   84   85 1    
   166   84  205 1    
   167   85   86 1    
   168   85   87 1    
   169   85  206 1    
   170   86  207 1    
   171   86  208 1    
   172   86  209 1    
   173   87   88 2    
   174   87   89 am   BACKBONE|DICT|INTERRES
   175   89   90 1    
   176   89  210 1    
   177   90   91 1    
   178   90   92 1    
   179   90  211 1    
   180   91  212 1    
   181   91  213 1    
   182   91  214 1    
   183   92   93 2    
   184   92   94 am   BACKBONE|DICT|INTERRES
   185   94   95 1    
   186   94  215 1    
   187   95   96 1    
   188   95   97 1    
   189   95  216 1    
   190   96  217 1    
   191   96  218 1    
   192   96  219 1    
   193   97   98 2    
   194   97   99 am   BACKBONE|DICT|INTERRES
   195   99  100 1    
   196   99  220 1    
   197  100  101 1    
   198  100  102 1    
   199  100  221 1    
   200  101  222 1    
   201  101  223 1    
   202  101  224 1    
   203  102  103 2    
   204  102  104 am   BACKBONE|DICT|INTERRES
   205  104  105 1    
   206  104  225 1    
   207  105  106 1    
   208  105  107 1    
   209  105  226 1    
   210  106  227 1    
   211  106  228 1    
   212  106  229 1    
   213  107  108 2    
   214  107  109 am   BACKBONE|DICT|INTERRES
   215  109  110 1    
   216  109  230 1    
   217  110  111 1    
   218  110  112 1    
   219  110  231 1    
   220  111  232 1    
   221  111  233 1    
   222  111  234 1    
   223  112  113 2    
   224  112  114 am   BACKBONE|DICT|INTERRES
   225  114  115 1    
   226  114  235 1    
   227  115  116 1    
   228  115  117 1    
   229  115  236 1    
   230  116  237 1    
   231  116  238 1    
   232  116  239 1    
   233  117  118 2    
   234  117  119 am   BACKBONE|DICT|INTERRES
   235  119  120 1    
   236  119  240 1    
   237  120  121 1    
   238  120  124 1    
   239  120  241 1    
   240  121  122 am   BACKBONE|DICT|INTERRES
   241  121  123 2    
   242  122  242 1    
   243  122  243 1    
   244  124  125 1    
   245  124  244 1    
   246  124  245 1    
   247  125  126 1    
   248  126  246 1    
   249  126  247 1    
@<TRIPOS>SUBSTRUCTURE
     1 UNK         1 GROUP             0       ****    0 ROOT    
