@<TRIPOS>MOLECULE
3R540
247   249    1
SMALL
USER_CHARGES


@<TRIPOS>ATOM
      1 CA          5.0902  -18.2389  -47.4199 C.3       0 UNK        -0.1800 
      2 C           4.5039  -17.0345  -46.7001 C.2       0 UNK         0.5000 
      3 O           4.8026  -16.8160  -45.5265 O.2       0 UNK        -0.5000 
      4 N           3.6850  -16.2389  -47.4005 N.am      1 UNK        -0.5000 
      5 CA          2.9711  -15.0636  -46.8768 C.3       1 UNK         0.1400 
      6 C6          1.8784  -14.5648  -47.8556 C.3       23 UNK        -0.0398 
      7 S7          2.4919  -14.0990  -49.5144 S.3       23 UNK        -0.2404 
      8 C8          1.9448  -15.4956  -50.5491 C.3       23 UNK        -0.0205 
      9 C9          0.4330  -15.5413  -50.7223 C.ar      23 UNK        -0.0193 
     10 C10        -0.2015  -14.6872  -51.6301 C.ar      23 UNK        -0.1150 
     11 C11        -1.5866  -14.7523  -51.8174 C.ar      23 UNK        -0.0193 
     12 C12        -2.3379  -15.6711  -51.0794 C.ar      23 UNK        -0.1150 
     13 C13        -1.7115  -16.5426  -50.1873 C.ar      23 UNK        -0.0193 
     14 C14        -0.3286  -16.4689  -50.0063 C.ar      23 UNK        -0.1150 
     15 C15        -2.5184  -17.5995  -49.4590 C.3       23 UNK        -0.0205 
     16 S16        -2.4711  -19.1587  -50.3793 S.3       23 UNK        -0.2404 
     17 C17        -3.2576  -20.2996  -49.2063 C.3       23 UNK        -0.0398 
     18 CA         -2.2229  -21.2151  -48.5187 C.3       11 UNK         0.1400 
     19 N          -1.3540  -20.4992  -47.5809 N.am      11 UNK        -0.5000 
     20 C          -0.2383  -21.0104  -47.0425 C.2       10 UNK         0.5000 
     21 O           0.1905  -22.1371  -47.2918 O.2       10 UNK        -0.5000 
     22 CA          0.4854  -20.1310  -46.0092 C.3       10 UNK         0.1400 
     23 CB          1.3360  -19.0580  -46.7061 C.3       10 UNK        -0.1800 
     24 N          -0.4552  -19.4991  -45.0818 N.am      10 UNK        -0.5000 
     25 C          -1.1571  -20.1765  -44.1591 C.2       9 UNK         0.5000 
     26 O          -1.0514  -21.3896  -43.9816 O.2       9 UNK        -0.5000 
     27 CA         -2.1837  -19.3875  -43.3227 C.3       9 UNK         0.1400 
     28 CB         -1.5308  -18.8274  -42.0507 C.3       9 UNK        -0.1800 
     29 N          -2.8198  -18.2924  -44.0523 N.am      9 UNK        -0.5000 
     30 C          -3.5336  -18.4174  -45.1794 C.2       8 UNK         0.5000 
     31 O          -3.7762  -19.4948  -45.7228 O.2       8 UNK        -0.5000 
     32 CA         -4.0050  -17.1106  -45.8424 C.3       8 UNK         0.1400 
     33 CB         -5.4247  -16.7568  -45.3780 C.3       8 UNK        -0.1800 
     34 N          -3.1230  -15.9646  -45.6002 N.am      8 UNK        -0.5000 
     35 C          -1.8175  -15.8897  -45.8915 C.2       7 UNK         0.5000 
     36 O          -1.1611  -16.8238  -46.3505 O.2       7 UNK        -0.5000 
     37 CA         -1.1116  -14.5668  -45.5664 C.3       7 UNK         0.1400 
     38 CB         -1.6171  -13.4063  -46.4433 C.3       7 UNK        -0.1800 
     39 N          -1.1289  -14.2383  -44.1403 N.am      7 UNK        -0.5000 
     40 C          -2.1581  -13.9034  -43.3478 C.2       6 UNK         0.5000 
     41 O          -3.3207  -13.8023  -43.7420 O.2       6 UNK        -0.5000 
     42 CA         -1.8465  -13.6691  -41.8527 C.3       6 UNK         0.1400 
     43 CB         -2.3567  -14.8524  -41.0149 C.3       6 UNK        -0.1800 
     44 N          -0.4198  -13.4806  -41.5728 N.am      6 UNK        -0.5000 
     45 C           0.2970  -12.4023  -41.9192 C.2       5 UNK         0.5000 
     46 O          -0.1991  -11.3862  -42.4071 O.2       5 UNK        -0.5000 
     47 CA          1.8264  -12.4734  -41.7161 C.3       5 UNK         0.1400 
     48 CB          2.2368  -11.6879  -40.4611 C.3       5 UNK        -0.1800 
     49 N           2.3982  -13.8246  -41.6336 N.am      5 UNK        -0.5000 
     50 C           2.3003  -14.7820  -42.5655 C.2       4 UNK         0.5000 
     51 O           1.6163  -14.6788  -43.5832 O.2       4 UNK        -0.5000 
     52 CA          3.1240  -16.0575  -42.3274 C.3       4 UNK         0.1400 
     53 CB          2.4791  -17.2915  -42.9827 C.3       4 UNK        -0.1800 
     54 N           4.4621  -15.8784  -42.8789 N.am      4 UNK        -0.5000 
     55 C           5.4672  -15.2324  -42.2740 C.2       3 UNK         0.5000 
     56 O           5.3884  -14.7528  -41.1421 O.2       3 UNK        -0.5000 
     57 CA          6.7685  -15.0830  -43.0767 C.3       3 UNK         0.1400 
     58 CB          7.5221  -16.4210  -43.1477 C.3       3 UNK        -0.1800 
     59 N           6.4846  -14.6166  -44.4330 N.am      3 UNK        -0.5000 
     60 C           6.6226  -13.3511  -44.8531 C.2       2 UNK         0.5000 
     61 O           7.0521  -12.4379  -44.1472 O.2       2 UNK        -0.5000 
     62 CA          6.2149  -13.0461  -46.3097 C.3       2 UNK         0.1400 
     63 CB          7.4334  -13.1417  -47.2403 C.3       2 UNK        -0.1800 
     64 N           5.1687  -13.9405  -46.8044 N.am      2 UNK        -0.5000 
     65 C           3.8911  -13.9137  -46.3999 C.2       1 UNK         0.5000 
     66 O           3.4375  -13.0402  -45.6606 O.2       1 UNK        -0.5000 
     67 C          -2.9271  -22.4027  -47.8438 C.2       11 UNK         0.5000 
     68 O          -3.0277  -23.4608  -48.4632 O.2       11 UNK        -0.5000 
     69 N          -3.3665  -22.2200  -46.5906 N.am      12 UNK        -0.5000 
     70 CA         -3.9716  -23.2587  -45.7586 C.3       12 UNK         0.1400 
     71 CB         -4.5200  -22.6320  -44.4686 C.3       12 UNK        -0.1800 
     72 C          -2.9946  -24.4048  -45.4415 C.2       12 UNK         0.5000 
     73 O          -3.3789  -25.5695  -45.5452 O.2       12 UNK        -0.5000 
     74 N          -1.7462  -24.0573  -45.0952 N.am      13 UNK        -0.5000 
     75 CA         -0.6658  -25.0072  -44.8238 C.3       13 UNK         0.1400 
     76 CB          0.5307  -24.2644  -44.2100 C.3       13 UNK        -0.1800 
     77 C          -0.2336  -25.7936  -46.0746 C.2       13 UNK         0.5000 
     78 O          -0.0219  -27.0038  -45.9881 O.2       13 UNK        -0.5000 
     79 N          -0.1254  -25.0982  -47.2148 N.am      14 UNK        -0.5000 
     80 CA          0.2234  -25.6858  -48.5099 C.3       14 UNK         0.1400 
     81 CB          0.6724  -24.5607  -49.4552 C.3       14 UNK        -0.1800 
     82 C          -0.9262  -26.4857  -49.1541 C.2       14 UNK         0.5000 
     83 O          -0.6618  -27.3274  -50.0132 O.2       14 UNK        -0.5000 
     84 N          -2.1709  -26.1774  -48.7594 N.am      15 UNK        -0.5000 
     85 CA         -3.4374  -26.6067  -49.3629 C.3       15 UNK         0.1400 
     86 CB         -3.6540  -28.1243  -49.1962 C.3       15 UNK        -0.1800 
     87 C          -3.5647  -26.1257  -50.8254 C.2       15 UNK         0.5000 
     88 O          -4.0497  -26.8664  -51.6817 O.2       15 UNK        -0.5000 
     89 N          -3.0944  -24.8948  -51.0777 N.am      16 UNK        -0.5000 
     90 CA         -2.8711  -24.2809  -52.3893 C.3       16 UNK         0.1400 
     91 CB         -2.1982  -22.9166  -52.1775 C.3       16 UNK        -0.1800 
     92 C          -4.1546  -24.1529  -53.2311 C.2       16 UNK         0.5000 
     93 O          -4.8854  -23.1704  -53.0912 O.2       16 UNK        -0.5000 
     94 N          -4.4272  -25.1758  -54.0520 N.am      17 UNK        -0.5000 
     95 CA         -5.6541  -25.3787  -54.8340 C.3       17 UNK         0.1400 
     96 CB         -5.8197  -24.2792  -55.9024 C.3       17 UNK        -0.1800 
     97 C          -6.9159  -25.5433  -53.9557 C.2       17 UNK         0.5000 
     98 O          -8.0214  -25.2662  -54.4229 O.2       17 UNK        -0.5000 
     99 N          -6.7185  -26.0023  -52.7092 N.am      18 UNK        -0.5000 
    100 CA        -7.7160  -26.2298  -51.6603 C.3       18 UNK         0.1400 
    101 CB        -8.5537  -27.4794  -52.0033 C.3       18 UNK        -0.1800 
    102 C         -8.5961  -24.9866  -51.3668 C.2       18 UNK         0.5000 
    103 O         -9.7830  -24.9988  -51.6937 O.2       18 UNK        -0.5000 
    104 N         -8.0693  -23.9029  -50.7793 N.am      19 UNK        -0.5000 
    105 CA        -6.7231  -23.6807  -50.2571 C.3       19 UNK         0.1400 
    106 CB        -6.5709  -24.3527  -48.8758 C.3       19 UNK        -0.1800 
    107 C         -6.5211  -22.1563  -50.1795 C.2       19 UNK         0.5000 
    108 O         -6.5874  -21.5876  -49.0886 O.2       19 UNK        -0.5000 
    109 N         -6.3607  -21.5020  -51.3374 N.am      20 UNK        -0.5000 
    110 CA        -6.3668  -20.0388  -51.4532 C.3       20 UNK         0.1400 
    111 CB        -7.8264  -19.5397  -51.4624 C.3       20 UNK        -0.1800 
    112 C         -5.5841  -19.4742  -52.6571 C.2       20 UNK         0.5000 
    113 O         -5.5753  -18.2530  -52.8209 O.2       20 UNK        -0.5000 
    114 N         -4.9651  -20.3186  -53.4962 N.am      21 UNK        -0.5000 
    115 CA        -4.2183  -19.8686  -54.6760 C.3       21 UNK         0.1400 
    116 CB        -3.9998  -21.0465  -55.6374 C.3       21 UNK        -0.1800 
    117 C         -2.8768  -19.2166  -54.2925 C.2       21 UNK         0.5000 
    118 O         -2.0442  -19.8729  -53.6666 O.2       21 UNK        -0.5000 
    119 N         -2.6921  -17.9504  -54.6864 N.am      22 UNK        -0.5000 
    120 CA        -1.4846  -17.1486  -54.4292 C.3       22 UNK         0.1400 
    121 C         -0.1948  -17.7612  -55.0436 C.2       22 UNK         0.5000 
    122 N          0.9161  -17.7390  -54.3194 N.am      22 UNK        -0.7600 
    123 O         -0.1824  -18.2075  -56.1889 O.2       22 UNK        -0.5000 
    124 C124       -1.6504  -15.6844  -54.9175 C.3       23 UNK        -0.0398 
    125 S125       -3.0743  -14.8216  -54.1662 S.3       23 UNK        -0.2404 
    126 C126       -2.2722  -13.8580  -52.8403 C.3       23 UNK        -0.0205 
    127 H127        4.7353  -18.3096  -48.4482 H         1 UNK         0.0600 
    128 H128        4.8114  -19.1552  -46.8998 H         1 UNK         0.0600 
    129 H129        6.1779  -18.1723  -47.4367 H         1 UNK         0.0600 
    130 H130        3.5125  -16.4473  -48.3725 H         1 UNK         0.3000 
    131 H131        2.4519  -15.4066  -45.9803 H         1 UNK         0.0600 
    132 H132        1.1111  -15.3319  -47.9511 H         1 UNK         0.0800 
    133 H133        1.3636  -13.6975  -47.4391 H         1 UNK         0.0800 
    134 H134        2.3117  -16.4321  -50.1272 H         1 UNK         0.0800 
    135 H135        2.4134  -15.4046  -51.5301 H         1 UNK         0.0800 
    136 H136        0.3878  -13.9810  -52.1981 H         1 UNK         0.1150 
    137 H137       -3.4056  -15.7383  -51.2360 H         1 UNK         0.1150 
    138 H138        0.1542  -17.1524  -49.3226 H         1 UNK         0.1150 
    139 H139       -2.1093  -17.7599  -48.4644 H         1 UNK         0.0800 
    140 H140       -3.5528  -17.2764  -49.3339 H         1 UNK         0.0800 
    141 H141       -3.9542  -20.8987  -49.7913 H         1 UNK         0.0800 
    142 H142       -3.8595  -19.7534  -48.4781 H         1 UNK         0.0800 
    143 H143       -1.5819  -21.6379  -49.2959 H         1 UNK         0.0600 
    144 H144       -1.6563  -19.5831  -47.2855 H         1 UNK         0.3000 
    145 H145        1.1556  -20.7720  -45.4323 H         1 UNK         0.0600 
    146 H146        1.8678  -18.4451  -45.9802 H         1 UNK         0.0600 
    147 H147        2.0830  -19.5154  -47.3558 H         1 UNK         0.0600 
    148 H148        0.7300  -18.3948  -47.3228 H         1 UNK         0.0600 
    149 H149       -0.6385  -18.5119  -45.2224 H         1 UNK         0.3000 
    150 H150       -2.9688  -20.0840  -43.0235 H         1 UNK         0.0600 
    151 H151       -1.0252  -19.6145  -41.4895 H         1 UNK         0.0600 
    152 H152       -2.2754  -18.3855  -41.3884 H         1 UNK         0.0600 
    153 H153       -0.7919  -18.0607  -42.2830 H         1 UNK         0.0600 
    154 H154       -2.6683  -17.3617  -43.6946 H         1 UNK         0.3000 
    155 H155       -4.0328  -17.2841  -46.9185 H         1 UNK         0.0600 
    156 H156       -6.1138  -17.5828  -45.5600 H         1 UNK         0.0600 
    157 H157       -5.8100  -15.8894  -45.9142 H         1 UNK         0.0600 
    158 H158       -5.4539  -16.5318  -44.3111 H         1 UNK         0.0600 
    159 H159       -3.5369  -15.1574  -45.1430 H         1 UNK         0.3000 
    160 H160       -0.0594  -14.7171  -45.8035 H         1 UNK         0.0600 
    161 H161       -2.6674  -13.1776  -46.2626 H         1 UNK         0.0600 
    162 H162       -1.5145  -13.6487  -47.5022 H         1 UNK         0.0600 
    163 H163       -1.0412  -12.4991  -46.2604 H         1 UNK         0.0600 
    164 H164       -0.2113  -14.3129  -43.7069 H         1 UNK         0.3000 
    165 H165       -2.3823  -12.7696  -41.5429 H         1 UNK         0.0600 
    166 H166       -2.2137  -14.6718  -39.9494 H         1 UNK         0.0600 
    167 H167       -3.4234  -15.0158  -41.1742 H         1 UNK         0.0600 
    168 H168       -1.8408  -15.7785  -41.2709 H         1 UNK         0.0600 
    169 H169        0.0702  -14.2633  -41.1658 H         1 UNK         0.3000 
    170 H170        2.2807  -11.9896  -42.5834 H         1 UNK         0.0600 
    171 H171        3.3216  -11.6314  -40.3676 H         1 UNK         0.0600 
    172 H172        1.8626  -10.6638  -40.4986 H         1 UNK         0.0600 
    173 H173        1.8439  -12.1483  -39.5538 H         1 UNK         0.0600 
    174 H174        3.0188  -13.9925  -40.8531 H         1 UNK         0.3000 
    175 H175        3.1894  -16.2411  -41.2529 H         1 UNK         0.0600 
    176 H176        2.3963  -17.1784  -44.0635 H         1 UNK         0.0600 
    177 H177        3.0613  -18.1919  -42.7868 H         1 UNK         0.0600 
    178 H178        1.4760  -17.4603  -42.5924 H         1 UNK         0.0600 
    179 H179        4.6026  -16.2306  -43.8235 H         1 UNK         0.3000 
    180 H180        7.4063  -14.3679  -42.5530 H         1 UNK         0.0600 
    181 H181        6.9461  -17.1857  -43.6704 H         1 UNK         0.0600 
    182 H182        7.7408  -16.7992  -42.1483 H         1 UNK         0.0600 
    183 H183        8.4735  -16.3072  -43.6676 H         1 UNK         0.0600 
    184 H184        6.0703  -15.2968  -45.0600 H         1 UNK         0.3000 
    185 H185        5.8383  -12.0215  -46.3430 H         1 UNK         0.0600 
    186 H186        7.1719  -12.8666  -48.2623 H         1 UNK         0.0600 
    187 H187        8.2261  -12.4663  -46.9157 H         1 UNK         0.0600 
    188 H188        7.8485  -14.1502  -47.2587 H         1 UNK         0.0600 
    189 H189        5.4558  -14.6804  -47.4280 H         1 UNK         0.3000 
    190 H190       -3.3077  -21.2899  -46.1851 H         1 UNK         0.3000 
    191 H191       -4.8136  -23.6801  -46.3094 H         1 UNK         0.0600 
    192 H192       -5.2360  -21.8396  -44.6878 H         1 UNK         0.0600 
    193 H193       -5.0343  -23.3780  -43.8616 H         1 UNK         0.0600 
    194 H194       -3.7244  -22.2057  -43.8583 H         1 UNK         0.0600 
    195 H195       -1.5217  -23.0739  -44.9809 H         1 UNK         0.3000 
    196 H196       -1.0294  -25.7278  -44.0883 H         1 UNK         0.0600 
    197 H197        1.3518  -24.9505  -43.9986 H         1 UNK         0.0600 
    198 H198        0.2563  -23.7868  -43.2693 H         1 UNK         0.0600 
    199 H199        0.9109  -23.4909  -44.8784 H         1 UNK         0.0600 
    200 H200       -0.2521  -24.0906  -47.1917 H         1 UNK         0.3000 
    201 H201        1.0634  -26.3690  -48.3685 H         1 UNK         0.0600 
    202 H202        1.5415  -24.0360  -49.0581 H         1 UNK         0.0600 
    203 H203       -0.1197  -23.8265  -49.6059 H         1 UNK         0.0600 
    204 H204        0.9487  -24.9539  -50.4344 H         1 UNK         0.0600 
    205 H205       -2.2623  -25.4292  -48.0831 H         1 UNK         0.3000 
    206 H206       -4.2230  -26.1022  -48.8015 H         1 UNK         0.0600 
    207 H207       -3.5511  -28.4232  -48.1530 H         1 UNK         0.0600 
    208 H208       -4.6551  -28.4120  -49.5192 H         1 UNK         0.0600 
    209 H209       -2.9428  -28.7049  -49.7841 H         1 UNK         0.0600 
    210 H210       -2.7994  -24.3499  -50.2747 H         1 UNK         0.3000 
    211 H211       -2.1687  -24.9148  -52.9341 H         1 UNK         0.0600 
    212 H212       -1.9668  -22.4512  -53.1354 H         1 UNK         0.0600 
    213 H213       -1.2588  -23.0147  -51.6342 H         1 UNK         0.0600 
    214 H214       -2.8365  -22.2277  -51.6234 H         1 UNK         0.0600 
    215 H215       -3.7901  -25.9612  -54.0466 H         1 UNK         0.3000 
    216 H216       -5.5234  -26.3275  -55.3560 H         1 UNK         0.0600 
    217 H217       -6.5855  -24.5545  -56.6282 H         1 UNK         0.0600 
    218 H218       -6.1242  -23.3327  -55.4564 H         1 UNK         0.0600 
    219 H219       -4.8938  -24.1144  -56.4534 H         1 UNK         0.0600 
    220 H220       -5.7628  -26.2281  -52.4497 H         1 UNK         0.3000 
    221 H221       -7.1621  -26.4712  -50.7562 H         1 UNK         0.0600 
    222 H222       -9.1267  -27.3475  -52.9219 H         1 UNK         0.0600 
    223 H223       -7.9180  -28.3557  -52.1303 H         1 UNK         0.0600 
    224 H224       -9.2616  -27.7057  -51.2051 H         1 UNK         0.0600 
    225 H225       -8.6793  -23.1069  -50.6559 H         1 UNK         0.3000 
    226 H226       -5.9766  -24.0905  -50.9334 H         1 UNK         0.0600 
    227 H227       -6.6531  -25.4361  -48.9188 H         1 UNK         0.0600 
    228 H228       -5.5952  -24.1265  -48.4499 H         1 UNK         0.0600 
    229 H229       -7.3232  -23.9971  -48.1706 H         1 UNK         0.0600 
    230 H230       -6.2457  -22.0374  -52.1919 H         1 UNK         0.3000 
    231 H231       -5.8752  -19.6154  -50.5752 H         1 UNK         0.0600 
    232 H232       -8.3788  -19.9437  -52.3114 H         1 UNK         0.0600 
    233 H233       -7.8761  -18.4519  -51.5247 H         1 UNK         0.0600 
    234 H234       -8.3525  -19.8284  -50.5525 H         1 UNK         0.0600 
    235 H235       -4.9382  -21.3148  -53.3002 H         1 UNK         0.3000 
    236 H236       -4.8263  -19.1304  -55.2041 H         1 UNK         0.0600 
    237 H237       -4.9496  -21.4202  -56.0166 H         1 UNK         0.0600 
    238 H238       -3.4074  -20.7407  -56.5006 H         1 UNK         0.0600 
    239 H239       -3.4745  -21.8715  -55.1565 H         1 UNK         0.0600 
    240 H240       -3.4316  -17.4778  -55.1841 H         1 UNK         0.3000 
    241 H241       -1.3549  -17.1345  -53.3460 H         1 UNK         0.0600 
    242 H242        1.7638  -18.1177  -54.7120 H         1 UNK         0.3800 
    243 H243        0.9225  -17.3799  -53.3778 H         1 UNK         0.3800 
    244 H244       -1.7808  -15.6619  -56.0009 H         1 UNK         0.0800 
    245 H245       -0.7457  -15.1084  -54.7143 H         1 UNK         0.0800 
    246 H246       -3.0276  -13.2555  -52.3342 H         1 UNK         0.0800 
    247 H247       -1.5648  -13.1556  -53.2839 H         1 UNK         0.0800 
@<TRIPOS>BOND
     1    1    2 1    
     2    1  127 1    
     3    1  128 1    
     4    1  129 1    
     5    2    3 2    
     6    2    4 am   BACKBONE|DICT|INTERRES
     7    4    5 1    
     8    4  130 1    
     9    5    6 1    
    10    5   65 1    
    11    5  131 1    
    12    6    7 1    
    13    6  132 1    
    14    6  133 1    
    15    7    8 1    
    16    8    9 1    
    17    8  134 1    
    18    8  135 1    
    19    9   10 ar   
    20    9   14 ar   
    21   10   11 ar   
    22   10  136 1    
    23   11   12 ar   
    24   11  126 1    
    25   12   13 ar   
    26   12  137 1    
    27   13   14 ar   
    28   13   15 1    
    29   14  138 1    
    30   15   16 1    
    31   15  139 1    
    32   15  140 1    
    33   16   17 1    
    34   17   18 1    
    35   17  141 1    
    36   17  142 1    
    37   18   19 1    
    38   18   67 1    
    39   18  143 1    
    40   19   20 am   BACKBONE|DICT|INTERRES
    41   19  144 1    
    42   20   21 2    
    43   20   22 1    
    44   22   23 1    
    45   22   24 1    
    46   22  145 1    
    47   23  146 1    
    48   23  147 1    
    49   23  148 1    
    50   24   25 am   BACKBONE|DICT|INTERRES
    51   24  149 1    
    52   25   26 2    
    53   25   27 1    
    54   27   28 1    
    55   27   29 1    
    56   27  150 1    
    57   28  151 1    
    58   28  152 1    
    59   28  153 1    
    60   29   30 am   BACKBONE|DICT|INTERRES
    61   29  154 1    
    62   30   31 2    
    63   30   32 1    
    64   32   33 1    
    65   32   34 1    
    66   32  155 1    
    67   33  156 1    
    68   33  157 1    
    69   33  158 1    
    70   34   35 am   BACKBONE|DICT|INTERRES
    71   34  159 1    
    72   35   36 2    
    73   35   37 1    
    74   37   38 1    
    75   37   39 1    
    76   37  160 1    
    77   38  161 1    
    78   38  162 1    
    79   38  163 1    
    80   39   40 am   BACKBONE|DICT|INTERRES
    81   39  164 1    
    82   40   41 2    
    83   40   42 1    
    84   42   43 1    
    85   42   44 1    
    86   42  165 1    
    87   43  166 1    
    88   43  167 1    
    89   43  168 1    
    90   44   45 am   BACKBONE|DICT|INTERRES
    91   44  169 1    
    92   45   46 2    
    93   45   47 1    
    94   47   48 1    
    95   47   49 1    
    96   47  170 1    
    97   48  171 1    
    98   48  172 1    
    99   48  173 1    
   100   49   50 am   BACKBONE|DICT|INTERRES
   101   49  174 1    
   102   50   51 2    
   103   50   52 1    
   104   52   53 1    
   105   52   54 1    
   106   52  175 1    
   107   53  176 1    
   108   53  177 1    
   109   53  178 1    
   110   54   55 am   BACKBONE|DICT|INTERRES
   111   54  179 1    
   112   55   56 2    
   113   55   57 1    
   114   57   58 1    
   115   57   59 1    
   116   57  180 1    
   117   58  181 1    
   118   58  182 1    
   119   58  183 1    
   120   59   60 am   BACKBONE|DICT|INTERRES
   121   59  184 1    
   122   60   61 2    
   123   60   62 1    
   124   62   63 1    
   125   62   64 1    
   126   62  185 1    
   127   63  186 1    
   128   63  187 1    
   129   63  188 1    
   130   64   65 am   BACKBONE|DICT|INTERRES
   131   64  189 1    
   132   65   66 2    
   133   67   68 2    
   134   67   69 am   BACKBONE|DICT|INTERRES
   135   69   70 1    
   136   69  190 1    
   137   70   71 1    
   138   70   72 1    
   139   70  191 1    
   140   71  192 1    
   141   71  193 1    
   142   71  194 1    
   143   72   73 2    
   144   72   74 am   BACKBONE|DICT|INTERRES
   145   74   75 1    
   146   74  195 1    
   147   75   76 1    
   148   75   77 1    
   149   75  196 1    
   150   76  197 1    
   151   76  198 1    
   152   76  199 1    
   153   77   78 2    
   154   77   79 am   BACKBONE|DICT|INTERRES
   155   79   80 1    
   156   79  200 1    
   157   80   81 1    
   158   80   82 1    
   159   80  201 1    
   160   81  202 1    
   161   81  203 1    
   162   81  204 1    
   163   82   83 2    
   164   82   84 am   BACKBONE|DICT|INTERRES
   165   84   85 1    
   166   84  205 1    
   167   85   86 1    
   168   85   87 1    
   169   85  206 1    
   170   86  207 1    
   171   86  208 1    
   172   86  209 1    
   173   87   88 2    
   174   87   89 am   BACKBONE|DICT|INTERRES
   175   89   90 1    
   176   89  210 1    
   177   90   91 1    
   178   90   92 1    
   179   90  211 1    
   180   91  212 1    
   181   91  213 1    
   182   91  214 1    
   183   92   93 2    
   184   92   94 am   BACKBONE|DICT|INTERRES
   185   94   95 1    
   186   94  215 1    
   187   95   96 1    
   188   95   97 1    
   189   95  216 1    
   190   96  217 1    
   191   96  218 1    
   192   96  219 1    
   193   97   98 2    
   194   97   99 am   BACKBONE|DICT|INTERRES
   195   99  100 1    
   196   99  220 1    
   197  100  101 1    
   198  100  102 1    
   199  100  221 1    
   200  101  222 1    
   201  101  223 1    
   202  101  224 1    
   203  102  103 2    
   204  102  104 am   BACKBONE|DICT|INTERRES
   205  104  105 1    
   206  104  225 1    
   207  105  106 1    
   208  105  107 1    
   209  105  226 1    
   210  106  227 1    
   211  106  228 1    
   212  106  229 1    
   213  107  108 2    
   214  107  109 am   BACKBONE|DICT|INTERRES
   215  109  110 1    
   216  109  230 1    
   217  110  111 1    
   218  110  112 1    
   219  110  231 1    
   220  111  232 1    
   221  111  233 1    
   222  111  234 1    
   223  112  113 2    
   224  112  114 am   BACKBONE|DICT|INTERRES
   225  114  115 1    
   226  114  235 1    
   227  115  116 1    
   228  115  117 1    
   229  115  236 1    
   230  116  237 1    
   231  116  238 1    
   232  116  239 1    
   233  117  118 2    
   234  117  119 am   BACKBONE|DICT|INTERRES
   235  119  120 1    
   236  119  240 1    
   237  120  121 1    
   238  120  124 1    
   239  120  241 1    
   240  121  122 am   BACKBONE|DICT|INTERRES
   241  121  123 2    
   242  122  242 1    
   243  122  243 1    
   244  124  125 1    
   245  124  244 1    
   246  124  245 1    
   247  125  126 1    
   248  126  246 1    
   249  126  247 1    
@<TRIPOS>SUBSTRUCTURE
     1 UNK         1 GROUP             0       ****    0 ROOT    
