@<TRIPOS>MOLECULE
3R540
247   249    1
SMALL
USER_CHARGES


@<TRIPOS>ATOM
      1 CA          0.2389  -11.1930  -46.1776 C.3       0 UNK        -0.1800 
      2 C           1.5473  -11.6932  -46.7724 C.2       0 UNK         0.5000 
      3 O           2.2400  -10.9394  -47.4570 O.2       0 UNK        -0.5000 
      4 N           1.8987  -12.9563  -46.5084 N.am      1 UNK        -0.5000 
      5 CA          3.0991  -13.6274  -47.0212 C.3       1 UNK         0.1400 
      6 C6          2.8807  -15.1500  -47.1929 C.3       23 UNK        -0.0398 
      7 S7          1.6016  -15.5360  -48.4340 S.3       23 UNK        -0.2404 
      8 C8          2.5951  -16.1570  -49.8244 C.3       23 UNK        -0.0205 
      9 C9          1.8026  -17.1637  -50.6402 C.ar      23 UNK        -0.0193 
     10 C10         1.1613  -16.7844  -51.8212 C.ar      23 UNK        -0.1150 
     11 C11         0.4436  -17.7235  -52.5672 C.ar      23 UNK        -0.0193 
     12 C12         0.3667  -19.0462  -52.1194 C.ar      23 UNK        -0.1150 
     13 C13         1.0069  -19.4450  -50.9408 C.ar      23 UNK        -0.0193 
     14 C14         1.7214  -18.4887  -50.2070 C.ar      23 UNK        -0.1150 
     15 C15         0.8948  -20.9103  -50.5098 C.3       23 UNK        -0.0205 
     16 S16         2.0871  -21.4600  -49.2362 S.3       23 UNK        -0.2404 
     17 C17         1.2823  -20.8653  -47.7070 C.3       23 UNK        -0.0398 
     18 CA          0.6838  -22.0186  -46.8688 C.3       11 UNK         0.1400 
     19 N           0.3951  -21.6123  -45.4924 N.am      11 UNK        -0.5000 
     20 C           0.0451  -22.4572  -44.5114 C.2       10 UNK         0.5000 
     21 O          -0.0174  -23.6794  -44.6495 O.2       10 UNK        -0.5000 
     22 CA         -0.3525  -21.8277  -43.1645 C.3       10 UNK         0.1400 
     23 CB          0.8927  -21.4434  -42.3521 C.3       10 UNK        -0.1800 
     24 N          -1.2215  -20.6605  -43.3254 N.am      10 UNK        -0.5000 
     25 C          -2.4447  -20.6986  -43.8741 C.2       9 UNK         0.5000 
     26 O          -2.9888  -21.7330  -44.2579 O.2       9 UNK        -0.5000 
     27 CA         -3.1651  -19.3543  -44.0733 C.3       9 UNK         0.1400 
     28 CB         -3.8130  -18.8811  -42.7638 C.3       9 UNK        -0.1800 
     29 N          -2.2808  -18.3107  -44.5891 N.am      9 UNK        -0.5000 
     30 C          -1.6562  -18.3457  -45.7746 C.2       8 UNK         0.5000 
     31 O          -1.7781  -19.2599  -46.5891 O.2       8 UNK        -0.5000 
     32 CA         -0.6845  -17.1909  -46.0714 C.3       8 UNK         0.1400 
     33 CB         -1.4428  -15.9173  -46.4793 C.3       8 UNK        -0.1800 
     34 N           0.1887  -16.9103  -44.9305 N.am      8 UNK        -0.5000 
     35 C           1.1118  -17.7639  -44.4646 C.2       7 UNK         0.5000 
     36 O           1.3574  -18.8547  -44.9802 O.2       7 UNK        -0.5000 
     37 CA          1.8522  -17.3511  -43.1809 C.3       7 UNK         0.1400 
     38 CB          3.0694  -16.4768  -43.5022 C.3       7 UNK        -0.1800 
     39 N           0.9885  -16.6487  -42.2328 N.am      7 UNK        -0.5000 
     40 C          -0.0255  -17.2262  -41.5729 C.2       6 UNK         0.5000 
     41 O          -0.3123  -18.4192  -41.6684 O.2       6 UNK        -0.5000 
     42 CA         -0.9023  -16.3015  -40.7097 C.3       6 UNK         0.1400 
     43 CB         -0.2273  -16.0145  -39.3602 C.3       6 UNK        -0.1800 
     44 N          -1.2056  -15.0360  -41.3786 N.am      6 UNK        -0.5000 
     45 C          -1.8738  -14.9200  -42.5356 C.2       5 UNK         0.5000 
     46 O          -2.3686  -15.8753  -43.1302 O.2       5 UNK        -0.5000 
     47 CA         -1.9835  -13.5140  -43.1554 C.3       5 UNK         0.1400 
     48 CB         -3.3848  -12.9309  -42.9234 C.3       5 UNK        -0.1800 
     49 N          -0.9841  -12.5774  -42.6400 N.am      5 UNK        -0.5000 
     50 C           0.3315  -12.6442  -42.8820 C.2       4 UNK         0.5000 
     51 O           0.8371  -13.4736  -43.6448 O.2       4 UNK        -0.5000 
     52 CA          1.1970  -11.5863  -42.1614 C.3       4 UNK         0.1400 
     53 CB          0.7356  -11.3304  -40.7087 C.3       4 UNK        -0.1800 
     54 N           2.6330  -11.8720  -42.1783 N.am      4 UNK        -0.5000 
     55 C           3.2744  -12.9347  -41.6718 C.2       3 UNK         0.5000 
     56 O           2.7112  -13.8956  -41.1420 O.2       3 UNK        -0.5000 
     57 CA          4.8139  -12.8858  -41.7823 C.3       3 UNK         0.1400 
     58 CB          5.5123  -14.1613  -41.2802 C.3       3 UNK        -0.1800 
     59 N           5.2374  -12.6213  -43.1571 N.am      3 UNK        -0.5000 
     60 C           5.3594  -11.4165  -43.7244 C.2       2 UNK         0.5000 
     61 O           5.1564  -10.3612  -43.1234 O.2       2 UNK        -0.5000 
     62 CA          5.6976  -11.3836  -45.2260 C.3       2 UNK         0.1400 
     63 CB          7.1013  -11.9511  -45.5155 C.3       2 UNK        -0.1800 
     64 N           4.6652  -12.0180  -46.0546 N.am      2 UNK        -0.5000 
     65 C           4.3034  -13.3077  -46.1121 C.2       1 UNK         0.5000 
     66 O           4.8498  -14.2044  -45.4663 O.2       1 UNK        -0.5000 
     67 C          -0.5524  -22.6434  -47.5460 C.2       11 UNK         0.5000 
     68 O          -0.4368  -23.7207  -48.1275 O.2       11 UNK        -0.5000 
     69 N          -1.7171  -21.9903  -47.4234 N.am      12 UNK        -0.5000 
     70 CA         -2.9936  -22.4773  -47.9479 C.3       12 UNK         0.1400 
     71 CB         -4.0825  -21.4143  -47.7464 C.3       12 UNK        -0.1800 
     72 C          -3.4196  -23.8233  -47.3356 C.2       12 UNK         0.5000 
     73 O          -3.8800  -24.6961  -48.0695 O.2       12 UNK        -0.5000 
     74 N          -3.2214  -23.9911  -46.0214 N.am      13 UNK        -0.5000 
     75 CA         -3.4623  -25.2437  -45.3050 C.3       13 UNK         0.1400 
     76 CB         -3.3161  -25.0147  -43.7932 C.3       13 UNK        -0.1800 
     77 C          -2.5437  -26.3842  -45.7814 C.2       13 UNK         0.5000 
     78 O          -3.0270  -27.4941  -46.0066 O.2       13 UNK        -0.5000 
     79 N          -1.2494  -26.0841  -45.9611 N.am      14 UNK        -0.5000 
     80 CA         -0.2427  -27.0204  -46.4659 C.3       14 UNK         0.1400 
     81 CB          1.1567  -26.4142  -46.2800 C.3       14 UNK        -0.1800 
     82 C          -0.4736  -27.4198  -47.9363 C.2       14 UNK         0.5000 
     83 O          -0.3120  -28.5908  -48.2817 O.2       14 UNK        -0.5000 
     84 N          -0.8605  -26.4454  -48.7694 N.am      15 UNK        -0.5000 
     85 CA         -1.1459  -26.6190  -50.1949 C.3       15 UNK         0.1400 
     86 CB         -1.0911  -25.2423  -50.8778 C.3       15 UNK        -0.1800 
     87 C          -2.5005  -27.2957  -50.4836 C.2       15 UNK         0.5000 
     88 O          -2.7229  -27.7119  -51.6208 O.2       15 UNK        -0.5000 
     89 N          -3.3817  -27.3652  -49.4732 N.am      16 UNK        -0.5000 
     90 CA         -4.7881  -27.7784  -49.5473 C.3       16 UNK         0.1400 
     91 CB         -4.9203  -29.2671  -49.9305 C.3       16 UNK        -0.1800 
     92 C          -5.5909  -26.8305  -50.4622 C.2       16 UNK         0.5000 
     93 O          -6.2449  -27.2670  -51.4118 O.2       16 UNK        -0.5000 
     94 N          -5.4624  -25.5291  -50.1721 N.am      17 UNK        -0.5000 
     95 CA         -5.9515  -24.3497  -50.8899 C.3       17 UNK         0.1400 
     96 CB         -7.4829  -24.3579  -51.0519 C.3       17 UNK        -0.1800 
     97 C          -5.2372  -24.1129  -52.2313 C.2       17 UNK         0.5000 
     98 O          -4.7409  -23.0083  -52.4560 O.2       17 UNK        -0.5000 
     99 N          -5.1881  -25.1437  -53.0863 N.am      18 UNK        -0.5000 
    100 CA        -4.6216  -25.1576  -54.4374 C.3       18 UNK         0.1400 
    101 CB        -3.0800  -25.0771  -54.3805 C.3       18 UNK        -0.1800 
    102 C         -5.2761  -24.0818  -55.3291 C.2       18 UNK         0.5000 
    103 O         -6.4231  -24.2602  -55.7416 O.2       18 UNK        -0.5000 
    104 N         -4.5579  -22.9798  -55.5841 N.am      19 UNK        -0.5000 
    105 CA        -5.0486  -21.8068  -56.3104 C.3       19 UNK         0.1400 
    106 CB        -3.8482  -20.9350  -56.7093 C.3       19 UNK        -0.1800 
    107 C         -6.0735  -20.9728  -55.5138 C.2       19 UNK         0.5000 
    108 O         -6.8214  -20.2076  -56.1239 O.2       19 UNK        -0.5000 
    109 N         -6.0772  -21.1171  -54.1787 N.am      20 UNK        -0.5000 
    110 CA        -6.9498  -20.5020  -53.1691 C.3       20 UNK         0.1400 
    111 CB        -8.4221  -20.8984  -53.3883 C.3       20 UNK        -0.1800 
    112 C         -6.7937  -18.9756  -53.0259 C.2       20 UNK         0.5000 
    113 O         -6.5589  -18.4911  -51.9188 O.2       20 UNK        -0.5000 
    114 N         -6.9184  -18.2540  -54.1428 N.am      21 UNK        -0.5000 
    115 CA        -6.8084  -16.7985  -54.2505 C.3       21 UNK         0.1400 
    116 CB        -8.0575  -16.2754  -54.9809 C.3       21 UNK        -0.1800 
    117 C         -5.5180  -16.3689  -54.9780 C.2       21 UNK         0.5000 
    118 O         -5.3771  -15.1893  -55.3035 O.2       21 UNK        -0.5000 
    119 N         -4.6135  -17.3248  -55.2383 N.am      22 UNK        -0.5000 
    120 CA        -3.3448  -17.1575  -55.9748 C.3       22 UNK         0.1400 
    121 C         -3.5164  -16.8715  -57.5000 C.2       22 UNK         0.5000 
    122 N         -4.6797  -17.1134  -58.0925 N.am      22 UNK        -0.7600 
    123 O         -2.5742  -16.4577  -58.1702 O.2       22 UNK        -0.5000 
    124 C124       -2.3541  -16.1723  -55.2890 C.3       23 UNK        -0.0398 
    125 S125       -1.9067  -16.6793  -53.5920 S.3       23 UNK        -0.2404 
    126 C126       -0.2244  -17.3127  -53.8695 C.3       23 UNK        -0.0205 
    127 H127       -0.3744  -12.0148  -45.8076 H         1 UNK         0.0600 
    128 H128       -0.3376  -10.6593  -46.9330 H         1 UNK         0.0600 
    129 H129        0.4373  -10.5096  -45.3523 H         1 UNK         0.0600 
    130 H130        1.3435  -13.4913  -45.8524 H         1 UNK         0.3000 
    131 H131        3.3392  -13.2256  -48.0081 H         1 UNK         0.0600 
    132 H132        3.8138  -15.6445  -47.4665 H         1 UNK         0.0800 
    133 H133        2.5722  -15.5988  -46.2491 H         1 UNK         0.0800 
    134 H134        2.9143  -15.3179  -50.4444 H         1 UNK         0.0800 
    135 H135        3.5050  -16.6381  -49.4635 H         1 UNK         0.0800 
    136 H136        1.2219  -15.7600  -52.1614 H         1 UNK         0.1150 
    137 H137       -0.1896  -19.7713  -52.6972 H         1 UNK         0.1150 
    138 H138        2.2238  -18.7567  -49.2902 H         1 UNK         0.1150 
    139 H139       -0.1221  -21.1049  -50.1665 H         1 UNK         0.0800 
    140 H140        1.0447  -21.5421  -51.3866 H         1 UNK         0.0800 
    141 H141        0.5299  -20.1078  -47.9341 H         1 UNK         0.0800 
    142 H142        2.0519  -20.3538  -47.1277 H         1 UNK         0.0800 
    143 H143        1.4414  -22.8027  -46.8004 H         1 UNK         0.0600 
    144 H144        0.4603  -20.6200  -45.2880 H         1 UNK         0.3000 
    145 H145       -0.9073  -22.5790  -42.5988 H         1 UNK         0.0600 
    146 H146        0.6193  -21.0717  -41.3645 H         1 UNK         0.0600 
    147 H147        1.5450  -22.3053  -42.2062 H         1 UNK         0.0600 
    148 H148        1.4767  -20.6698  -42.8508 H         1 UNK         0.0600 
    149 H149       -0.8656  -19.7750  -42.9776 H         1 UNK         0.3000 
    150 H150       -3.9579  -19.5081  -44.8078 H         1 UNK         0.0600 
    151 H151       -4.4935  -19.6366  -42.3689 H         1 UNK         0.0600 
    152 H152       -4.3915  -17.9701  -42.9180 H         1 UNK         0.0600 
    153 H153       -3.0669  -18.6758  -41.9957 H         1 UNK         0.0600 
    154 H154       -2.1571  -17.4921  -43.9975 H         1 UNK         0.3000 
    155 H155       -0.0530  -17.4953  -46.9084 H         1 UNK         0.0600 
    156 H156       -1.9746  -16.0731  -47.4185 H         1 UNK         0.0600 
    157 H157       -2.1813  -15.6222  -45.7350 H         1 UNK         0.0600 
    158 H158       -0.7641  -15.0773  -46.6261 H         1 UNK         0.0600 
    159 H159        0.0321  -16.0482  -44.4295 H         1 UNK         0.3000 
    160 H160        2.2118  -18.2646  -42.7028 H         1 UNK         0.0600 
    161 H161        2.7786  -15.4864  -43.8540 H         1 UNK         0.0600 
    162 H162        3.6985  -16.9327  -44.2678 H         1 UNK         0.0600 
    163 H163        3.6824  -16.3477  -42.6129 H         1 UNK         0.0600 
    164 H164        1.1649  -15.6606  -42.1013 H         1 UNK         0.3000 
    165 H165       -1.8462  -16.8169  -40.5206 H         1 UNK         0.0600 
    166 H166       -0.8768  -15.4266  -38.7115 H         1 UNK         0.0600 
    167 H167        0.0031  -16.9420  -38.8343 H         1 UNK         0.0600 
    168 H168        0.7078  -15.4663  -39.4852 H         1 UNK         0.0600 
    169 H169       -0.8291  -14.2000  -40.9585 H         1 UNK         0.3000 
    170 H170       -1.8301  -13.6178  -44.2314 H         1 UNK         0.0600 
    171 H171       -3.5924  -12.7906  -41.8618 H         1 UNK         0.0600 
    172 H172       -3.4980  -11.9667  -43.4193 H         1 UNK         0.0600 
    173 H173       -4.1543  -13.5926  -43.3238 H         1 UNK         0.0600 
    174 H174       -1.3270  -11.8560  -42.0220 H         1 UNK         0.3000 
    175 H175        1.0711  -10.6590  -42.7216 H         1 UNK         0.0600 
    176 H176        1.3979  -10.6249  -40.2065 H         1 UNK         0.0600 
    177 H177        0.7238  -12.2482  -40.1195 H         1 UNK         0.0600 
    178 H178       -0.2651  -10.8991  -40.6712 H         1 UNK         0.0600 
    179 H179        3.2123  -11.1584  -42.6033 H         1 UNK         0.3000 
    180 H180        5.1437  -12.0663  -41.1404 H         1 UNK         0.0600 
    181 H181        5.3245  -15.0098  -41.9350 H         1 UNK         0.0600 
    182 H182        5.1780  -14.4305  -40.2775 H         1 UNK         0.0600 
    183 H183        6.5918  -14.0180  -41.2317 H         1 UNK         0.0600 
    184 H184        5.3080  -13.4266  -43.7735 H         1 UNK         0.3000 
    185 H185        5.7085  -10.3333  -45.5220 H         1 UNK         0.0600 
    186 H186        7.8617  -11.4038  -44.9573 H         1 UNK         0.0600 
    187 H187        7.1912  -13.0016  -45.2384 H         1 UNK         0.0600 
    188 H188        7.3493  -11.8629  -46.5732 H         1 UNK         0.0600 
    189 H189        4.0949  -11.3740  -46.5934 H         1 UNK         0.3000 
    190 H190       -1.7324  -21.0859  -46.9569 H         1 UNK         0.3000 
    191 H191       -2.8688  -22.6311  -49.0218 H         1 UNK         0.0600 
    192 H192       -3.8203  -20.4824  -48.2477 H         1 UNK         0.0600 
    193 H193       -5.0359  -21.7483  -48.1577 H         1 UNK         0.0600 
    194 H194       -4.2386  -21.1932  -46.6904 H         1 UNK         0.0600 
    195 H195       -2.8960  -23.2028  -45.4677 H         1 UNK         0.3000 
    196 H196       -4.4932  -25.5452  -45.5018 H         1 UNK         0.0600 
    197 H197       -3.5047  -25.9344  -43.2382 H         1 UNK         0.0600 
    198 H198       -4.0274  -24.2688  -43.4382 H         1 UNK         0.0600 
    199 H199       -2.3151  -24.6714  -43.5312 H         1 UNK         0.0600 
    200 H200       -0.9248  -25.1517  -45.7240 H         1 UNK         0.3000 
    201 H201       -0.2994  -27.9294  -45.8635 H         1 UNK         0.0600 
    202 H202        1.3574  -26.2026  -45.2296 H         1 UNK         0.0600 
    203 H203        1.2695  -25.4822  -46.8348 H         1 UNK         0.0600 
    204 H204        1.9299  -27.1002  -46.6279 H         1 UNK         0.0600 
    205 H205       -0.8972  -25.4907  -48.4174 H         1 UNK         0.3000 
    206 H206       -0.3654  -27.2470  -50.6293 H         1 UNK         0.0600 
    207 H207       -0.1266  -24.7594  -50.7188 H         1 UNK         0.0600 
    208 H208       -1.2326  -25.3317  -51.9548 H         1 UNK         0.0600 
    209 H209       -1.8667  -24.5756  -50.4982 H         1 UNK         0.0600 
    210 H210       -3.0968  -26.9619  -48.5903 H         1 UNK         0.3000 
    211 H211       -5.1959  -27.6601  -48.5422 H         1 UNK         0.0600 
    212 H212       -4.5817  -29.4617  -50.9483 H         1 UNK         0.0600 
    213 H213       -5.9595  -29.5915  -49.8672 H         1 UNK         0.0600 
    214 H214       -4.3406  -29.8988  -49.2575 H         1 UNK         0.0600 
    215 H215       -4.8613  -25.3003  -49.3794 H         1 UNK         0.3000 
    216 H216       -5.7005  -23.5017  -50.2504 H         1 UNK         0.0600 
    217 H217       -7.8309  -23.4150  -51.4745 H         1 UNK         0.0600 
    218 H218       -7.9795  -24.4853  -50.0900 H         1 UNK         0.0600 
    219 H219       -7.8236  -25.1543  -51.7138 H         1 UNK         0.0600 
    220 H220       -5.6273  -26.0074  -52.7806 H         1 UNK         0.3000 
    221 H221       -4.8840  -26.1216  -54.8756 H         1 UNK         0.0600 
    222 H222       -2.7252  -24.1825  -53.8681 H         1 UNK         0.0600 
    223 H223       -2.6719  -25.9396  -53.8540 H         1 UNK         0.0600 
    224 H224       -2.6482  -25.0826  -55.3822 H         1 UNK         0.0600 
    225 H225       -3.6337  -22.9107  -55.1833 H         1 UNK         0.3000 
    226 H226       -5.5426  -22.1481  -57.2226 H         1 UNK         0.0600 
    227 H227       -3.1507  -21.4889  -57.3380 H         1 UNK         0.0600 
    228 H228       -4.1704  -20.0620  -57.2783 H         1 UNK         0.0600 
    229 H229       -3.3018  -20.5791  -55.8352 H         1 UNK         0.0600 
    230 H230       -5.4029  -21.7676  -53.7838 H         1 UNK         0.3000 
    231 H231       -6.6397  -20.9350  -52.2167 H         1 UNK         0.0600 
    232 H232       -8.8239  -20.4883  -54.3152 H         1 UNK         0.0600 
    233 H233       -9.0480  -20.5336  -52.5731 H         1 UNK         0.0600 
    234 H234       -8.5360  -21.9817  -53.4271 H         1 UNK         0.0600 
    235 H235       -7.0764  -18.7673  -55.0079 H         1 UNK         0.3000 
    236 H236       -6.7793  -16.3447  -53.2580 H         1 UNK         0.0600 
    237 H237       -8.0536  -15.1863  -55.0415 H         1 UNK         0.0600 
    238 H238       -8.1191  -16.6624  -55.9988 H         1 UNK         0.0600 
    239 H239       -8.9687  -16.5649  -54.4572 H         1 UNK         0.0600 
    240 H240       -4.8176  -18.2585  -54.9166 H         1 UNK         0.3000 
    241 H241       -2.8702  -18.1382  -55.9482 H         1 UNK         0.0600 
    242 H242       -5.4634  -17.4643  -57.5664 H         1 UNK         0.3800 
    243 H243       -4.7780  -16.9358  -59.0799 H         1 UNK         0.3800 
    244 H244       -1.4380  -16.0802  -55.8742 H         1 UNK         0.0800 
    245 H245       -2.7734  -15.1668  -55.2494 H         1 UNK         0.0800 
    246 H246       -0.2656  -18.1602  -54.5557 H         1 UNK         0.0800 
    247 H247        0.3776  -16.5468  -54.3613 H         1 UNK         0.0800 
@<TRIPOS>BOND
     1    1    2 1    
     2    1  127 1    
     3    1  128 1    
     4    1  129 1    
     5    2    3 2    
     6    2    4 am   BACKBONE|DICT|INTERRES
     7    4    5 1    
     8    4  130 1    
     9    5    6 1    
    10    5   65 1    
    11    5  131 1    
    12    6    7 1    
    13    6  132 1    
    14    6  133 1    
    15    7    8 1    
    16    8    9 1    
    17    8  134 1    
    18    8  135 1    
    19    9   10 ar   
    20    9   14 ar   
    21   10   11 ar   
    22   10  136 1    
    23   11   12 ar   
    24   11  126 1    
    25   12   13 ar   
    26   12  137 1    
    27   13   14 ar   
    28   13   15 1    
    29   14  138 1    
    30   15   16 1    
    31   15  139 1    
    32   15  140 1    
    33   16   17 1    
    34   17   18 1    
    35   17  141 1    
    36   17  142 1    
    37   18   19 1    
    38   18   67 1    
    39   18  143 1    
    40   19   20 am   BACKBONE|DICT|INTERRES
    41   19  144 1    
    42   20   21 2    
    43   20   22 1    
    44   22   23 1    
    45   22   24 1    
    46   22  145 1    
    47   23  146 1    
    48   23  147 1    
    49   23  148 1    
    50   24   25 am   BACKBONE|DICT|INTERRES
    51   24  149 1    
    52   25   26 2    
    53   25   27 1    
    54   27   28 1    
    55   27   29 1    
    56   27  150 1    
    57   28  151 1    
    58   28  152 1    
    59   28  153 1    
    60   29   30 am   BACKBONE|DICT|INTERRES
    61   29  154 1    
    62   30   31 2    
    63   30   32 1    
    64   32   33 1    
    65   32   34 1    
    66   32  155 1    
    67   33  156 1    
    68   33  157 1    
    69   33  158 1    
    70   34   35 am   BACKBONE|DICT|INTERRES
    71   34  159 1    
    72   35   36 2    
    73   35   37 1    
    74   37   38 1    
    75   37   39 1    
    76   37  160 1    
    77   38  161 1    
    78   38  162 1    
    79   38  163 1    
    80   39   40 am   BACKBONE|DICT|INTERRES
    81   39  164 1    
    82   40   41 2    
    83   40   42 1    
    84   42   43 1    
    85   42   44 1    
    86   42  165 1    
    87   43  166 1    
    88   43  167 1    
    89   43  168 1    
    90   44   45 am   BACKBONE|DICT|INTERRES
    91   44  169 1    
    92   45   46 2    
    93   45   47 1    
    94   47   48 1    
    95   47   49 1    
    96   47  170 1    
    97   48  171 1    
    98   48  172 1    
    99   48  173 1    
   100   49   50 am   BACKBONE|DICT|INTERRES
   101   49  174 1    
   102   50   51 2    
   103   50   52 1    
   104   52   53 1    
   105   52   54 1    
   106   52  175 1    
   107   53  176 1    
   108   53  177 1    
   109   53  178 1    
   110   54   55 am   BACKBONE|DICT|INTERRES
   111   54  179 1    
   112   55   56 2    
   113   55   57 1    
   114   57   58 1    
   115   57   59 1    
   116   57  180 1    
   117   58  181 1    
   118   58  182 1    
   119   58  183 1    
   120   59   60 am   BACKBONE|DICT|INTERRES
   121   59  184 1    
   122   60   61 2    
   123   60   62 1    
   124   62   63 1    
   125   62   64 1    
   126   62  185 1    
   127   63  186 1    
   128   63  187 1    
   129   63  188 1    
   130   64   65 am   BACKBONE|DICT|INTERRES
   131   64  189 1    
   132   65   66 2    
   133   67   68 2    
   134   67   69 am   BACKBONE|DICT|INTERRES
   135   69   70 1    
   136   69  190 1    
   137   70   71 1    
   138   70   72 1    
   139   70  191 1    
   140   71  192 1    
   141   71  193 1    
   142   71  194 1    
   143   72   73 2    
   144   72   74 am   BACKBONE|DICT|INTERRES
   145   74   75 1    
   146   74  195 1    
   147   75   76 1    
   148   75   77 1    
   149   75  196 1    
   150   76  197 1    
   151   76  198 1    
   152   76  199 1    
   153   77   78 2    
   154   77   79 am   BACKBONE|DICT|INTERRES
   155   79   80 1    
   156   79  200 1    
   157   80   81 1    
   158   80   82 1    
   159   80  201 1    
   160   81  202 1    
   161   81  203 1    
   162   81  204 1    
   163   82   83 2    
   164   82   84 am   BACKBONE|DICT|INTERRES
   165   84   85 1    
   166   84  205 1    
   167   85   86 1    
   168   85   87 1    
   169   85  206 1    
   170   86  207 1    
   171   86  208 1    
   172   86  209 1    
   173   87   88 2    
   174   87   89 am   BACKBONE|DICT|INTERRES
   175   89   90 1    
   176   89  210 1    
   177   90   91 1    
   178   90   92 1    
   179   90  211 1    
   180   91  212 1    
   181   91  213 1    
   182   91  214 1    
   183   92   93 2    
   184   92   94 am   BACKBONE|DICT|INTERRES
   185   94   95 1    
   186   94  215 1    
   187   95   96 1    
   188   95   97 1    
   189   95  216 1    
   190   96  217 1    
   191   96  218 1    
   192   96  219 1    
   193   97   98 2    
   194   97   99 am   BACKBONE|DICT|INTERRES
   195   99  100 1    
   196   99  220 1    
   197  100  101 1    
   198  100  102 1    
   199  100  221 1    
   200  101  222 1    
   201  101  223 1    
   202  101  224 1    
   203  102  103 2    
   204  102  104 am   BACKBONE|DICT|INTERRES
   205  104  105 1    
   206  104  225 1    
   207  105  106 1    
   208  105  107 1    
   209  105  226 1    
   210  106  227 1    
   211  106  228 1    
   212  106  229 1    
   213  107  108 2    
   214  107  109 am   BACKBONE|DICT|INTERRES
   215  109  110 1    
   216  109  230 1    
   217  110  111 1    
   218  110  112 1    
   219  110  231 1    
   220  111  232 1    
   221  111  233 1    
   222  111  234 1    
   223  112  113 2    
   224  112  114 am   BACKBONE|DICT|INTERRES
   225  114  115 1    
   226  114  235 1    
   227  115  116 1    
   228  115  117 1    
   229  115  236 1    
   230  116  237 1    
   231  116  238 1    
   232  116  239 1    
   233  117  118 2    
   234  117  119 am   BACKBONE|DICT|INTERRES
   235  119  120 1    
   236  119  240 1    
   237  120  121 1    
   238  120  124 1    
   239  120  241 1    
   240  121  122 am   BACKBONE|DICT|INTERRES
   241  121  123 2    
   242  122  242 1    
   243  122  243 1    
   244  124  125 1    
   245  124  244 1    
   246  124  245 1    
   247  125  126 1    
   248  126  246 1    
   249  126  247 1    
@<TRIPOS>SUBSTRUCTURE
     1 UNK         1 GROUP             0       ****    0 ROOT    
