@<TRIPOS>MOLECULE
3R540
247   249    1
SMALL
USER_CHARGES


@<TRIPOS>ATOM
      1 CA         -0.9084  -15.3123  -50.3096 C.3       0 UNK        -0.1800 
      2 C          -0.3227  -16.4258  -49.4541 C.2       0 UNK         0.5000 
      3 O          -0.5799  -17.5973  -49.7129 O.2       0 UNK        -0.5000 
      4 N           0.4471  -16.0547  -48.4232 N.am      1 UNK        -0.5000 
      5 CA          1.1644  -16.9447  -47.4947 C.3       1 UNK         0.1400 
      6 C6          2.2730  -17.8047  -48.1603 C.3       23 UNK        -0.0398 
      7 S7          3.4188  -16.8357  -49.2059 S.3       23 UNK        -0.2404 
      8 C8          3.8819  -18.0343  -50.5027 C.3       23 UNK        -0.0205 
      9 C9          2.6822  -18.5299  -51.2987 C.ar      23 UNK        -0.0193 
     10 C10         2.0412  -17.6899  -52.2127 C.ar      23 UNK        -0.1150 
     11 C11         0.9109  -18.1297  -52.9088 C.ar      23 UNK        -0.0193 
     12 C12         0.4211  -19.4207  -52.6853 C.ar      23 UNK        -0.1150 
     13 C13         1.0559  -20.2695  -51.7734 C.ar      23 UNK        -0.0193 
     14 C14         2.1982  -19.8259  -51.1018 C.ar      23 UNK        -0.1150 
     15 C15         0.4992  -21.6580  -51.4922 C.3       23 UNK        -0.0205 
     16 S16        -1.0223  -21.6023  -50.4896 S.3       23 UNK        -0.2404 
     17 C17        -0.4649  -20.8384  -48.9242 C.3       23 UNK        -0.0398 
     18 CA         -0.5767  -21.7784  -47.6967 C.3       11 UNK         0.1400 
     19 N           0.5297  -21.5565  -46.7619 N.am      11 UNK        -0.5000 
     20 C           1.4653  -22.4594  -46.4475 C.2       10 UNK         0.5000 
     21 O           1.5008  -23.6010  -46.9075 O.2       10 UNK        -0.5000 
     22 CA          2.5469  -22.0252  -45.4391 C.3       10 UNK         0.1400 
     23 CB          3.7803  -21.4877  -46.1811 C.3       10 UNK        -0.1800 
     24 N           2.1212  -21.0284  -44.4530 N.am      10 UNK        -0.5000 
     25 C           1.1089  -21.1531  -43.5834 C.2       9 UNK         0.5000 
     26 O           0.3045  -22.0864  -43.6083 O.2       9 UNK        -0.5000 
     27 CA          0.9741  -20.0414  -42.5172 C.3       9 UNK         0.1400 
     28 CB          0.2281  -20.5162  -41.2528 C.3       9 UNK        -0.1800 
     29 N           2.2472  -19.4167  -42.1346 N.am      9 UNK        -0.5000 
     30 C           3.3281  -20.0269  -41.6156 C.2       8 UNK         0.5000 
     31 O           3.4188  -21.2428  -41.4434 O.2       8 UNK        -0.5000 
     32 CA          4.5166  -19.1290  -41.2158 C.3       8 UNK         0.1400 
     33 CB          5.5332  -19.0507  -42.3655 C.3       8 UNK        -0.1800 
     34 N           4.1172  -17.7718  -40.8435 N.am      8 UNK        -0.5000 
     35 C           3.3711  -17.4491  -39.7771 C.2       7 UNK         0.5000 
     36 O           3.0295  -18.2569  -38.9127 O.2       7 UNK        -0.5000 
     37 CA          2.9089  -15.9807  -39.6667 C.3       7 UNK         0.1400 
     38 CB          3.7429  -15.2322  -38.6154 C.3       7 UNK        -0.1800 
     39 N           2.9537  -15.2319  -40.9290 N.am      7 UNK        -0.5000 
     40 C           2.2337  -15.5173  -42.0217 C.2       6 UNK         0.5000 
     41 O           1.4919  -16.4965  -42.1180 O.2       6 UNK        -0.5000 
     42 CA          2.4236  -14.5931  -43.2276 C.3       6 UNK         0.1400 
     43 CB          3.2299  -15.3009  -44.3300 C.3       6 UNK        -0.1800 
     44 N           1.1116  -14.2229  -43.7414 N.am      6 UNK        -0.5000 
     45 C           0.7860  -13.0205  -44.2298 C.2       5 UNK         0.5000 
     46 O           1.5775  -12.0811  -44.3204 O.2       5 UNK        -0.5000 
     47 CA         -0.6670  -12.8255  -44.6919 C.3       5 UNK         0.1400 
     48 CB         -0.8601  -13.3909  -46.1089 C.3       5 UNK        -0.1800 
     49 N          -1.6130  -13.4728  -43.7837 N.am      5 UNK        -0.5000 
     50 C          -2.2690  -12.8572  -42.7910 C.2       4 UNK         0.5000 
     51 O          -2.1328  -11.6627  -42.5233 O.2       4 UNK        -0.5000 
     52 CA         -3.2668  -13.6987  -41.9680 C.3       4 UNK         0.1400 
     53 CB         -4.7039  -13.4346  -42.4442 C.3       4 UNK        -0.1800 
     54 N          -3.0087  -15.1374  -42.0399 N.am      4 UNK        -0.5000 
     55 C          -2.0769  -15.7790  -41.3227 C.2       3 UNK         0.5000 
     56 O          -1.3753  -15.2329  -40.4708 O.2       3 UNK        -0.5000 
     57 CA         -1.8877  -17.2830  -41.6164 C.3       3 UNK         0.1400 
     58 CB         -2.7308  -18.1260  -40.6475 C.3       3 UNK        -0.1800 
     59 N          -2.1910  -17.6999  -42.9940 N.am      3 UNK        -0.5000 
     60 C          -1.6237  -17.1933  -44.0964 C.2       2 UNK         0.5000 
     61 O          -0.8830  -16.2096  -44.0837 O.2       2 UNK        -0.5000 
     62 CA         -1.9549  -17.8744  -45.4377 C.3       2 UNK         0.1400 
     63 CB         -3.4002  -17.5853  -45.8705 C.3       2 UNK        -0.1800 
     64 N          -1.0412  -17.4031  -46.4780 N.am      2 UNK        -0.5000 
     65 C           0.2330  -17.7992  -46.5988 C.2       1 UNK         0.5000 
     66 O           0.6844  -18.7816  -46.0067 O.2       1 UNK        -0.5000 
     67 C          -1.9425  -21.6638  -46.9824 C.2       11 UNK         0.5000 
     68 O          -2.9691  -21.5499  -47.6527 O.2       11 UNK        -0.5000 
     69 N          -1.9610  -21.6956  -45.6390 N.am      12 UNK        -0.5000 
     70 CA         -3.1942  -21.6399  -44.8483 C.3       12 UNK         0.1400 
     71 CB         -2.8679  -21.3343  -43.3807 C.3       12 UNK        -0.1800 
     72 C          -4.0010  -22.9421  -44.9685 C.2       12 UNK         0.5000 
     73 O          -5.2009  -22.8967  -45.2415 O.2       12 UNK        -0.5000 
     74 N          -3.3040  -24.0776  -44.8136 N.am      13 UNK        -0.5000 
     75 CA         -3.8563  -25.4278  -44.9512 C.3       13 UNK         0.1400 
     76 CB         -2.8149  -26.4482  -44.4681 C.3       13 UNK        -0.1800 
     77 C          -4.3011  -25.7494  -46.3900 C.2       13 UNK         0.5000 
     78 O          -5.2420  -26.5201  -46.5830 O.2       13 UNK        -0.5000 
     79 N          -3.6523  -25.1123  -47.3730 N.am      14 UNK        -0.5000 
     80 CA         -3.9938  -25.1511  -48.7932 C.3       14 UNK         0.1400 
     81 CB         -2.7303  -24.8422  -49.6099 C.3       14 UNK        -0.1800 
     82 C          -5.1603  -24.1928  -49.1116 C.2       14 UNK         0.5000 
     83 O          -5.0142  -23.2858  -49.9321 O.2       14 UNK        -0.5000 
     84 N          -6.2915  -24.4159  -48.4267 N.am      15 UNK        -0.5000 
     85 CA         -7.5895  -23.7477  -48.5671 C.3       15 UNK         0.1400 
     86 CB         -8.3082  -24.2654  -49.8291 C.3       15 UNK        -0.1800 
     87 C          -7.5311  -22.2057  -48.4956 C.2       15 UNK         0.5000 
     88 O          -8.2799  -21.5350  -49.2080 O.2       15 UNK        -0.5000 
     89 N          -6.6532  -21.6839  -47.6249 N.am      16 UNK        -0.5000 
     90 CA         -6.3759  -20.2661  -47.3849 C.3       16 UNK         0.1400 
     91 CB         -7.5714  -19.5896  -46.6833 C.3       16 UNK        -0.1800 
     92 C          -5.9274  -19.5244  -48.6610 C.2       16 UNK         0.5000 
     93 O          -6.6909  -18.7365  -49.2230 O.2       16 UNK        -0.5000 
     94 N          -4.6822  -19.7918  -49.0744 N.am      17 UNK        -0.5000 
     95 CA         -3.9788  -19.1817  -50.2065 C.3       17 UNK         0.1400 
     96 CB         -3.8589  -17.6502  -50.0445 C.3       17 UNK        -0.1800 
     97 C          -4.5304  -19.6068  -51.5821 C.2       17 UNK         0.5000 
     98 O          -4.5890  -18.7836  -52.4984 O.2       17 UNK        -0.5000 
     99 N          -4.9052  -20.8868  -51.7179 N.am      18 UNK        -0.5000 
    100 CA        -5.2050  -21.5182  -53.0024 C.3       18 UNK         0.1400 
    101 CB        -6.3825  -22.4980  -52.8357 C.3       18 UNK        -0.1800 
    102 C         -3.9178  -22.1620  -53.5613 C.2       18 UNK         0.5000 
    103 O         -2.8724  -21.5073  -53.5680 O.2       18 UNK        -0.5000 
    104 N         -4.0093  -23.4131  -54.0400 N.am      19 UNK        -0.5000 
    105 CA        -2.9427  -24.2193  -54.6462 C.3       19 UNK         0.1400 
    106 CB        -1.9023  -24.6456  -53.5872 C.3       19 UNK        -0.1800 
    107 C         -2.3232  -23.5230  -55.8737 C.2       19 UNK         0.5000 
    108 O         -2.8770  -23.6281  -56.9690 O.2       19 UNK        -0.5000 
    109 N         -1.2123  -22.8039  -55.6644 N.am      20 UNK        -0.5000 
    110 CA        -0.5689  -21.9466  -56.6597 C.3       20 UNK         0.1400 
    111 CB         0.8005  -21.4986  -56.1255 C.3       20 UNK        -0.1800 
    112 C         -1.4223  -20.7200  -57.0381 C.2       20 UNK         0.5000 
    113 O         -1.3220  -20.2490  -58.1717 O.2       20 UNK        -0.5000 
    114 N         -2.2357  -20.2298  -56.0881 N.am      21 UNK        -0.5000 
    115 CA        -3.1931  -19.1147  -56.1496 C.3       21 UNK         0.1400 
    116 CB        -4.3115  -19.4075  -57.1663 C.3       21 UNK        -0.1800 
    117 C         -2.5794  -17.7180  -56.3853 C.2       21 UNK         0.5000 
    118 O         -3.0401  -16.7507  -55.7791 O.2       21 UNK        -0.5000 
    119 N         -1.5509  -17.6372  -57.2358 N.am      22 UNK        -0.5000 
    120 CA        -0.7472  -16.4461  -57.5614 C.3       22 UNK         0.1400 
    121 C         -1.5028  -15.3434  -58.3658 C.2       22 UNK         0.5000 
    122 N         -2.6499  -15.6322  -58.9683 N.am      22 UNK        -0.7600 
    123 O         -1.0304  -14.2150  -58.4772 O.2       22 UNK        -0.5000 
    124 C124        0.0186  -15.8705  -56.3362 C.3       23 UNK        -0.0398 
    125 S125        1.0447  -17.1169  -55.4784 S.3       23 UNK        -0.2404 
    126 C126        0.2008  -17.1919  -53.8695 C.3       23 UNK        -0.0205 
    127 H127       -0.8904  -15.5965  -51.3610 H         1 UNK         0.0600 
    128 H128       -1.9436  -15.1255  -50.0248 H         1 UNK         0.0600 
    129 H129       -0.3478  -14.3838  -50.2000 H         1 UNK         0.0600 
    130 H130        0.6182  -15.0697  -48.2818 H         1 UNK         0.3000 
    131 H131        1.6666  -16.2692  -46.8019 H         1 UNK         0.0600 
    132 H132        1.8110  -18.5927  -48.7496 H         1 UNK         0.0800 
    133 H133        2.8731  -18.3068  -47.4003 H         1 UNK         0.0800 
    134 H134        4.4115  -18.8695  -50.0418 H         1 UNK         0.0800 
    135 H135        4.5919  -17.5615  -51.1825 H         1 UNK         0.0800 
    136 H136        2.4104  -16.6859  -52.3672 H         1 UNK         0.1150 
    137 H137       -0.4677  -19.7594  -53.1998 H         1 UNK         0.1150 
    138 H138        2.6892  -20.4779  -50.3931 H         1 UNK         0.1150 
    139 H139        0.2784  -22.1519  -52.4389 H         1 UNK         0.0800 
    140 H140        1.2389  -22.2803  -50.9862 H         1 UNK         0.0800 
    141 H141        0.5700  -20.5306  -49.0521 H         1 UNK         0.0800 
    142 H142       -1.0183  -19.9131  -48.7637 H         1 UNK         0.0800 
    143 H143       -0.5334  -22.8074  -48.0573 H         1 UNK         0.0600 
    144 H144        0.5918  -20.6283  -46.3475 H         1 UNK         0.3000 
    145 H145        2.8447  -22.9168  -44.8838 H         1 UNK         0.0600 
    146 H146        4.5944  -21.2693  -45.4895 H         1 UNK         0.0600 
    147 H147        4.1541  -22.2179  -46.9002 H         1 UNK         0.0600 
    148 H148        3.5508  -20.5745  -46.7308 H         1 UNK         0.0600 
    149 H149        2.6935  -20.2009  -44.3807 H         1 UNK         0.3000 
    150 H150        0.3790  -19.2540  -42.9804 H         1 UNK         0.0600 
    151 H151       -0.7780  -20.8600  -41.4853 H         1 UNK         0.0600 
    152 H152        0.1334  -19.7095  -40.5259 H         1 UNK         0.0600 
    153 H153        0.7465  -21.3430  -40.7665 H         1 UNK         0.0600 
    154 H154        2.2574  -18.4041  -42.2040 H         1 UNK         0.3000 
    155 H155        5.0043  -19.5879  -40.3533 H         1 UNK         0.0600 
    156 H156        5.8699  -20.0463  -42.6580 H         1 UNK         0.0600 
    157 H157        6.4171  -18.4836  -42.0729 H         1 UNK         0.0600 
    158 H158        5.1063  -18.5759  -43.2500 H         1 UNK         0.0600 
    159 H159        4.3637  -17.0346  -41.4864 H         1 UNK         0.3000 
    160 H160        1.8696  -15.9971  -39.3313 H         1 UNK         0.0600 
    161 H161        4.7905  -15.1604  -38.9104 H         1 UNK         0.0600 
    162 H162        3.7075  -15.7420  -37.6516 H         1 UNK         0.0600 
    163 H163        3.3665  -14.2211  -38.4591 H         1 UNK         0.0600 
    164 H164        3.5568  -14.4218  -40.9409 H         1 UNK         0.3000 
    165 H165        2.9652  -13.7010  -42.9058 H         1 UNK         0.0600 
    166 H166        4.2313  -15.5538  -43.9799 H         1 UNK         0.0600 
    167 H167        3.3429  -14.6650  -45.2082 H         1 UNK         0.0600 
    168 H168        2.7494  -16.2278  -44.6457 H         1 UNK         0.0600 
    169 H169        0.4061  -14.9572  -43.6959 H         1 UNK         0.3000 
    170 H170       -0.8654  -11.7523  -44.7325 H         1 UNK         0.0600 
    171 H171       -0.1859  -12.9071  -46.8167 H         1 UNK         0.0600 
    172 H172       -0.6628  -14.4618  -46.1464 H         1 UNK         0.0600 
    173 H173       -1.8775  -13.2254  -46.4634 H         1 UNK         0.0600 
    174 H174       -1.7003  -14.4786  -43.8791 H         1 UNK         0.3000 
    175 H175       -3.1904  -13.3761  -40.9273 H         1 UNK         0.0600 
    176 H176       -4.8471  -13.7397  -43.4816 H         1 UNK         0.0600 
    177 H177       -5.4276  -13.9730  -41.8321 H         1 UNK         0.0600 
    178 H178       -4.9495  -12.3739  -42.3773 H         1 UNK         0.0600 
    179 H179       -3.5475  -15.6651  -42.7103 H         1 UNK         0.3000 
    180 H180       -0.8370  -17.5126  -41.4337 H         1 UNK         0.0600 
    181 H181       -2.5004  -17.8767  -39.6108 H         1 UNK         0.0600 
    182 H182       -3.7986  -17.9598  -40.7956 H         1 UNK         0.0600 
    183 H183       -2.5366  -19.1909  -40.7732 H         1 UNK         0.0600 
    184 H184       -2.8368  -18.4691  -43.0854 H         1 UNK         0.3000 
    185 H185       -1.8313  -18.9502  -45.3136 H         1 UNK         0.0600 
    186 H186       -4.1165  -17.9282  -45.1231 H         1 UNK         0.0600 
    187 H187       -3.5702  -16.5192  -46.0263 H         1 UNK         0.0600 
    188 H188       -3.6374  -18.1029  -46.7995 H         1 UNK         0.0600 
    189 H189       -1.3274  -16.5855  -46.9940 H         1 UNK         0.3000 
    190 H190       -1.0927  -21.8294  -45.1310 H         1 UNK         0.3000 
    191 H191       -3.8076  -20.8215  -45.2287 H         1 UNK         0.0600 
    192 H192       -3.7790  -21.1669  -42.8050 H         1 UNK         0.0600 
    193 H193       -2.2541  -20.4407  -43.2931 H         1 UNK         0.0600 
    194 H194       -2.3288  -22.1549  -42.9060 H         1 UNK         0.0600 
    195 H195       -2.3210  -24.0117  -44.5920 H         1 UNK         0.3000 
    196 H196       -4.7360  -25.5016  -44.3085 H         1 UNK         0.0600 
    197 H197       -3.2038  -27.4651  -44.5361 H         1 UNK         0.0600 
    198 H198       -2.5456  -26.2739  -43.4262 H         1 UNK         0.0600 
    199 H199       -1.9018  -26.4052  -45.0634 H         1 UNK         0.0600 
    200 H200       -2.9297  -24.4608  -47.1093 H         1 UNK         0.3000 
    201 H201       -4.3214  -26.1587  -49.0573 H         1 UNK         0.0600 
    202 H202       -1.9499  -25.5820  -49.4323 H         1 UNK         0.0600 
    203 H203       -2.3304  -23.8629  -49.3556 H         1 UNK         0.0600 
    204 H204       -2.9449  -24.8410  -50.6781 H         1 UNK         0.0600 
    205 H205       -6.2625  -25.1687  -47.7471 H         1 UNK         0.3000 
    206 H206       -8.1815  -24.0590  -47.7054 H         1 UNK         0.0600 
    207 H207       -8.3805  -25.3529  -49.8234 H         1 UNK         0.0600 
    208 H208       -9.3249  -23.8759  -49.8929 H         1 UNK         0.0600 
    209 H209       -7.7860  -23.9703  -50.7375 H         1 UNK         0.0600 
    210 H210       -6.0926  -22.3274  -47.0770 H         1 UNK         0.3000 
    211 H211       -5.5363  -20.2305  -46.6909 H         1 UNK         0.0600 
    212 H212       -8.4668  -19.5920  -47.3055 H         1 UNK         0.0600 
    213 H213       -7.3429  -18.5503  -46.4444 H         1 UNK         0.0600 
    214 H214       -7.8130  -20.0928  -45.7471 H         1 UNK         0.0600 
    215 H215       -4.1453  -20.4952  -48.5680 H         1 UNK         0.3000 
    216 H216       -2.9645  -19.5724  -50.1669 H         1 UNK         0.0600 
    217 H217       -4.8226  -17.1485  -50.1284 H         1 UNK         0.0600 
    218 H218       -3.2107  -17.2334  -50.8158 H         1 UNK         0.0600 
    219 H219       -3.4210  -17.3868  -49.0826 H         1 UNK         0.0600 
    220 H220       -4.8189  -21.5193  -50.9275 H         1 UNK         0.3000 
    221 H221       -5.5175  -20.7617  -53.7247 H         1 UNK         0.0600 
    222 H222       -6.1032  -23.3798  -52.2602 H         1 UNK         0.0600 
    223 H223       -7.2192  -22.0205  -52.3249 H         1 UNK         0.0600 
    224 H224       -6.7513  -22.8373  -53.8042 H         1 UNK         0.0600 
    225 H225       -4.9172  -23.8546  -54.0154 H         1 UNK         0.3000 
    226 H226       -3.4139  -25.1295  -55.0204 H         1 UNK         0.0600 
    227 H227       -2.3477  -25.3343  -52.8706 H         1 UNK         0.0600 
    228 H228       -1.0621  -25.1678  -54.0467 H         1 UNK         0.0600 
    229 H229       -1.5030  -23.8002  -53.0269 H         1 UNK         0.0600 
    230 H230       -0.8642  -22.7411  -54.7190 H         1 UNK         0.3000 
    231 H231       -0.4102  -22.5349  -57.5658 H         1 UNK         0.0600 
    232 H232        0.7050  -20.9143  -55.2098 H         1 UNK         0.0600 
    233 H233        1.4416  -22.3542  -55.9130 H         1 UNK         0.0600 
    234 H234        1.3200  -20.8767  -56.8558 H         1 UNK         0.0600 
    235 H235       -2.2286  -20.7088  -55.1907 H         1 UNK         0.3000 
    236 H236       -3.6541  -19.0810  -55.1612 H         1 UNK         0.0600 
    237 H237       -4.8052  -20.3538  -56.9447 H         1 UNK         0.0600 
    238 H238       -5.0745  -18.6285  -57.1403 H         1 UNK         0.0600 
    239 H239       -3.9316  -19.4583  -58.1869 H         1 UNK         0.0600 
    240 H240       -1.2808  -18.4974  -57.7068 H         1 UNK         0.3000 
    241 H241        0.0092  -16.8077  -58.2585 H         1 UNK         0.0600 
    242 H242       -3.1285  -14.9191  -59.4961 H         1 UNK         0.3800 
    243 H243       -3.0450  -16.5561  -58.8973 H         1 UNK         0.3800 
    244 H244       -0.6786  -15.4112  -55.6341 H         1 UNK         0.0800 
    245 H245        0.6898  -15.0708  -56.6533 H         1 UNK         0.0800 
    246 H246        0.1633  -16.1912  -53.4376 H         1 UNK         0.0800 
    247 H247       -0.8336  -17.5074  -54.0097 H         1 UNK         0.0800 
@<TRIPOS>BOND
     1    1    2 1    
     2    1  127 1    
     3    1  128 1    
     4    1  129 1    
     5    2    3 2    
     6    2    4 am   BACKBONE|DICT|INTERRES
     7    4    5 1    
     8    4  130 1    
     9    5    6 1    
    10    5   65 1    
    11    5  131 1    
    12    6    7 1    
    13    6  132 1    
    14    6  133 1    
    15    7    8 1    
    16    8    9 1    
    17    8  134 1    
    18    8  135 1    
    19    9   10 ar   
    20    9   14 ar   
    21   10   11 ar   
    22   10  136 1    
    23   11   12 ar   
    24   11  126 1    
    25   12   13 ar   
    26   12  137 1    
    27   13   14 ar   
    28   13   15 1    
    29   14  138 1    
    30   15   16 1    
    31   15  139 1    
    32   15  140 1    
    33   16   17 1    
    34   17   18 1    
    35   17  141 1    
    36   17  142 1    
    37   18   19 1    
    38   18   67 1    
    39   18  143 1    
    40   19   20 am   BACKBONE|DICT|INTERRES
    41   19  144 1    
    42   20   21 2    
    43   20   22 1    
    44   22   23 1    
    45   22   24 1    
    46   22  145 1    
    47   23  146 1    
    48   23  147 1    
    49   23  148 1    
    50   24   25 am   BACKBONE|DICT|INTERRES
    51   24  149 1    
    52   25   26 2    
    53   25   27 1    
    54   27   28 1    
    55   27   29 1    
    56   27  150 1    
    57   28  151 1    
    58   28  152 1    
    59   28  153 1    
    60   29   30 am   BACKBONE|DICT|INTERRES
    61   29  154 1    
    62   30   31 2    
    63   30   32 1    
    64   32   33 1    
    65   32   34 1    
    66   32  155 1    
    67   33  156 1    
    68   33  157 1    
    69   33  158 1    
    70   34   35 am   BACKBONE|DICT|INTERRES
    71   34  159 1    
    72   35   36 2    
    73   35   37 1    
    74   37   38 1    
    75   37   39 1    
    76   37  160 1    
    77   38  161 1    
    78   38  162 1    
    79   38  163 1    
    80   39   40 am   BACKBONE|DICT|INTERRES
    81   39  164 1    
    82   40   41 2    
    83   40   42 1    
    84   42   43 1    
    85   42   44 1    
    86   42  165 1    
    87   43  166 1    
    88   43  167 1    
    89   43  168 1    
    90   44   45 am   BACKBONE|DICT|INTERRES
    91   44  169 1    
    92   45   46 2    
    93   45   47 1    
    94   47   48 1    
    95   47   49 1    
    96   47  170 1    
    97   48  171 1    
    98   48  172 1    
    99   48  173 1    
   100   49   50 am   BACKBONE|DICT|INTERRES
   101   49  174 1    
   102   50   51 2    
   103   50   52 1    
   104   52   53 1    
   105   52   54 1    
   106   52  175 1    
   107   53  176 1    
   108   53  177 1    
   109   53  178 1    
   110   54   55 am   BACKBONE|DICT|INTERRES
   111   54  179 1    
   112   55   56 2    
   113   55   57 1    
   114   57   58 1    
   115   57   59 1    
   116   57  180 1    
   117   58  181 1    
   118   58  182 1    
   119   58  183 1    
   120   59   60 am   BACKBONE|DICT|INTERRES
   121   59  184 1    
   122   60   61 2    
   123   60   62 1    
   124   62   63 1    
   125   62   64 1    
   126   62  185 1    
   127   63  186 1    
   128   63  187 1    
   129   63  188 1    
   130   64   65 am   BACKBONE|DICT|INTERRES
   131   64  189 1    
   132   65   66 2    
   133   67   68 2    
   134   67   69 am   BACKBONE|DICT|INTERRES
   135   69   70 1    
   136   69  190 1    
   137   70   71 1    
   138   70   72 1    
   139   70  191 1    
   140   71  192 1    
   141   71  193 1    
   142   71  194 1    
   143   72   73 2    
   144   72   74 am   BACKBONE|DICT|INTERRES
   145   74   75 1    
   146   74  195 1    
   147   75   76 1    
   148   75   77 1    
   149   75  196 1    
   150   76  197 1    
   151   76  198 1    
   152   76  199 1    
   153   77   78 2    
   154   77   79 am   BACKBONE|DICT|INTERRES
   155   79   80 1    
   156   79  200 1    
   157   80   81 1    
   158   80   82 1    
   159   80  201 1    
   160   81  202 1    
   161   81  203 1    
   162   81  204 1    
   163   82   83 2    
   164   82   84 am   BACKBONE|DICT|INTERRES
   165   84   85 1    
   166   84  205 1    
   167   85   86 1    
   168   85   87 1    
   169   85  206 1    
   170   86  207 1    
   171   86  208 1    
   172   86  209 1    
   173   87   88 2    
   174   87   89 am   BACKBONE|DICT|INTERRES
   175   89   90 1    
   176   89  210 1    
   177   90   91 1    
   178   90   92 1    
   179   90  211 1    
   180   91  212 1    
   181   91  213 1    
   182   91  214 1    
   183   92   93 2    
   184   92   94 am   BACKBONE|DICT|INTERRES
   185   94   95 1    
   186   94  215 1    
   187   95   96 1    
   188   95   97 1    
   189   95  216 1    
   190   96  217 1    
   191   96  218 1    
   192   96  219 1    
   193   97   98 2    
   194   97   99 am   BACKBONE|DICT|INTERRES
   195   99  100 1    
   196   99  220 1    
   197  100  101 1    
   198  100  102 1    
   199  100  221 1    
   200  101  222 1    
   201  101  223 1    
   202  101  224 1    
   203  102  103 2    
   204  102  104 am   BACKBONE|DICT|INTERRES
   205  104  105 1    
   206  104  225 1    
   207  105  106 1    
   208  105  107 1    
   209  105  226 1    
   210  106  227 1    
   211  106  228 1    
   212  106  229 1    
   213  107  108 2    
   214  107  109 am   BACKBONE|DICT|INTERRES
   215  109  110 1    
   216  109  230 1    
   217  110  111 1    
   218  110  112 1    
   219  110  231 1    
   220  111  232 1    
   221  111  233 1    
   222  111  234 1    
   223  112  113 2    
   224  112  114 am   BACKBONE|DICT|INTERRES
   225  114  115 1    
   226  114  235 1    
   227  115  116 1    
   228  115  117 1    
   229  115  236 1    
   230  116  237 1    
   231  116  238 1    
   232  116  239 1    
   233  117  118 2    
   234  117  119 am   BACKBONE|DICT|INTERRES
   235  119  120 1    
   236  119  240 1    
   237  120  121 1    
   238  120  124 1    
   239  120  241 1    
   240  121  122 am   BACKBONE|DICT|INTERRES
   241  121  123 2    
   242  122  242 1    
   243  122  243 1    
   244  124  125 1    
   245  124  244 1    
   246  124  245 1    
   247  125  126 1    
   248  126  246 1    
   249  126  247 1    
@<TRIPOS>SUBSTRUCTURE
     1 UNK         1 GROUP             0       ****    0 ROOT    
