@<TRIPOS>MOLECULE
3R540
247   249    1
SMALL
USER_CHARGES


@<TRIPOS>ATOM
      1 CA         -1.2606  -17.6543  -49.7718 C.3       0 UNK        -0.1800 
      2 C          -1.2184  -16.2009  -50.2201 C.2       0 UNK         0.5000 
      3 O          -1.5523  -15.9048  -51.3665 O.2       0 UNK        -0.5000 
      4 N          -0.8233  -15.2980  -49.3192 N.am      1 UNK        -0.5000 
      5 CA         -0.7978  -13.8563  -49.5491 C.3       1 UNK         0.1400 
      6 C6          0.5533  -13.3280  -50.1121 C.3       23 UNK        -0.0398 
      7 S7          2.0599  -13.7715  -49.1648 S.3       23 UNK        -0.2404 
      8 C8          3.1376  -14.4861  -50.4479 C.3       23 UNK        -0.0205 
      9 C9          2.8287  -15.9550  -50.6843 C.ar      23 UNK        -0.0193 
     10 C10         1.9825  -16.3463  -51.7254 C.ar      23 UNK        -0.1150 
     11 C11         1.6691  -17.6952  -51.9130 C.ar      23 UNK        -0.0193 
     12 C12         2.2327  -18.6580  -51.0705 C.ar      23 UNK        -0.1150 
     13 C13         3.0817  -18.2781  -50.0271 C.ar      23 UNK        -0.0193 
     14 C14         3.3809  -16.9256  -49.8440 C.ar      23 UNK        -0.1150 
     15 C15         3.6610  -19.3233  -49.0846 C.3       23 UNK        -0.0205 
     16 S16         2.9592  -19.2061  -47.4062 S.3       23 UNK        -0.2404 
     17 C17         1.2187  -19.6814  -47.6739 C.3       23 UNK        -0.0398 
     18 CA          0.9647  -21.1786  -47.3766 C.3       11 UNK         0.1400 
     19 N           1.2454  -21.5158  -45.9789 N.am      11 UNK        -0.5000 
     20 C           1.3834  -22.7618  -45.5075 C.2       10 UNK         0.5000 
     21 O           1.3235  -23.7688  -46.2154 O.2       10 UNK        -0.5000 
     22 CA          1.6665  -22.8872  -43.9967 C.3       10 UNK         0.1400 
     23 CB          2.0646  -24.3150  -43.5668 C.3       10 UNK        -0.1800 
     24 N           2.6508  -21.9055  -43.5286 N.am      10 UNK        -0.5000 
     25 C           3.9280  -21.7837  -43.9255 C.2       9 UNK         0.5000 
     26 O           4.4634  -22.5205  -44.7548 O.2       9 UNK        -0.5000 
     27 CA          4.7639  -20.6642  -43.2775 C.3       9 UNK         0.1400 
     28 CB          5.2610  -19.6505  -44.3222 C.3       9 UNK        -0.1800 
     29 N           4.0330  -19.9533  -42.2241 N.am      9 UNK        -0.5000 
     30 C           4.1561  -20.2226  -40.9181 C.2       8 UNK         0.5000 
     31 O           4.8622  -21.1271  -40.4701 O.2       8 UNK        -0.5000 
     32 CA          3.3844  -19.3254  -39.9392 C.3       8 UNK         0.1400 
     33 CB          4.1751  -18.0363  -39.6663 C.3       8 UNK        -0.1800 
     34 N           2.0321  -18.9865  -40.3868 N.am      8 UNK        -0.5000 
     35 C           0.9753  -19.7950  -40.2266 C.2       7 UNK         0.5000 
     36 O           1.0654  -20.9674  -39.8605 O.2       7 UNK        -0.5000 
     37 CA         -0.4191  -19.1832  -40.4630 C.3       7 UNK         0.1400 
     38 CB         -0.7273  -18.0968  -39.4196 C.3       7 UNK        -0.1800 
     39 N          -0.5863  -18.6293  -41.8028 N.am      7 UNK        -0.5000 
     40 C          -0.6894  -19.3637  -42.9173 C.2       6 UNK         0.5000 
     41 O          -0.6670  -20.5925  -42.9302 O.2       6 UNK        -0.5000 
     42 CA         -0.7806  -18.5955  -44.2504 C.3       6 UNK         0.1400 
     43 CB         -2.2048  -18.0831  -44.5108 C.3       6 UNK        -0.1800 
     44 N           0.1584  -17.4748  -44.3201 N.am      6 UNK        -0.5000 
     45 C           1.4874  -17.5901  -44.1870 C.2       5 UNK         0.5000 
     46 O           2.0675  -18.6653  -44.0381 O.2       5 UNK        -0.5000 
     47 CA          2.2893  -16.2795  -44.1429 C.3       5 UNK         0.1400 
     48 CB          2.4987  -15.7065  -45.5542 C.3       5 UNK        -0.1800 
     49 N           1.6406  -15.2831  -43.2878 N.am      5 UNK        -0.5000 
     50 C           1.5477  -15.3828  -41.9530 C.2       4 UNK         0.5000 
     51 O           2.0302  -16.3074  -41.3026 O.2       4 UNK        -0.5000 
     52 CA          0.7426  -14.2937  -41.2223 C.3       4 UNK         0.1400 
     53 CB          1.6081  -13.0472  -40.9858 C.3       4 UNK        -0.1800 
     54 N          -0.4696  -13.9137  -41.9451 N.am      4 UNK        -0.5000 
     55 C          -1.5064  -14.7308  -42.1819 C.2       3 UNK         0.5000 
     56 O          -1.5817  -15.8817  -41.7543 O.2       3 UNK        -0.5000 
     57 CA         -2.6157  -14.1841  -43.1009 C.3       3 UNK         0.1400 
     58 CB         -3.6989  -13.4722  -42.2777 C.3       3 UNK        -0.1800 
     59 N          -2.0969  -13.2686  -44.1219 N.am      3 UNK        -0.5000 
     60 C          -1.2472  -13.6300  -45.0916 C.2       2 UNK         0.5000 
     61 O          -0.8491  -14.7871  -45.2565 O.2       2 UNK        -0.5000 
     62 CA         -0.6828  -12.4942  -45.9601 C.3       2 UNK         0.1400 
     63 CB          0.6072  -11.9419  -45.3332 C.3       2 UNK        -0.1800 
     64 N          -0.3800  -12.9722  -47.3043 N.am      2 UNK        -0.5000 
     65 C          -1.2888  -13.1756  -48.2622 C.2       1 UNK         0.5000 
     66 O          -2.4814  -12.8889  -48.1429 O.2       1 UNK        -0.5000 
     67 C          -0.4581  -21.6050  -47.8092 C.2       11 UNK         0.5000 
     68 O          -1.3238  -21.8698  -46.9682 O.2       11 UNK        -0.5000 
     69 N          -0.6663  -21.6469  -49.1338 N.am      12 UNK        -0.5000 
     70 CA         -1.8473  -22.1598  -49.8384 C.3       12 UNK         0.1400 
     71 CB         -1.6808  -21.8797  -51.3386 C.3       12 UNK        -0.1800 
     72 C          -3.2131  -21.6497  -49.3413 C.2       12 UNK         0.5000 
     73 O          -4.1710  -22.4210  -49.3379 O.2       12 UNK        -0.5000 
     74 N          -3.2775  -20.3958  -48.8724 N.am      13 UNK        -0.5000 
     75 CA         -4.4799  -19.7945  -48.2835 C.3       13 UNK         0.1400 
     76 CB         -4.2283  -18.3083  -47.9904 C.3       13 UNK        -0.1800 
     77 C          -4.9933  -20.5185  -47.0216 C.2       13 UNK         0.5000 
     78 O          -6.1911  -20.4561  -46.7465 O.2       13 UNK        -0.5000 
     79 N          -4.0982  -21.2094  -46.3030 N.am      14 UNK        -0.5000 
     80 CA         -4.4435  -22.1126  -45.2091 C.3       14 UNK         0.1400 
     81 CB         -3.4608  -21.9158  -44.0455 C.3       14 UNK        -0.1800 
     82 C          -4.4200  -23.5720  -45.6877 C.2       14 UNK         0.5000 
     83 O          -5.3756  -24.3051  -45.4348 O.2       14 UNK        -0.5000 
     84 N          -3.3316  -23.9705  -46.3633 N.am      15 UNK        -0.5000 
     85 CA         -3.0440  -25.3639  -46.7181 C.3       15 UNK         0.1400 
     86 CB         -1.5860  -25.4776  -47.1834 C.3       15 UNK        -0.1800 
     87 C          -3.9982  -25.9791  -47.7591 C.2       15 UNK         0.5000 
     88 O          -4.3035  -27.1685  -47.6631 O.2       15 UNK        -0.5000 
     89 N          -4.4522  -25.1697  -48.7222 N.am      16 UNK        -0.5000 
     90 CA         -5.3952  -25.5541  -49.7762 C.3       16 UNK         0.1400 
     91 CB         -4.7234  -25.3233  -51.1411 C.3       16 UNK        -0.1800 
     92 C          -6.7195  -24.7718  -49.6680 C.2       16 UNK         0.5000 
     93 O          -7.5939  -24.9472  -50.5169 O.2       16 UNK        -0.5000 
     94 N          -6.8379  -23.9185  -48.6384 N.am      17 UNK        -0.5000 
     95 CA         -7.9507  -23.0149  -48.3205 C.3       17 UNK         0.1400 
     96 CB         -9.2503  -23.8061  -48.0651 C.3       17 UNK        -0.1800 
     97 C          -8.1577  -21.8633  -49.3317 C.2       17 UNK         0.5000 
     98 O          -9.1421  -21.1317  -49.2137 O.2       17 UNK        -0.5000 
     99 N          -7.2360  -21.6982  -50.2875 N.am      18 UNK        -0.5000 
    100 CA        -7.2447  -20.6861  -51.3384 C.3       18 UNK         0.1400 
    101 CB        -8.3775  -20.9499  -52.3496 C.3       18 UNK        -0.1800 
    102 C         -5.8872  -20.7262  -52.0483 C.2       18 UNK         0.5000 
    103 O         -5.3067  -21.8045  -52.1842 O.2       18 UNK        -0.5000 
    104 N         -5.4108  -19.5607  -52.5034 N.am      19 UNK        -0.5000 
    105 CA        -4.1362  -19.4257  -53.2130 C.3       19 UNK         0.1400 
    106 CB        -3.7366  -17.9446  -53.2679 C.3       19 UNK        -0.1800 
    107 C         -4.1595  -20.0391  -54.6258 C.2       19 UNK         0.5000 
    108 O         -3.1416  -20.5708  -55.0705 O.2       19 UNK        -0.5000 
    109 N         -5.3181  -19.9591  -55.2992 N.am      20 UNK        -0.5000 
    110 CA        -5.5786  -20.4484  -56.6572 C.3       20 UNK         0.1400 
    111 CB        -5.6421  -21.9927  -56.6624 C.3       20 UNK        -0.1800 
    112 C         -4.5808  -19.8476  -57.6723 C.2       20 UNK         0.5000 
    113 O         -4.5191  -18.6226  -57.7958 O.2       20 UNK        -0.5000 
    114 N         -3.7874  -20.6967  -58.3402 N.am      21 UNK        -0.5000 
    115 CA        -2.7398  -20.3150  -59.2935 C.3       21 UNK         0.1400 
    116 CB        -2.1820  -21.5863  -59.9518 C.3       21 UNK        -0.1800 
    117 C         -1.5956  -19.4777  -58.6814 C.2       21 UNK         0.5000 
    118 O         -0.9198  -18.7559  -59.4158 O.2       21 UNK        -0.5000 
    119 N         -1.4093  -19.5702  -57.3583 N.am      22 UNK        -0.5000 
    120 CA        -0.5018  -18.7195  -56.5739 C.3       22 UNK         0.1400 
    121 C         -1.0620  -17.2836  -56.3185 C.2       22 UNK         0.5000 
    122 N         -2.3320  -16.9959  -56.5861 N.am      22 UNK        -0.7600 
    123 O         -0.3252  -16.3969  -55.8988 O.2       22 UNK        -0.5000 
    124 C124       -0.0979  -19.4498  -55.2661 C.3       23 UNK        -0.0398 
    125 S125        1.4080  -18.8224  -54.4461 S.3       23 UNK        -0.2404 
    126 C126        0.6468  -18.1074  -52.9587 C.3       23 UNK        -0.0205 
    127 H127       -0.3749  -18.1795  -50.1171 H         1 UNK         0.0600 
    128 H128       -1.3079  -17.7379  -48.6862 H         1 UNK         0.0600 
    129 H129       -2.1302  -18.1495  -50.2018 H         1 UNK         0.0600 
    130 H130       -0.5743  -15.5880  -48.3838 H         1 UNK         0.3000 
    131 H131       -1.5565  -13.6111  -50.2962 H         1 UNK         0.0600 
    132 H132        0.5189  -12.2411  -50.2013 H         1 UNK         0.0800 
    133 H133        0.6621  -13.6926  -51.1334 H         1 UNK         0.0800 
    134 H134        4.1752  -14.3836  -50.1269 H         1 UNK         0.0800 
    135 H135        3.0519  -13.9154  -51.3738 H         1 UNK         0.0800 
    136 H136        1.5364  -15.5995  -52.3669 H         1 UNK         0.1150 
    137 H137        1.9840  -19.7003  -51.2121 H         1 UNK         0.1150 
    138 H138        4.0268  -16.6267  -49.0301 H         1 UNK         0.1150 
    139 H139        3.5039  -20.3309  -49.4723 H         1 UNK         0.0800 
    140 H140        4.7413  -19.1854  -49.0228 H         1 UNK         0.0800 
    141 H141        0.9495  -19.4376  -48.6994 H         1 UNK         0.0800 
    142 H142        0.5934  -19.0470  -47.0460 H         1 UNK         0.0800 
    143 H143        1.6597  -21.7586  -47.9879 H         1 UNK         0.0600 
    144 H144        1.3600  -20.7418  -45.3392 H         1 UNK         0.3000 
    145 H145        0.7295  -22.6549  -43.4922 H         1 UNK         0.0600 
    146 H146        2.2394  -24.3681  -42.4922 H         1 UNK         0.0600 
    147 H147        1.2724  -25.0268  -43.8016 H         1 UNK         0.0600 
    148 H148        2.9688  -24.6561  -44.0716 H         1 UNK         0.0600 
    149 H149        2.3098  -21.2288  -42.8602 H         1 UNK         0.3000 
    150 H150        5.6489  -21.1444  -42.8553 H         1 UNK         0.0600 
    151 H151        5.8509  -20.1431  -45.0960 H         1 UNK         0.0600 
    152 H152        5.8967  -18.8932  -43.8635 H         1 UNK         0.0600 
    153 H153        4.4399  -19.1385  -44.8199 H         1 UNK         0.0600 
    154 H154        3.3889  -19.2342  -42.5353 H         1 UNK         0.3000 
    155 H155        3.3068  -19.8640  -38.9919 H         1 UNK         0.0600 
    156 H156        5.1563  -18.2624  -39.2472 H         1 UNK         0.0600 
    157 H157        3.6554  -17.3970  -38.9524 H         1 UNK         0.0600 
    158 H158        4.3351  -17.4599  -40.5782 H         1 UNK         0.0600 
    159 H159        1.8941  -18.0336  -40.7187 H         1 UNK         0.3000 
    160 H160       -1.1542  -19.9807  -40.3348 H         1 UNK         0.0600 
    161 H161       -0.0701  -17.2332  -39.5266 H         1 UNK         0.0600 
    162 H162       -0.6057  -18.4806  -38.4060 H         1 UNK         0.0600 
    163 H163       -1.7548  -17.7443  -39.5128 H         1 UNK         0.0600 
    164 H164       -0.6663  -17.6195  -41.8723 H         1 UNK         0.3000 
    165 H165       -0.5250  -19.2932  -45.0483 H         1 UNK         0.0600 
    166 H166       -2.8951  -18.9113  -44.6682 H         1 UNK         0.0600 
    167 H167       -2.2417  -17.4545  -45.4002 H         1 UNK         0.0600 
    168 H168       -2.5833  -17.4952  -43.6750 H         1 UNK         0.0600 
    169 H169       -0.2364  -16.5506  -44.4624 H         1 UNK         0.3000 
    170 H170        3.2714  -16.5033  -43.7206 H         1 UNK         0.0600 
    171 H171        3.0788  -14.7843  -45.5249 H         1 UNK         0.0600 
    172 H172        3.0460  -16.4111  -46.1810 H         1 UNK         0.0600 
    173 H173        1.5553  -15.4930  -46.0564 H         1 UNK         0.0600 
    174 H174        1.1641  -14.5265  -43.7538 H         1 UNK         0.3000 
    175 H175        0.4452  -14.6942  -40.2508 H         1 UNK         0.0600 
    176 H176        2.5141  -13.3012  -40.4339 H         1 UNK         0.0600 
    177 H177        1.9143  -12.5829  -41.9241 H         1 UNK         0.0600 
    178 H178        1.0716  -12.3001  -40.4006 H         1 UNK         0.0600 
    179 H179       -0.4996  -12.9797  -42.3249 H         1 UNK         0.3000 
    180 H180       -3.0745  -15.0341  -43.6100 H         1 UNK         0.0600 
    181 H181       -4.1161  -14.1400  -41.5226 H         1 UNK         0.0600 
    182 H182       -3.3036  -12.5973  -41.7600 H         1 UNK         0.0600 
    183 H183       -4.5237  -13.1445  -42.9108 H         1 UNK         0.0600 
    184 H184       -2.3777  -12.3013  -44.0457 H         1 UNK         0.3000 
    185 H185       -1.4181  -11.6891  -46.0220 H         1 UNK         0.0600 
    186 H186        0.4250  -11.5570  -44.3291 H         1 UNK         0.0600 
    187 H187        1.3810  -12.7069  -45.2581 H         1 UNK         0.0600 
    188 H188        1.0097  -11.1197  -45.9253 H         1 UNK         0.0600 
    189 H189        0.5724  -13.2651  -47.4793 H         1 UNK         0.3000 
    190 H190        0.1096  -21.4158  -49.7363 H         1 UNK         0.3000 
    191 H191       -1.8534  -23.2423  -49.7039 H         1 UNK         0.0600 
    192 H192       -0.8194  -22.4098  -51.7451 H         1 UNK         0.0600 
    193 H193       -1.5384  -20.8166  -51.5332 H         1 UNK         0.0600 
    194 H194       -2.5545  -22.2099  -51.9026 H         1 UNK         0.0600 
    195 H195       -2.4382  -19.8389  -48.8741 H         1 UNK         0.3000 
    196 H196       -5.2763  -19.8574  -49.0271 H         1 UNK         0.0600 
    197 H197       -5.0807  -17.8584  -47.4793 H         1 UNK         0.0600 
    198 H198       -4.0786  -17.7441  -48.9102 H         1 UNK         0.0600 
    199 H199       -3.3548  -18.1666  -47.3555 H         1 UNK         0.0600 
    200 H200       -3.1324  -21.2331  -46.6149 H         1 UNK         0.3000 
    201 H201       -5.4471  -21.8996  -44.8349 H         1 UNK         0.0600 
    202 H202       -3.6566  -22.6263  -43.2415 H         1 UNK         0.0600 
    203 H203       -2.4263  -22.0554  -44.3615 H         1 UNK         0.0600 
    204 H204       -3.5503  -20.9176  -43.6189 H         1 UNK         0.0600 
    205 H205       -2.5899  -23.2982  -46.5334 H         1 UNK         0.3000 
    206 H206       -3.1449  -25.9582  -45.8073 H         1 UNK         0.0600 
    207 H207       -0.9019  -25.1950  -46.3842 H         1 UNK         0.0600 
    208 H208       -1.3418  -26.5016  -47.4690 H         1 UNK         0.0600 
    209 H209       -1.3813  -24.8385  -48.0416 H         1 UNK         0.0600 
    210 H210       -4.1637  -24.1950  -48.7387 H         1 UNK         0.3000 
    211 H211       -5.6514  -26.6123  -49.6992 H         1 UNK         0.0600 
    212 H212       -5.3773  -25.6276  -51.9591 H         1 UNK         0.0600 
    213 H213       -3.8038  -25.9017  -51.2292 H         1 UNK         0.0600 
    214 H214       -4.4734  -24.2735  -51.2958 H         1 UNK         0.0600 
    215 H215       -6.0518  -23.8638  -48.0070 H         1 UNK         0.3000 
    216 H216       -7.6784  -22.5394  -47.3783 H         1 UNK         0.0600 
    217 H217      -10.0282  -23.1588  -47.6587 H         1 UNK         0.0600 
    218 H218       -9.0893  -24.6077  -47.3443 H         1 UNK         0.0600 
    219 H219       -9.6438  -24.2493  -48.9801 H         1 UNK         0.0600 
    220 H220       -6.4295  -22.3133  -50.3103 H         1 UNK         0.3000 
    221 H221       -7.3795  -19.7050  -50.8788 H         1 UNK         0.0600 
    222 H222       -8.2995  -21.9475  -52.7839 H         1 UNK         0.0600 
    223 H223       -9.3601  -20.8634  -51.8866 H         1 UNK         0.0600 
    224 H224       -8.3466  -20.2314  -53.1695 H         1 UNK         0.0600 
    225 H225       -5.9448  -18.7149  -52.3636 H         1 UNK         0.3000 
    226 H226       -3.3750  -19.9533  -52.6389 H         1 UNK         0.0600 
    227 H227       -2.7506  -17.8221  -53.7172 H         1 UNK         0.0600 
    228 H228       -4.4411  -17.3561  -53.8567 H         1 UNK         0.0600 
    229 H229       -3.6891  -17.5112  -52.2689 H         1 UNK         0.0600 
    230 H230       -6.0855  -19.4774  -54.8544 H         1 UNK         0.3000 
    231 H231       -6.5634  -20.0753  -56.9414 H         1 UNK         0.0600 
    232 H232       -6.4004  -22.3497  -55.9653 H         1 UNK         0.0600 
    233 H233       -4.6942  -22.4475  -56.3722 H         1 UNK         0.0600 
    234 H234       -5.9114  -22.3745  -57.6480 H         1 UNK         0.0600 
    235 H235       -3.8843  -21.6843  -58.1542 H         1 UNK         0.3000 
    236 H236       -3.2061  -19.7047  -60.0695 H         1 UNK         0.0600 
    237 H237       -2.9662  -22.1418  -60.4665 H         1 UNK         0.0600 
    238 H238       -1.4200  -21.3414  -60.6929 H         1 UNK         0.0600 
    239 H239       -1.7243  -22.2507  -59.2178 H         1 UNK         0.0600 
    240 H240       -2.0320  -20.1602  -56.8175 H         1 UNK         0.3000 
    241 H241        0.4070  -18.5875  -57.1641 H         1 UNK         0.0600 
    242 H242       -2.6598  -16.0566  -56.4288 H         1 UNK         0.3800 
    243 H243       -2.9646  -17.6814  -56.9838 H         1 UNK         0.3800 
    244 H244       -0.9289  -19.4493  -54.5620 H         1 UNK         0.0800 
    245 H245        0.0943  -20.5017  -55.4827 H         1 UNK         0.0800 
    246 H246       -0.0334  -18.8341  -52.5127 H         1 UNK         0.0800 
    247 H247        0.0315  -17.2534  -53.2470 H         1 UNK         0.0800 
@<TRIPOS>BOND
     1    1    2 1    
     2    1  127 1    
     3    1  128 1    
     4    1  129 1    
     5    2    3 2    
     6    2    4 am   BACKBONE|DICT|INTERRES
     7    4    5 1    
     8    4  130 1    
     9    5    6 1    
    10    5   65 1    
    11    5  131 1    
    12    6    7 1    
    13    6  132 1    
    14    6  133 1    
    15    7    8 1    
    16    8    9 1    
    17    8  134 1    
    18    8  135 1    
    19    9   10 ar   
    20    9   14 ar   
    21   10   11 ar   
    22   10  136 1    
    23   11   12 ar   
    24   11  126 1    
    25   12   13 ar   
    26   12  137 1    
    27   13   14 ar   
    28   13   15 1    
    29   14  138 1    
    30   15   16 1    
    31   15  139 1    
    32   15  140 1    
    33   16   17 1    
    34   17   18 1    
    35   17  141 1    
    36   17  142 1    
    37   18   19 1    
    38   18   67 1    
    39   18  143 1    
    40   19   20 am   BACKBONE|DICT|INTERRES
    41   19  144 1    
    42   20   21 2    
    43   20   22 1    
    44   22   23 1    
    45   22   24 1    
    46   22  145 1    
    47   23  146 1    
    48   23  147 1    
    49   23  148 1    
    50   24   25 am   BACKBONE|DICT|INTERRES
    51   24  149 1    
    52   25   26 2    
    53   25   27 1    
    54   27   28 1    
    55   27   29 1    
    56   27  150 1    
    57   28  151 1    
    58   28  152 1    
    59   28  153 1    
    60   29   30 am   BACKBONE|DICT|INTERRES
    61   29  154 1    
    62   30   31 2    
    63   30   32 1    
    64   32   33 1    
    65   32   34 1    
    66   32  155 1    
    67   33  156 1    
    68   33  157 1    
    69   33  158 1    
    70   34   35 am   BACKBONE|DICT|INTERRES
    71   34  159 1    
    72   35   36 2    
    73   35   37 1    
    74   37   38 1    
    75   37   39 1    
    76   37  160 1    
    77   38  161 1    
    78   38  162 1    
    79   38  163 1    
    80   39   40 am   BACKBONE|DICT|INTERRES
    81   39  164 1    
    82   40   41 2    
    83   40   42 1    
    84   42   43 1    
    85   42   44 1    
    86   42  165 1    
    87   43  166 1    
    88   43  167 1    
    89   43  168 1    
    90   44   45 am   BACKBONE|DICT|INTERRES
    91   44  169 1    
    92   45   46 2    
    93   45   47 1    
    94   47   48 1    
    95   47   49 1    
    96   47  170 1    
    97   48  171 1    
    98   48  172 1    
    99   48  173 1    
   100   49   50 am   BACKBONE|DICT|INTERRES
   101   49  174 1    
   102   50   51 2    
   103   50   52 1    
   104   52   53 1    
   105   52   54 1    
   106   52  175 1    
   107   53  176 1    
   108   53  177 1    
   109   53  178 1    
   110   54   55 am   BACKBONE|DICT|INTERRES
   111   54  179 1    
   112   55   56 2    
   113   55   57 1    
   114   57   58 1    
   115   57   59 1    
   116   57  180 1    
   117   58  181 1    
   118   58  182 1    
   119   58  183 1    
   120   59   60 am   BACKBONE|DICT|INTERRES
   121   59  184 1    
   122   60   61 2    
   123   60   62 1    
   124   62   63 1    
   125   62   64 1    
   126   62  185 1    
   127   63  186 1    
   128   63  187 1    
   129   63  188 1    
   130   64   65 am   BACKBONE|DICT|INTERRES
   131   64  189 1    
   132   65   66 2    
   133   67   68 2    
   134   67   69 am   BACKBONE|DICT|INTERRES
   135   69   70 1    
   136   69  190 1    
   137   70   71 1    
   138   70   72 1    
   139   70  191 1    
   140   71  192 1    
   141   71  193 1    
   142   71  194 1    
   143   72   73 2    
   144   72   74 am   BACKBONE|DICT|INTERRES
   145   74   75 1    
   146   74  195 1    
   147   75   76 1    
   148   75   77 1    
   149   75  196 1    
   150   76  197 1    
   151   76  198 1    
   152   76  199 1    
   153   77   78 2    
   154   77   79 am   BACKBONE|DICT|INTERRES
   155   79   80 1    
   156   79  200 1    
   157   80   81 1    
   158   80   82 1    
   159   80  201 1    
   160   81  202 1    
   161   81  203 1    
   162   81  204 1    
   163   82   83 2    
   164   82   84 am   BACKBONE|DICT|INTERRES
   165   84   85 1    
   166   84  205 1    
   167   85   86 1    
   168   85   87 1    
   169   85  206 1    
   170   86  207 1    
   171   86  208 1    
   172   86  209 1    
   173   87   88 2    
   174   87   89 am   BACKBONE|DICT|INTERRES
   175   89   90 1    
   176   89  210 1    
   177   90   91 1    
   178   90   92 1    
   179   90  211 1    
   180   91  212 1    
   181   91  213 1    
   182   91  214 1    
   183   92   93 2    
   184   92   94 am   BACKBONE|DICT|INTERRES
   185   94   95 1    
   186   94  215 1    
   187   95   96 1    
   188   95   97 1    
   189   95  216 1    
   190   96  217 1    
   191   96  218 1    
   192   96  219 1    
   193   97   98 2    
   194   97   99 am   BACKBONE|DICT|INTERRES
   195   99  100 1    
   196   99  220 1    
   197  100  101 1    
   198  100  102 1    
   199  100  221 1    
   200  101  222 1    
   201  101  223 1    
   202  101  224 1    
   203  102  103 2    
   204  102  104 am   BACKBONE|DICT|INTERRES
   205  104  105 1    
   206  104  225 1    
   207  105  106 1    
   208  105  107 1    
   209  105  226 1    
   210  106  227 1    
   211  106  228 1    
   212  106  229 1    
   213  107  108 2    
   214  107  109 am   BACKBONE|DICT|INTERRES
   215  109  110 1    
   216  109  230 1    
   217  110  111 1    
   218  110  112 1    
   219  110  231 1    
   220  111  232 1    
   221  111  233 1    
   222  111  234 1    
   223  112  113 2    
   224  112  114 am   BACKBONE|DICT|INTERRES
   225  114  115 1    
   226  114  235 1    
   227  115  116 1    
   228  115  117 1    
   229  115  236 1    
   230  116  237 1    
   231  116  238 1    
   232  116  239 1    
   233  117  118 2    
   234  117  119 am   BACKBONE|DICT|INTERRES
   235  119  120 1    
   236  119  240 1    
   237  120  121 1    
   238  120  124 1    
   239  120  241 1    
   240  121  122 am   BACKBONE|DICT|INTERRES
   241  121  123 2    
   242  122  242 1    
   243  122  243 1    
   244  124  125 1    
   245  124  244 1    
   246  124  245 1    
   247  125  126 1    
   248  126  246 1    
   249  126  247 1    
@<TRIPOS>SUBSTRUCTURE
     1 UNK         1 GROUP             0       ****    0 ROOT    
