@<TRIPOS>MOLECULE
3R540
247   249    1
SMALL
USER_CHARGES


@<TRIPOS>ATOM
      1 CA         -2.8982   -9.2235  -49.4000 C.3       0 UNK        -0.1800 
      2 C          -1.5095   -9.8318  -49.5380 C.2       0 UNK         0.5000 
      3 O          -0.5163   -9.1046  -49.5076 O.2       0 UNK        -0.5000 
      4 N          -1.4374  -11.1591  -49.6966 N.am      1 UNK        -0.5000 
      5 CA         -0.1929  -11.9282  -49.7623 C.3       1 UNK         0.1400 
      6 C6         -0.4559  -13.3599  -50.2867 C.3       23 UNK        -0.0398 
      7 S7          1.0695  -14.2853  -50.6750 S.3       23 UNK        -0.2404 
      8 C8          0.4233  -15.5950  -51.7617 C.3       23 UNK        -0.0205 
      9 C9         -0.4079  -16.6138  -50.9960 C.ar      23 UNK        -0.0193 
     10 C10        -1.7858  -16.4331  -50.8544 C.ar      23 UNK        -0.1150 
     11 C11        -2.5622  -17.3736  -50.1716 C.ar      23 UNK        -0.0193 
     12 C12        -1.9439  -18.4995  -49.6195 C.ar      23 UNK        -0.1150 
     13 C13        -0.5661  -18.6939  -49.7535 C.ar      23 UNK        -0.0193 
     14 C14         0.1958  -17.7470  -50.4443 C.ar      23 UNK        -0.1150 
     15 C15         0.0999  -19.9421  -49.1933 C.3       23 UNK        -0.0205 
     16 S16         0.8982  -19.6506  -47.5807 S.3       23 UNK        -0.2404 
     17 C17        -0.4820  -19.8337  -46.3968 C.3       23 UNK        -0.0398 
     18 CA         -0.8546  -21.3156  -46.1498 C.3       11 UNK         0.1400 
     19 N           0.2889  -22.1543  -45.7732 N.am      11 UNK        -0.5000 
     20 C           0.3068  -23.4856  -45.9210 C.2       10 UNK         0.5000 
     21 O          -0.6562  -24.1332  -46.3234 O.2       10 UNK        -0.5000 
     22 CA          1.5971  -24.2170  -45.5187 C.3       10 UNK         0.1400 
     23 CB          2.7250  -23.9354  -46.5236 C.3       10 UNK        -0.1800 
     24 N           2.0324  -23.8497  -44.1738 N.am      10 UNK        -0.5000 
     25 C           1.3573  -24.1396  -43.0524 C.2       9 UNK         0.5000 
     26 O           0.3247  -24.8090  -43.0260 O.2       9 UNK        -0.5000 
     27 CA          1.9125  -23.5501  -41.7424 C.3       9 UNK         0.1400 
     28 CB          2.8884  -24.5339  -41.0800 C.3       9 UNK        -0.1800 
     29 N           2.5753  -22.2531  -41.9134 N.am      9 UNK        -0.5000 
     30 C           1.9750  -21.1417  -42.3585 C.2       8 UNK         0.5000 
     31 O           0.8011  -21.0973  -42.7324 O.2       8 UNK        -0.5000 
     32 CA          2.8333  -19.8690  -42.4160 C.3       8 UNK         0.1400 
     33 CB          3.0044  -19.3934  -43.8671 C.3       8 UNK        -0.1800 
     34 N           2.2140  -18.8079  -41.6274 N.am      8 UNK        -0.5000 
     35 C           2.1871  -18.7655  -40.2891 C.2       7 UNK         0.5000 
     36 O           2.7544  -19.5974  -39.5778 O.2       7 UNK        -0.5000 
     37 CA          1.4256  -17.5839  -39.6462 C.3       7 UNK         0.1400 
     38 CB          1.5804  -17.5381  -38.1148 C.3       7 UNK        -0.1800 
     39 N           1.8484  -16.2941  -40.1985 N.am      7 UNK        -0.5000 
     40 C           1.4221  -15.7794  -41.3570 C.2       6 UNK         0.5000 
     41 O           0.6045  -16.3461  -42.0847 O.2       6 UNK        -0.5000 
     42 CA          2.0708  -14.4527  -41.7937 C.3       6 UNK         0.1400 
     43 CB          3.4306  -14.7253  -42.4566 C.3       6 UNK        -0.1800 
     44 N           1.2293  -13.7179  -42.7354 N.am      6 UNK        -0.5000 
     45 C           0.0742  -13.1145  -42.4260 C.2       5 UNK         0.5000 
     46 O          -0.3531  -12.9998  -41.2760 O.2       5 UNK        -0.5000 
     47 CA         -0.7500  -12.5604  -43.6034 C.3       5 UNK         0.1400 
     48 CB         -0.2308  -11.1806  -44.0360 C.3       5 UNK        -0.1800 
     49 N          -0.7488  -13.4620  -44.7555 N.am      5 UNK        -0.5000 
     50 C          -1.3598  -14.6556  -44.7930 C.2       4 UNK         0.5000 
     51 O          -2.0684  -15.0915  -43.8853 O.2       4 UNK        -0.5000 
     52 CA         -1.1551  -15.5000  -46.0630 C.3       4 UNK         0.1400 
     53 CB         -2.2089  -15.1446  -47.1211 C.3       4 UNK        -0.1800 
     54 N           0.1823  -15.3198  -46.6275 N.am      4 UNK        -0.5000 
     55 C           1.2775  -15.9465  -46.1746 C.2       3 UNK         0.5000 
     56 O           1.2616  -16.7878  -45.2787 O.2       3 UNK        -0.5000 
     57 CA          2.6252  -15.5540  -46.8102 C.3       3 UNK         0.1400 
     58 CB          2.9646  -16.4816  -47.9852 C.3       3 UNK        -0.1800 
     59 N           2.6589  -14.1655  -47.2708 N.am      3 UNK        -0.5000 
     60 C           2.6644  -13.0997  -46.4582 C.2       2 UNK         0.5000 
     61 O           2.6549  -13.1767  -45.2310 O.2       2 UNK        -0.5000 
     62 CA          2.6195  -11.7151  -47.1306 C.3       2 UNK         0.1400 
     63 CB          4.0380  -11.2303  -47.4638 C.3       2 UNK        -0.1800 
     64 N           1.7997  -11.6909  -48.3444 N.am      2 UNK        -0.5000 
     65 C           0.4867  -11.9542  -48.3783 C.2       1 UNK         0.5000 
     66 O          -0.1750  -12.2556  -47.3822 O.2       1 UNK        -0.5000 
     67 C          -2.0369  -21.4691  -45.1703 C.2       11 UNK         0.5000 
     68 O          -3.1856  -21.3236  -45.5879 O.2       11 UNK        -0.5000 
     69 N          -1.7567  -21.8305  -43.9100 N.am      12 UNK        -0.5000 
     70 CA         -2.7630  -22.2344  -42.9259 C.3       12 UNK         0.1400 
     71 CB         -2.1019  -22.3766  -41.5472 C.3       12 UNK        -0.1800 
     72 C          -3.4964  -23.5357  -43.3150 C.2       12 UNK         0.5000 
     73 O          -4.6804  -23.6784  -43.0061 O.2       12 UNK        -0.5000 
     74 N          -2.8062  -24.4448  -44.0188 N.am      13 UNK        -0.5000 
     75 CA         -3.3512  -25.6898  -44.5592 C.3       13 UNK         0.1400 
     76 CB         -2.2189  -26.7237  -44.6946 C.3       13 UNK        -0.1800 
     77 C          -4.0969  -25.4370  -45.8857 C.2       13 UNK         0.5000 
     78 O          -3.6560  -25.8809  -46.9486 O.2       13 UNK        -0.5000 
     79 N          -5.2165  -24.7051  -45.7892 N.am      14 UNK        -0.5000 
     80 CA         -6.1662  -24.3814  -46.8605 C.3       14 UNK         0.1400 
     81 CB         -6.9444  -25.6462  -47.2800 C.3       14 UNK        -0.1800 
     82 C          -5.5077  -23.6651  -48.0570 C.2       14 UNK         0.5000 
     83 O          -5.6997  -24.0703  -49.2056 O.2       14 UNK        -0.5000 
     84 N          -4.7046  -22.6324  -47.7602 N.am      15 UNK        -0.5000 
     85 CA         -3.9346  -21.8311  -48.7173 C.3       15 UNK         0.1400 
     86 CB         -4.8731  -20.9915  -49.6072 C.3       15 UNK        -0.1800 
     87 C          -2.9135  -22.6658  -49.5171 C.2       15 UNK         0.5000 
     88 O          -2.7068  -22.4109  -50.7027 O.2       15 UNK        -0.5000 
     89 N          -2.3169  -23.6678  -48.8532 N.am      16 UNK        -0.5000 
     90 CA         -1.4149  -24.6816  -49.4086 C.3       16 UNK         0.1400 
     91 CB         -0.0676  -24.0495  -49.8166 C.3       16 UNK        -0.1800 
     92 C          -2.0954  -25.4938  -50.5295 C.2       16 UNK         0.5000 
     93 O          -1.5133  -25.6968  -51.5960 O.2       16 UNK        -0.5000 
     94 N          -3.3438  -25.9051  -50.2565 N.am      17 UNK        -0.5000 
     95 CA         -4.3009  -26.5255  -51.1780 C.3       17 UNK         0.1400 
     96 CB         -3.8235  -27.9271  -51.6124 C.3       17 UNK        -0.1800 
     97 C          -4.6473  -25.5970  -52.3631 C.2       17 UNK         0.5000 
     98 O          -4.6218  -26.0273  -53.5179 O.2       17 UNK        -0.5000 
     99 N          -4.9582  -24.3332  -52.0355 N.am      18 UNK        -0.5000 
    100 CA        -5.2797  -23.2231  -52.9399 C.3       18 UNK         0.1400 
    101 CB        -6.6708  -23.4319  -53.5722 C.3       18 UNK        -0.1800 
    102 C         -4.1759  -22.9499  -53.9837 C.2       18 UNK         0.5000 
    103 O         -4.4601  -22.8751  -55.1821 O.2       18 UNK        -0.5000 
    104 N         -2.9311  -22.8113  -53.5061 N.am      19 UNK        -0.5000 
    105 CA        -1.7297  -22.5641  -54.3047 C.3       19 UNK         0.1400 
    106 CB        -0.5035  -22.5039  -53.3832 C.3       19 UNK        -0.1800 
    107 C         -1.8530  -21.2822  -55.1459 C.2       19 UNK         0.5000 
    108 O         -1.9526  -20.1881  -54.5851 O.2       19 UNK        -0.5000 
    109 N         -1.9189  -21.4612  -56.4742 N.am      20 UNK        -0.5000 
    110 CA        -2.1461  -20.4350  -57.5014 C.3       20 UNK         0.1400 
    111 CB        -0.9103  -19.5187  -57.6189 C.3       20 UNK        -0.1800 
    112 C         -3.4524  -19.6316  -57.3015 C.2       20 UNK         0.5000 
    113 O         -3.5387  -18.4877  -57.7519 O.2       20 UNK        -0.5000 
    114 N         -4.4243  -20.2186  -56.5822 N.am      21 UNK        -0.5000 
    115 CA        -5.6641  -19.6005  -56.0976 C.3       21 UNK         0.1400 
    116 CB        -6.6480  -19.3889  -57.2665 C.3       21 UNK        -0.1800 
    117 C         -5.4223  -18.3138  -55.2716 C.2       21 UNK         0.5000 
    118 O         -6.2326  -17.3878  -55.3328 O.2       21 UNK        -0.5000 
    119 N         -4.2946  -18.2724  -54.5446 N.am      22 UNK        -0.5000 
    120 CA        -3.7590  -17.1097  -53.8129 C.3       22 UNK         0.1400 
    121 C         -3.2118  -15.9645  -54.7210 C.2       22 UNK         0.5000 
    122 N         -3.0712  -16.1443  -56.0295 N.am      22 UNK        -0.7600 
    123 O         -2.8688  -14.8941  -54.2262 O.2       22 UNK        -0.5000 
    124 C124       -4.7083  -16.5772  -52.6992 C.3       23 UNK        -0.0398 
    125 S125       -5.0282  -17.8141  -51.3971 S.3       23 UNK        -0.2404 
    126 C126       -4.0599  -17.1568  -49.9991 C.3       23 UNK        -0.0205 
    127 H127       -3.0708   -8.4974  -50.1945 H         1 UNK         0.0600 
    128 H128       -2.9892   -8.7110  -48.4423 H         1 UNK         0.0600 
    129 H129       -3.6804   -9.9809  -49.4557 H         1 UNK         0.0600 
    130 H130       -2.2891  -11.7010  -49.6816 H         1 UNK         0.3000 
    131 H131        0.4680  -11.4232  -50.4706 H         1 UNK         0.0600 
    132 H132       -1.0472  -13.9347  -49.5732 H         1 UNK         0.0800 
    133 H133       -1.0518  -13.3030  -51.1989 H         1 UNK         0.0800 
    134 H134        1.2643  -16.0956  -52.2438 H         1 UNK         0.0800 
    135 H135       -0.1653  -15.1525  -52.5673 H         1 UNK         0.0800 
    136 H136       -2.2508  -15.5549  -51.2769 H         1 UNK         0.1150 
    137 H137       -2.5379  -19.2249  -49.0872 H         1 UNK         0.1150 
    138 H138        1.2605  -17.8959  -50.5560 H         1 UNK         0.1150 
    139 H139       -0.6148  -20.7612  -49.1229 H         1 UNK         0.0800 
    140 H140        0.8629  -20.2813  -49.8954 H         1 UNK         0.0800 
    141 H141       -1.3408  -19.2722  -46.7680 H         1 UNK         0.0800 
    142 H142       -0.1872  -19.3552  -45.4610 H         1 UNK         0.0800 
    143 H143       -1.2175  -21.7023  -47.1020 H         1 UNK         0.0600 
    144 H144        1.1000  -21.6798  -45.4063 H         1 UNK         0.3000 
    145 H145        1.3909  -25.2896  -45.5295 H         1 UNK         0.0600 
    146 H146        2.9971  -22.8794  -46.5458 H         1 UNK         0.0600 
    147 H147        3.6206  -24.5071  -46.2798 H         1 UNK         0.0600 
    148 H148        2.4261  -24.2184  -47.5337 H         1 UNK         0.0600 
    149 H149        2.8732  -23.2973  -44.0973 H         1 UNK         0.3000 
    150 H150        1.0681  -23.4020  -41.0663 H         1 UNK         0.0600 
    151 H151        2.4154  -25.5036  -40.9181 H         1 UNK         0.0600 
    152 H152        3.2176  -24.1687  -40.1070 H         1 UNK         0.0600 
    153 H153        3.7738  -24.6991  -41.6951 H         1 UNK         0.0600 
    154 H154        3.5397  -22.2017  -41.6178 H         1 UNK         0.3000 
    155 H155        3.8238  -20.0767  -42.0056 H         1 UNK         0.0600 
    156 H156        3.5087  -20.1488  -44.4706 H         1 UNK         0.0600 
    157 H157        3.6012  -18.4825  -43.9180 H         1 UNK         0.0600 
    158 H158        2.0432  -19.1865  -44.3385 H         1 UNK         0.0600 
    159 H159        1.6850  -18.1071  -42.1358 H         1 UNK         0.3000 
    160 H160        0.3659  -17.7338  -39.8634 H         1 UNK         0.0600 
    161 H161        0.9998  -16.7219  -37.6844 H         1 UNK         0.0600 
    162 H162        2.6212  -17.4024  -37.8186 H         1 UNK         0.0600 
    163 H163        1.2247  -18.4620  -37.6567 H         1 UNK         0.0600 
    164 H164        2.5558  -15.7987  -39.6748 H         1 UNK         0.3000 
    165 H165        2.2262  -13.8301  -40.9102 H         1 UNK         0.0600 
    166 H166        3.3224  -15.3403  -43.3515 H         1 UNK         0.0600 
    167 H167        3.9210  -13.7961  -42.7473 H         1 UNK         0.0600 
    168 H168        4.1045  -15.2490  -41.7776 H         1 UNK         0.0600 
    169 H169        1.5273  -13.7308  -43.7054 H         1 UNK         0.3000 
    170 H170       -1.7819  -12.4441  -43.2657 H         1 UNK         0.0600 
    171 H171        0.8040  -11.2281  -44.3754 H         1 UNK         0.0600 
    172 H172       -0.8306  -10.7696  -44.8484 H         1 UNK         0.0600 
    173 H173       -0.2722  -10.4719  -43.2081 H         1 UNK         0.0600 
    174 H174       -0.2626  -13.1406  -45.5856 H         1 UNK         0.3000 
    175 H175       -1.2870  -16.5512  -45.7966 H         1 UNK         0.0600 
    176 H176       -2.1825  -14.0867  -47.3830 H         1 UNK         0.0600 
    177 H177       -2.0546  -15.7209  -48.0307 H         1 UNK         0.0600 
    178 H178       -3.2134  -15.3674  -46.7598 H         1 UNK         0.0600 
    179 H179        0.2858  -14.6119  -47.3391 H         1 UNK         0.3000 
    180 H180        3.3976  -15.6765  -46.0478 H         1 UNK         0.0600 
    181 H181        2.2065  -16.4323  -48.7666 H         1 UNK         0.0600 
    182 H182        3.0287  -17.5184  -47.6543 H         1 UNK         0.0600 
    183 H183        3.9256  -16.2242  -48.4304 H         1 UNK         0.0600 
    184 H184        2.6500  -14.0152  -48.2694 H         1 UNK         0.3000 
    185 H185        2.1789  -11.0153  -46.4179 H         1 UNK         0.0600 
    186 H186        4.0250  -10.2154  -47.8617 H         1 UNK         0.0600 
    187 H187        4.6661  -11.2201  -46.5719 H         1 UNK         0.0600 
    188 H188        4.5224  -11.8741  -48.1991 H         1 UNK         0.0600 
    189 H189        2.2762  -11.4595  -49.2043 H         1 UNK         0.3000 
    190 H190       -0.7871  -21.8474  -43.6070 H         1 UNK         0.3000 
    191 H191       -3.5093  -21.4397  -42.8646 H         1 UNK         0.0600 
    192 H192       -1.3490  -23.1645  -41.5430 H         1 UNK         0.0600 
    193 H193       -1.6181  -21.4482  -41.2428 H         1 UNK         0.0600 
    194 H194       -2.8405  -22.6247  -40.7841 H         1 UNK         0.0600 
    195 H195       -1.8450  -24.2433  -44.2630 H         1 UNK         0.3000 
    196 H196       -4.0759  -26.0972  -43.8511 H         1 UNK         0.0600 
    197 H197       -1.7315  -26.9006  -43.7357 H         1 UNK         0.0600 
    198 H198       -1.4539  -26.4045  -45.4015 H         1 UNK         0.0600 
    199 H199       -2.6068  -27.6809  -45.0446 H         1 UNK         0.0600 
    200 H200       -5.4467  -24.3418  -44.8705 H         1 UNK         0.3000 
    201 H201       -6.8834  -23.6760  -46.4387 H         1 UNK         0.0600 
    202 H202       -7.7243  -25.4041  -48.0030 H         1 UNK         0.0600 
    203 H203       -7.4313  -26.1117  -46.4231 H         1 UNK         0.0600 
    204 H204       -6.2921  -26.3897  -47.7395 H         1 UNK         0.0600 
    205 H205       -4.5620  -22.3840  -46.7871 H         1 UNK         0.3000 
    206 H206       -3.3419  -21.1295  -48.1342 H         1 UNK         0.0600 
    207 H207       -5.5866  -21.6070  -50.1521 H         1 UNK         0.0600 
    208 H208       -4.3093  -20.4193  -50.3433 H         1 UNK         0.0600 
    209 H209       -5.4410  -20.2779  -49.0106 H         1 UNK         0.0600 
    210 H210       -2.5647  -23.8203  -47.8842 H         1 UNK         0.3000 
    211 H211       -1.2144  -25.3931  -48.6065 H         1 UNK         0.0600 
    212 H212        0.4056  -23.5561  -48.9686 H         1 UNK         0.0600 
    213 H213        0.6274  -24.8059  -50.1820 H         1 UNK         0.0600 
    214 H214       -0.1878  -23.3043  -50.6006 H         1 UNK         0.0600 
    215 H215       -3.7154  -25.6734  -49.3429 H         1 UNK         0.3000 
    216 H216       -5.2252  -26.6552  -50.6130 H         1 UNK         0.0600 
    217 H217       -4.5920  -28.4357  -52.1954 H         1 UNK         0.0600 
    218 H218       -2.9255  -27.8798  -52.2288 H         1 UNK         0.0600 
    219 H219       -3.6046  -28.5538  -50.7479 H         1 UNK         0.0600 
    220 H220       -4.9882  -24.1092  -51.0448 H         1 UNK         0.3000 
    221 H221       -5.3333  -22.3260  -52.3240 H         1 UNK         0.0600 
    222 H222       -6.6912  -24.3038  -54.2267 H         1 UNK         0.0600 
    223 H223       -7.4338  -23.5698  -52.8060 H         1 UNK         0.0600 
    224 H224       -6.9636  -22.5673  -54.1688 H         1 UNK         0.0600 
    225 H225       -2.8014  -22.8180  -52.4958 H         1 UNK         0.3000 
    226 H226       -1.6015  -23.4160  -54.9754 H         1 UNK         0.0600 
    227 H227       -0.3351  -23.4670  -52.9026 H         1 UNK         0.0600 
    228 H228        0.3994  -22.2606  -53.9446 H         1 UNK         0.0600 
    229 H229       -0.6215  -21.7496  -52.6038 H         1 UNK         0.0600 
    230 H230       -1.8759  -22.4089  -56.8230 H         1 UNK         0.3000 
    231 H231       -2.2594  -20.9653  -58.4478 H         1 UNK         0.0600 
    232 H232       -0.9996  -18.8448  -58.4717 H         1 UNK         0.0600 
    233 H233        0.0002  -20.1004  -57.7626 H         1 UNK         0.0600 
    234 H234       -0.7782  -18.9030  -56.7285 H         1 UNK         0.0600 
    235 H235       -4.2591  -21.1628  -56.2457 H         1 UNK         0.3000 
    236 H236       -6.1146  -20.3190  -55.4115 H         1 UNK         0.0600 
    237 H237       -6.8099  -20.3154  -57.8172 H         1 UNK         0.0600 
    238 H238       -7.6210  -19.0543  -56.9050 H         1 UNK         0.0600 
    239 H239       -6.2841  -18.6394  -57.9700 H         1 UNK         0.0600 
    240 H240       -3.6637  -19.0666  -54.5843 H         1 UNK         0.3000 
    241 H241       -2.8669  -17.4913  -53.3156 H         1 UNK         0.0600 
    242 H242       -2.7036  -15.3912  -56.5883 H         1 UNK         0.3800 
    243 H243       -3.3316  -17.0152  -56.4813 H         1 UNK         0.3800 
    244 H244       -4.3039  -15.6802  -52.2314 H         1 UNK         0.0800 
    245 H245       -5.6642  -16.2647  -53.1185 H         1 UNK         0.0800 
    246 H246       -4.3972  -17.6481  -49.0852 H         1 UNK         0.0800 
    247 H247       -4.2757  -16.0960  -49.8627 H         1 UNK         0.0800 
@<TRIPOS>BOND
     1    1    2 1    
     2    1  127 1    
     3    1  128 1    
     4    1  129 1    
     5    2    3 2    
     6    2    4 am   BACKBONE|DICT|INTERRES
     7    4    5 1    
     8    4  130 1    
     9    5    6 1    
    10    5   65 1    
    11    5  131 1    
    12    6    7 1    
    13    6  132 1    
    14    6  133 1    
    15    7    8 1    
    16    8    9 1    
    17    8  134 1    
    18    8  135 1    
    19    9   10 ar   
    20    9   14 ar   
    21   10   11 ar   
    22   10  136 1    
    23   11   12 ar   
    24   11  126 1    
    25   12   13 ar   
    26   12  137 1    
    27   13   14 ar   
    28   13   15 1    
    29   14  138 1    
    30   15   16 1    
    31   15  139 1    
    32   15  140 1    
    33   16   17 1    
    34   17   18 1    
    35   17  141 1    
    36   17  142 1    
    37   18   19 1    
    38   18   67 1    
    39   18  143 1    
    40   19   20 am   BACKBONE|DICT|INTERRES
    41   19  144 1    
    42   20   21 2    
    43   20   22 1    
    44   22   23 1    
    45   22   24 1    
    46   22  145 1    
    47   23  146 1    
    48   23  147 1    
    49   23  148 1    
    50   24   25 am   BACKBONE|DICT|INTERRES
    51   24  149 1    
    52   25   26 2    
    53   25   27 1    
    54   27   28 1    
    55   27   29 1    
    56   27  150 1    
    57   28  151 1    
    58   28  152 1    
    59   28  153 1    
    60   29   30 am   BACKBONE|DICT|INTERRES
    61   29  154 1    
    62   30   31 2    
    63   30   32 1    
    64   32   33 1    
    65   32   34 1    
    66   32  155 1    
    67   33  156 1    
    68   33  157 1    
    69   33  158 1    
    70   34   35 am   BACKBONE|DICT|INTERRES
    71   34  159 1    
    72   35   36 2    
    73   35   37 1    
    74   37   38 1    
    75   37   39 1    
    76   37  160 1    
    77   38  161 1    
    78   38  162 1    
    79   38  163 1    
    80   39   40 am   BACKBONE|DICT|INTERRES
    81   39  164 1    
    82   40   41 2    
    83   40   42 1    
    84   42   43 1    
    85   42   44 1    
    86   42  165 1    
    87   43  166 1    
    88   43  167 1    
    89   43  168 1    
    90   44   45 am   BACKBONE|DICT|INTERRES
    91   44  169 1    
    92   45   46 2    
    93   45   47 1    
    94   47   48 1    
    95   47   49 1    
    96   47  170 1    
    97   48  171 1    
    98   48  172 1    
    99   48  173 1    
   100   49   50 am   BACKBONE|DICT|INTERRES
   101   49  174 1    
   102   50   51 2    
   103   50   52 1    
   104   52   53 1    
   105   52   54 1    
   106   52  175 1    
   107   53  176 1    
   108   53  177 1    
   109   53  178 1    
   110   54   55 am   BACKBONE|DICT|INTERRES
   111   54  179 1    
   112   55   56 2    
   113   55   57 1    
   114   57   58 1    
   115   57   59 1    
   116   57  180 1    
   117   58  181 1    
   118   58  182 1    
   119   58  183 1    
   120   59   60 am   BACKBONE|DICT|INTERRES
   121   59  184 1    
   122   60   61 2    
   123   60   62 1    
   124   62   63 1    
   125   62   64 1    
   126   62  185 1    
   127   63  186 1    
   128   63  187 1    
   129   63  188 1    
   130   64   65 am   BACKBONE|DICT|INTERRES
   131   64  189 1    
   132   65   66 2    
   133   67   68 2    
   134   67   69 am   BACKBONE|DICT|INTERRES
   135   69   70 1    
   136   69  190 1    
   137   70   71 1    
   138   70   72 1    
   139   70  191 1    
   140   71  192 1    
   141   71  193 1    
   142   71  194 1    
   143   72   73 2    
   144   72   74 am   BACKBONE|DICT|INTERRES
   145   74   75 1    
   146   74  195 1    
   147   75   76 1    
   148   75   77 1    
   149   75  196 1    
   150   76  197 1    
   151   76  198 1    
   152   76  199 1    
   153   77   78 2    
   154   77   79 am   BACKBONE|DICT|INTERRES
   155   79   80 1    
   156   79  200 1    
   157   80   81 1    
   158   80   82 1    
   159   80  201 1    
   160   81  202 1    
   161   81  203 1    
   162   81  204 1    
   163   82   83 2    
   164   82   84 am   BACKBONE|DICT|INTERRES
   165   84   85 1    
   166   84  205 1    
   167   85   86 1    
   168   85   87 1    
   169   85  206 1    
   170   86  207 1    
   171   86  208 1    
   172   86  209 1    
   173   87   88 2    
   174   87   89 am   BACKBONE|DICT|INTERRES
   175   89   90 1    
   176   89  210 1    
   177   90   91 1    
   178   90   92 1    
   179   90  211 1    
   180   91  212 1    
   181   91  213 1    
   182   91  214 1    
   183   92   93 2    
   184   92   94 am   BACKBONE|DICT|INTERRES
   185   94   95 1    
   186   94  215 1    
   187   95   96 1    
   188   95   97 1    
   189   95  216 1    
   190   96  217 1    
   191   96  218 1    
   192   96  219 1    
   193   97   98 2    
   194   97   99 am   BACKBONE|DICT|INTERRES
   195   99  100 1    
   196   99  220 1    
   197  100  101 1    
   198  100  102 1    
   199  100  221 1    
   200  101  222 1    
   201  101  223 1    
   202  101  224 1    
   203  102  103 2    
   204  102  104 am   BACKBONE|DICT|INTERRES
   205  104  105 1    
   206  104  225 1    
   207  105  106 1    
   208  105  107 1    
   209  105  226 1    
   210  106  227 1    
   211  106  228 1    
   212  106  229 1    
   213  107  108 2    
   214  107  109 am   BACKBONE|DICT|INTERRES
   215  109  110 1    
   216  109  230 1    
   217  110  111 1    
   218  110  112 1    
   219  110  231 1    
   220  111  232 1    
   221  111  233 1    
   222  111  234 1    
   223  112  113 2    
   224  112  114 am   BACKBONE|DICT|INTERRES
   225  114  115 1    
   226  114  235 1    
   227  115  116 1    
   228  115  117 1    
   229  115  236 1    
   230  116  237 1    
   231  116  238 1    
   232  116  239 1    
   233  117  118 2    
   234  117  119 am   BACKBONE|DICT|INTERRES
   235  119  120 1    
   236  119  240 1    
   237  120  121 1    
   238  120  124 1    
   239  120  241 1    
   240  121  122 am   BACKBONE|DICT|INTERRES
   241  121  123 2    
   242  122  242 1    
   243  122  243 1    
   244  124  125 1    
   245  124  244 1    
   246  124  245 1    
   247  125  126 1    
   248  126  246 1    
   249  126  247 1    
@<TRIPOS>SUBSTRUCTURE
     1 UNK         1 GROUP             0       ****    0 ROOT    
