@<TRIPOS>MOLECULE
3R540
247   249    1
SMALL
USER_CHARGES


@<TRIPOS>ATOM
      1 CA          6.8605  -13.4515  -48.8384 C.3       0 UNK        -0.1800 
      2 C           5.8271  -13.7038  -49.9272 C.2       0 UNK         0.5000 
      3 O           5.6522  -12.8622  -50.8083 O.2       0 UNK        -0.5000 
      4 N           5.1465  -14.8564  -49.8634 N.am      1 UNK        -0.5000 
      5 CA          4.1096  -15.3118  -50.8017 C.3       1 UNK         0.1400 
      6 C6          4.6595  -15.6441  -52.2202 C.3       23 UNK        -0.0398 
      7 S7          5.6756  -17.1645  -52.1993 S.3       23 UNK        -0.2404 
      8 C8          4.4930  -18.4304  -52.7860 C.3       23 UNK        -0.0205 
      9 C9          3.1947  -18.4081  -51.9912 C.ar      23 UNK        -0.0193 
     10 C10         2.0484  -17.8267  -52.5417 C.ar      23 UNK        -0.1150 
     11 C11         0.8898  -17.6792  -51.7774 C.ar      23 UNK        -0.0193 
     12 C12         0.8818  -18.1452  -50.4607 C.ar      23 UNK        -0.1150 
     13 C13         2.0050  -18.7633  -49.9014 C.ar      23 UNK        -0.0193 
     14 C14         3.1610  -18.8978  -50.6815 C.ar      23 UNK        -0.1150 
     15 C15         1.9183  -19.2098  -48.4423 C.3       23 UNK        -0.0205 
     16 S16         3.2738  -20.2589  -47.8186 S.3       23 UNK        -0.2404 
     17 C17         2.6923  -20.5639  -46.1122 C.3       23 UNK        -0.0398 
     18 CA          2.1501  -22.0006  -45.8988 C.3       11 UNK         0.1400 
     19 N           2.2862  -22.4290  -44.5044 N.am      11 UNK        -0.5000 
     20 C           2.2397  -23.7042  -44.0922 C.2       10 UNK         0.5000 
     21 O           2.0833  -24.6628  -44.8487 O.2       10 UNK        -0.5000 
     22 CA          2.3392  -23.9323  -42.5726 C.3       10 UNK         0.1400 
     23 CB          3.8071  -23.9624  -42.1222 C.3       10 UNK        -0.1800 
     24 N           1.6206  -22.9066  -41.8137 N.am      10 UNK        -0.5000 
     25 C           0.2913  -22.7537  -41.8110 C.2       9 UNK         0.5000 
     26 O          -0.4743  -23.5041  -42.4143 O.2       9 UNK        -0.5000 
     27 CA         -0.2824  -21.5388  -41.0606 C.3       9 UNK         0.1400 
     28 CB         -0.3814  -21.8010  -39.5467 C.3       9 UNK        -0.1800 
     29 N           0.4079  -20.2766  -41.3520 N.am      9 UNK        -0.5000 
     30 C           1.6398  -19.8729  -41.0076 C.2       8 UNK         0.5000 
     31 O           2.4516  -20.5728  -40.4015 O.2       8 UNK        -0.5000 
     32 CA          2.0338  -18.4460  -41.4297 C.3       8 UNK         0.1400 
     33 CB          2.6859  -18.4573  -42.8211 C.3       8 UNK        -0.1800 
     34 N           0.8774  -17.5478  -41.4436 N.am      8 UNK        -0.5000 
     35 C           0.3774  -16.9394  -40.3580 C.2       7 UNK         0.5000 
     36 O           0.8983  -16.9925  -39.2433 O.2       7 UNK        -0.5000 
     37 CA         -0.9350  -16.1517  -40.5432 C.3       7 UNK         0.1400 
     38 CB         -0.6402  -14.6976  -40.9407 C.3       7 UNK        -0.1800 
     39 N          -1.8174  -16.7595  -41.5415 N.am      7 UNK        -0.5000 
     40 C          -2.4858  -17.9094  -41.3552 C.2       6 UNK         0.5000 
     41 O          -2.4942  -18.5255  -40.2897 O.2       6 UNK        -0.5000 
     42 CA         -3.2456  -18.4977  -42.5630 C.3       6 UNK         0.1400 
     43 CB         -4.7368  -18.1381  -42.4935 C.3       6 UNK        -0.1800 
     44 N          -2.7171  -18.0687  -43.8587 N.am      6 UNK        -0.5000 
     45 C          -1.4769  -18.2992  -44.3094 C.2       5 UNK         0.5000 
     46 O          -0.6524  -18.9877  -43.7079 O.2       5 UNK        -0.5000 
     47 CA         -1.0703  -17.6107  -45.6241 C.3       5 UNK         0.1400 
     48 CB         -1.0997  -18.6127  -46.7817 C.3       5 UNK        -0.1800 
     49 N          -1.8921  -16.4533  -45.9831 N.am      5 UNK        -0.5000 
     50 C          -2.0135  -15.3178  -45.2841 C.2       4 UNK         0.5000 
     51 O          -1.4956  -15.1524  -44.1781 O.2       4 UNK        -0.5000 
     52 CA         -2.8618  -14.1973  -45.9296 C.3       4 UNK         0.1400 
     53 CB         -2.7111  -12.8521  -45.1972 C.3       4 UNK        -0.1800 
     54 N          -2.5502  -13.9954  -47.3481 N.am      4 UNK        -0.5000 
     55 C          -2.9333  -14.7815  -48.3640 C.2       3 UNK         0.5000 
     56 O          -3.6352  -15.7824  -48.2141 O.2       3 UNK        -0.5000 
     57 CA         -2.4114  -14.4192  -49.7683 C.3       3 UNK         0.1400 
     58 CB         -3.4577  -13.5972  -50.5346 C.3       3 UNK        -0.1800 
     59 N          -1.1447  -13.6789  -49.7523 N.am      3 UNK        -0.5000 
     60 C           0.0272  -14.1788  -49.3387 C.2       2 UNK         0.5000 
     61 O           0.1699  -15.3248  -48.9078 O.2       2 UNK        -0.5000 
     62 CA          1.2267  -13.2146  -49.3638 C.3       2 UNK         0.1400 
     63 CB          1.3403  -12.4717  -48.0233 C.3       2 UNK        -0.1800 
     64 N           2.4712  -13.9394  -49.6080 N.am      2 UNK        -0.5000 
     65 C           2.8640  -14.3949  -50.8053 C.2       1 UNK         0.5000 
     66 O           2.2804  -14.1264  -51.8572 O.2       1 UNK        -0.5000 
     67 C           0.7027  -22.1567  -46.4154 C.2       11 UNK         0.5000 
     68 O           0.5141  -22.3273  -47.6176 O.2       11 UNK        -0.5000 
     69 N          -0.2987  -22.1327  -45.5194 N.am      12 UNK        -0.5000 
     70 CA         -1.7166  -22.2891  -45.8657 C.3       12 UNK         0.1400 
     71 CB         -2.5968  -22.0424  -44.6332 C.3       12 UNK        -0.1800 
     72 C          -2.0426  -23.6568  -46.4915 C.2       12 UNK         0.5000 
     73 O          -2.9172  -23.7307  -47.3541 O.2       12 UNK        -0.5000 
     74 N          -1.3119  -24.7023  -46.0801 N.am      13 UNK        -0.5000 
     75 CA         -1.3993  -26.0443  -46.6548 C.3       13 UNK         0.1400 
     76 CB         -0.6331  -27.0326  -45.7630 C.3       13 UNK        -0.1800 
     77 C          -0.8764  -26.0909  -48.1025 C.2       13 UNK         0.5000 
     78 O          -1.5085  -26.7116  -48.9573 O.2       13 UNK        -0.5000 
     79 N           0.2445  -25.4007  -48.3576 N.am      14 UNK        -0.5000 
     80 CA          0.8504  -25.2575  -49.6834 C.3       14 UNK         0.1400 
     81 CB          2.2793  -24.7110  -49.5353 C.3       14 UNK        -0.1800 
     82 C           0.0146  -24.3585  -50.6130 C.2       14 UNK         0.5000 
     83 O          -0.1035  -24.6507  -51.8030 O.2       14 UNK        -0.5000 
     84 N          -0.5732  -23.2997  -50.0416 N.am      15 UNK        -0.5000 
     85 CA         -1.4451  -22.3413  -50.7192 C.3       15 UNK         0.1400 
     86 CB         -1.5181  -21.0597  -49.8759 C.3       15 UNK        -0.1800 
     87 C          -2.8626  -22.8691  -51.0141 C.2       15 UNK         0.5000 
     88 O          -3.6195  -22.1711  -51.6855 O.2       15 UNK        -0.5000 
     89 N          -3.1990  -24.0641  -50.5065 N.am      16 UNK        -0.5000 
     90 CA         -4.4862  -24.7531  -50.6313 C.3       16 UNK         0.1400 
     91 CB         -4.7973  -25.0960  -52.1040 C.3       16 UNK        -0.1800 
     92 C          -5.6243  -23.9927  -49.9207 C.2       16 UNK         0.5000 
     93 O          -6.6378  -23.6621  -50.5371 O.2       16 UNK        -0.5000 
     94 N          -5.4168  -23.7518  -48.6191 N.am      17 UNK        -0.5000 
     95 CA         -6.3110  -23.0909  -47.6624 C.3       17 UNK         0.1400 
     96 CB         -7.7206  -23.7212  -47.6388 C.3       17 UNK        -0.1800 
     97 C          -6.3216  -21.5540  -47.7816 C.2       17 UNK         0.5000 
     98 O          -7.2923  -20.9202  -47.3632 O.2       17 UNK        -0.5000 
     99 N          -5.2113  -20.9884  -48.2808 N.am      18 UNK        -0.5000 
    100 CA        -4.9039  -19.5542  -48.3608 C.3       18 UNK         0.1400 
    101 CB        -4.8451  -18.9530  -46.9348 C.3       18 UNK        -0.1800 
    102 C         -5.8457  -18.7627  -49.2985 C.2       18 UNK         0.5000 
    103 O         -6.5816  -19.3526  -50.0932 O.2       18 UNK        -0.5000 
    104 N         -5.7858  -17.4273  -49.1987 N.am      19 UNK        -0.5000 
    105 CA        -6.5674  -16.4467  -49.9520 C.3       19 UNK         0.1400 
    106 CB        -8.0674  -16.5431  -49.5887 C.3       19 UNK        -0.1800 
    107 C         -6.2650  -16.5101  -51.4636 C.2       19 UNK         0.5000 
    108 O         -5.0949  -16.5521  -51.8445 O.2       19 UNK        -0.5000 
    109 N         -7.3090  -16.4927  -52.3011 N.am      20 UNK        -0.5000 
    110 CA        -7.2131  -16.4683  -53.7619 C.3       20 UNK         0.1400 
    111 CB        -8.5918  -16.1089  -54.3378 C.3       20 UNK        -0.1800 
    112 C         -6.6924  -17.7759  -54.3918 C.2       20 UNK         0.5000 
    113 O         -6.2984  -17.7566  -55.5589 O.2       20 UNK        -0.5000 
    114 N         -6.6947  -18.8823  -53.6331 N.am      21 UNK        -0.5000 
    115 CA        -6.3165  -20.2216  -54.0954 C.3       21 UNK         0.1400 
    116 CB        -6.6096  -21.2404  -52.9858 C.3       21 UNK        -0.1800 
    117 C         -4.8591  -20.3445  -54.5867 C.2       21 UNK         0.5000 
    118 O         -4.5906  -21.1750  -55.4564 O.2       21 UNK        -0.5000 
    119 N         -3.9631  -19.4997  -54.0614 N.am      22 UNK        -0.5000 
    120 CA        -2.5687  -19.3637  -54.5106 C.3       22 UNK         0.1400 
    121 C         -2.3444  -18.2365  -55.5626 C.2       22 UNK         0.5000 
    122 N         -3.3763  -17.5651  -56.0618 N.am      22 UNK        -0.7600 
    123 O         -1.2105  -17.9792  -55.9577 O.2       22 UNK        -0.5000 
    124 C124       -1.5866  -19.2849  -53.3149 C.3       23 UNK        -0.0398 
    125 S125       -1.8760  -17.8871  -52.1758 S.3       23 UNK        -0.2404 
    126 C126       -0.3213  -16.9525  -52.3538 C.3       23 UNK        -0.0205 
    127 H127        6.9126  -14.2772  -48.1283 H         1 UNK         0.0600 
    128 H128        6.6110  -12.5447  -48.2875 H         1 UNK         0.0600 
    129 H129        7.8479  -13.3219  -49.2815 H         1 UNK         0.0600 
    130 H130        5.3560  -15.5018  -49.1148 H         1 UNK         0.3000 
    131 H131        3.7352  -16.2378  -50.3685 H         1 UNK         0.0600 
    132 H132        3.8594  -15.7790  -52.9478 H         1 UNK         0.0800 
    133 H133        5.2624  -14.8216  -52.6055 H         1 UNK         0.0800 
    134 H134        4.2971  -18.2720  -53.8476 H         1 UNK         0.0800 
    135 H135        4.9541  -19.4156  -52.7034 H         1 UNK         0.0800 
    136 H136        2.0749  -17.4404  -53.5510 H         1 UNK         0.1150 
    137 H137       -0.0074  -18.0058  -49.8633 H         1 UNK         0.1150 
    138 H138        4.0573  -19.3342  -50.2662 H         1 UNK         0.1150 
    139 H139        1.8424  -18.3203  -47.8152 H         1 UNK         0.0800 
    140 H140        0.9941  -19.7689  -48.3178 H         1 UNK         0.0800 
    141 H141        1.9607  -19.8112  -45.8136 H         1 UNK         0.0800 
    142 H142        3.5581  -20.3992  -45.4692 H         1 UNK         0.0800 
    143 H143        2.7668  -22.6790  -46.4933 H         1 UNK         0.0600 
    144 H144        2.4096  -21.7061  -43.8117 H         1 UNK         0.3000 
    145 H145        1.8906  -24.9026  -42.3492 H         1 UNK         0.0600 
    146 H146        3.8876  -24.1939  -41.0599 H         1 UNK         0.0600 
    147 H147        4.3665  -24.7261  -42.6642 H         1 UNK         0.0600 
    148 H148        4.3027  -23.0061  -42.2946 H         1 UNK         0.0600 
    149 H149        2.1714  -22.2375  -41.2823 H         1 UNK         0.3000 
    150 H150       -1.2999  -21.3995  -41.4298 H         1 UNK         0.0600 
    151 H151       -0.9942  -22.6804  -39.3452 H         1 UNK         0.0600 
    152 H152       -0.8438  -20.9577  -39.0332 H         1 UNK         0.0600 
    153 H153        0.5951  -21.9755  -39.0944 H         1 UNK         0.0600 
    154 H154       -0.1123  -19.6506  -41.9585 H         1 UNK         0.3000 
    155 H155        2.7700  -18.0753  -40.7133 H         1 UNK         0.0600 
    156 H156        1.9989  -18.8143  -43.5876 H         1 UNK         0.0600 
    157 H157        3.5627  -19.1060  -42.8368 H         1 UNK         0.0600 
    158 H158        3.0163  -17.4590  -43.1082 H         1 UNK         0.0600 
    159 H159        0.3690  -17.4793  -42.3139 H         1 UNK         0.3000 
    160 H160       -1.4573  -16.1416  -39.5841 H         1 UNK         0.0600 
    161 H161       -0.0946  -14.6399  -41.8833 H         1 UNK         0.0600 
    162 H162       -0.0351  -14.2011  -40.1811 H         1 UNK         0.0600 
    163 H163       -1.5604  -14.1235  -41.0510 H         1 UNK         0.0600 
    164 H164       -1.8556  -16.3033  -42.4466 H         1 UNK         0.3000 
    165 H165       -3.1531  -19.5836  -42.5049 H         1 UNK         0.0600 
    166 H166       -5.2959  -18.6174  -43.2976 H         1 UNK         0.0600 
    167 H167       -5.1757  -18.4700  -41.5516 H         1 UNK         0.0600 
    168 H168       -4.8946  -17.0615  -42.5685 H         1 UNK         0.0600 
    169 H169       -3.3195  -17.4845  -44.4183 H         1 UNK         0.3000 
    170 H170       -0.0438  -17.2599  -45.5006 H         1 UNK         0.0600 
    171 H171       -0.4477  -19.4579  -46.5719 H         1 UNK         0.0600 
    172 H172       -2.0968  -19.0092  -46.9571 H         1 UNK         0.0600 
    173 H173       -0.7603  -18.1487  -47.7063 H         1 UNK         0.0600 
    174 H174       -2.3689  -16.4919  -46.8776 H         1 UNK         0.3000 
    175 H175       -3.9061  -14.5051  -45.8468 H         1 UNK         0.0600 
    176 H176       -1.6815  -12.4929  -45.2252 H         1 UNK         0.0600 
    177 H177       -3.3464  -12.0865  -45.6431 H         1 UNK         0.0600 
    178 H178       -3.0009  -12.9397  -44.1492 H         1 UNK         0.0600 
    179 H179       -1.9450  -13.2174  -47.5625 H         1 UNK         0.3000 
    180 H180       -2.2533  -15.3568  -50.3048 H         1 UNK         0.0600 
    181 H181       -3.6354  -12.6295  -50.0639 H         1 UNK         0.0600 
    182 H182       -4.4124  -14.1206  -50.5778 H         1 UNK         0.0600 
    183 H183       -3.1427  -13.4203  -51.5632 H         1 UNK         0.0600 
    184 H184       -1.1804  -12.7260  -50.0852 H         1 UNK         0.3000 
    185 H185        1.0810  -12.4811  -50.1597 H         1 UNK         0.0600 
    186 H186        0.4430  -11.8851  -47.8226 H         1 UNK         0.0600 
    187 H187        1.4739  -13.1623  -47.1894 H         1 UNK         0.0600 
    188 H188        2.1841  -11.7813  -48.0256 H         1 UNK         0.0600 
    189 H189        2.9890  -14.2287  -48.7917 H         1 UNK         0.3000 
    190 H190       -0.0794  -22.0239  -44.5406 H         1 UNK         0.3000 
    191 H191       -1.9597  -21.5229  -46.6021 H         1 UNK         0.0600 
    192 H192       -2.3377  -21.1085  -44.1400 H         1 UNK         0.0600 
    193 H193       -3.6485  -21.9806  -44.9160 H         1 UNK         0.0600 
    194 H194       -2.5050  -22.8446  -43.9014 H         1 UNK         0.0600 
    195 H195       -0.6112  -24.5531  -45.3674 H         1 UNK         0.3000 
    196 H196       -2.4502  -26.3414  -46.6682 H         1 UNK         0.0600 
    197 H197       -0.7033  -28.0476  -46.1560 H         1 UNK         0.0600 
    198 H198       -1.0394  -27.0469  -44.7514 H         1 UNK         0.0600 
    199 H199        0.4255  -26.7791  -45.6948 H         1 UNK         0.0600 
    200 H200        0.6774  -24.8864  -47.6042 H         1 UNK         0.3000 
    201 H201        0.9105  -26.2476  -50.1403 H         1 UNK         0.0600 
    202 H202        2.8897  -25.3653  -48.9129 H         1 UNK         0.0600 
    203 H203        2.2903  -23.7165  -49.0879 H         1 UNK         0.0600 
    204 H204        2.7692  -24.6365  -50.5069 H         1 UNK         0.0600 
    205 H205       -0.3420  -23.0887  -49.0735 H         1 UNK         0.3000 
    206 H206       -0.9873  -22.0967  -51.6787 H         1 UNK         0.0600 
    207 H207       -0.5312  -20.6159  -49.7658 H         1 UNK         0.0600 
    208 H208       -2.1576  -20.3100  -50.3417 H         1 UNK         0.0600 
    209 H209       -1.9152  -21.2563  -48.8816 H         1 UNK         0.0600 
    210 H210       -2.5060  -24.5364  -49.9422 H         1 UNK         0.3000 
    211 H211       -4.3734  -25.6990  -50.0992 H         1 UNK         0.0600 
    212 H212       -4.9572  -24.2036  -52.7090 H         1 UNK         0.0600 
    213 H213       -5.6995  -25.7041  -52.1782 H         1 UNK         0.0600 
    214 H214       -3.9842  -25.6646  -52.5551 H         1 UNK         0.0600 
    215 H215       -4.5059  -23.9954  -48.2328 H         1 UNK         0.3000 
    216 H216       -5.8669  -23.2918  -46.6864 H         1 UNK         0.0600 
    217 H217       -8.2902  -23.3665  -46.7791 H         1 UNK         0.0600 
    218 H218       -7.6681  -24.8074  -47.5653 H         1 UNK         0.0600 
    219 H219       -8.2947  -23.4692  -48.5305 H         1 UNK         0.0600 
    220 H220       -4.5069  -21.6118  -48.6461 H         1 UNK         0.3000 
    221 H221       -3.9073  -19.4827  -48.7970 H         1 UNK         0.0600 
    222 H222       -5.8411  -18.8180  -46.5118 H         1 UNK         0.0600 
    223 H223       -4.2853  -19.5947  -46.2542 H         1 UNK         0.0600 
    224 H224       -4.3578  -17.9793  -46.9289 H         1 UNK         0.0600 
    225 H225       -5.0697  -17.0168  -48.6061 H         1 UNK         0.3000 
    226 H226       -6.2176  -15.4692  -49.6186 H         1 UNK         0.0600 
    227 H227       -8.2082  -16.4909  -48.5090 H         1 UNK         0.0600 
    228 H228       -8.6342  -15.7178  -50.0211 H         1 UNK         0.0600 
    229 H229       -8.5166  -17.4753  -49.9329 H         1 UNK         0.0600 
    230 H230       -8.2399  -16.4723  -51.9106 H         1 UNK         0.3000 
    231 H231       -6.5125  -15.6781  -54.0401 H         1 UNK         0.0600 
    232 H232       -9.3429  -16.8561  -54.0784 H         1 UNK         0.0600 
    233 H233       -8.5573  -16.0427  -55.4261 H         1 UNK         0.0600 
    234 H234       -8.9355  -15.1429  -53.9672 H         1 UNK         0.0600 
    235 H235       -6.9945  -18.8067  -52.6706 H         1 UNK         0.3000 
    236 H236       -6.9591  -20.4609  -54.9451 H         1 UNK         0.0600 
    237 H237       -7.6604  -21.2257  -52.6969 H         1 UNK         0.0600 
    238 H238       -6.3764  -22.2543  -53.3123 H         1 UNK         0.0600 
    239 H239       -6.0154  -21.0430  -52.0935 H         1 UNK         0.0600 
    240 H240       -4.2654  -18.8384  -53.3590 H         1 UNK         0.3000 
    241 H241       -2.2967  -20.2752  -55.0455 H         1 UNK         0.0600 
    242 H242       -4.3301  -17.7750  -55.7878 H         1 UNK         0.3800 
    243 H243       -3.2068  -16.8478  -56.7485 H         1 UNK         0.3800 
    244 H244       -0.5546  -19.2736  -53.6688 H         1 UNK         0.0800 
    245 H245       -1.6787  -20.1985  -52.7325 H         1 UNK         0.0800 
    246 H246       -0.4240  -15.9964  -51.8404 H         1 UNK         0.0800 
    247 H247       -0.1711  -16.7175  -53.4087 H         1 UNK         0.0800 
@<TRIPOS>BOND
     1    1    2 1    
     2    1  127 1    
     3    1  128 1    
     4    1  129 1    
     5    2    3 2    
     6    2    4 am   BACKBONE|DICT|INTERRES
     7    4    5 1    
     8    4  130 1    
     9    5    6 1    
    10    5   65 1    
    11    5  131 1    
    12    6    7 1    
    13    6  132 1    
    14    6  133 1    
    15    7    8 1    
    16    8    9 1    
    17    8  134 1    
    18    8  135 1    
    19    9   10 ar   
    20    9   14 ar   
    21   10   11 ar   
    22   10  136 1    
    23   11   12 ar   
    24   11  126 1    
    25   12   13 ar   
    26   12  137 1    
    27   13   14 ar   
    28   13   15 1    
    29   14  138 1    
    30   15   16 1    
    31   15  139 1    
    32   15  140 1    
    33   16   17 1    
    34   17   18 1    
    35   17  141 1    
    36   17  142 1    
    37   18   19 1    
    38   18   67 1    
    39   18  143 1    
    40   19   20 am   BACKBONE|DICT|INTERRES
    41   19  144 1    
    42   20   21 2    
    43   20   22 1    
    44   22   23 1    
    45   22   24 1    
    46   22  145 1    
    47   23  146 1    
    48   23  147 1    
    49   23  148 1    
    50   24   25 am   BACKBONE|DICT|INTERRES
    51   24  149 1    
    52   25   26 2    
    53   25   27 1    
    54   27   28 1    
    55   27   29 1    
    56   27  150 1    
    57   28  151 1    
    58   28  152 1    
    59   28  153 1    
    60   29   30 am   BACKBONE|DICT|INTERRES
    61   29  154 1    
    62   30   31 2    
    63   30   32 1    
    64   32   33 1    
    65   32   34 1    
    66   32  155 1    
    67   33  156 1    
    68   33  157 1    
    69   33  158 1    
    70   34   35 am   BACKBONE|DICT|INTERRES
    71   34  159 1    
    72   35   36 2    
    73   35   37 1    
    74   37   38 1    
    75   37   39 1    
    76   37  160 1    
    77   38  161 1    
    78   38  162 1    
    79   38  163 1    
    80   39   40 am   BACKBONE|DICT|INTERRES
    81   39  164 1    
    82   40   41 2    
    83   40   42 1    
    84   42   43 1    
    85   42   44 1    
    86   42  165 1    
    87   43  166 1    
    88   43  167 1    
    89   43  168 1    
    90   44   45 am   BACKBONE|DICT|INTERRES
    91   44  169 1    
    92   45   46 2    
    93   45   47 1    
    94   47   48 1    
    95   47   49 1    
    96   47  170 1    
    97   48  171 1    
    98   48  172 1    
    99   48  173 1    
   100   49   50 am   BACKBONE|DICT|INTERRES
   101   49  174 1    
   102   50   51 2    
   103   50   52 1    
   104   52   53 1    
   105   52   54 1    
   106   52  175 1    
   107   53  176 1    
   108   53  177 1    
   109   53  178 1    
   110   54   55 am   BACKBONE|DICT|INTERRES
   111   54  179 1    
   112   55   56 2    
   113   55   57 1    
   114   57   58 1    
   115   57   59 1    
   116   57  180 1    
   117   58  181 1    
   118   58  182 1    
   119   58  183 1    
   120   59   60 am   BACKBONE|DICT|INTERRES
   121   59  184 1    
   122   60   61 2    
   123   60   62 1    
   124   62   63 1    
   125   62   64 1    
   126   62  185 1    
   127   63  186 1    
   128   63  187 1    
   129   63  188 1    
   130   64   65 am   BACKBONE|DICT|INTERRES
   131   64  189 1    
   132   65   66 2    
   133   67   68 2    
   134   67   69 am   BACKBONE|DICT|INTERRES
   135   69   70 1    
   136   69  190 1    
   137   70   71 1    
   138   70   72 1    
   139   70  191 1    
   140   71  192 1    
   141   71  193 1    
   142   71  194 1    
   143   72   73 2    
   144   72   74 am   BACKBONE|DICT|INTERRES
   145   74   75 1    
   146   74  195 1    
   147   75   76 1    
   148   75   77 1    
   149   75  196 1    
   150   76  197 1    
   151   76  198 1    
   152   76  199 1    
   153   77   78 2    
   154   77   79 am   BACKBONE|DICT|INTERRES
   155   79   80 1    
   156   79  200 1    
   157   80   81 1    
   158   80   82 1    
   159   80  201 1    
   160   81  202 1    
   161   81  203 1    
   162   81  204 1    
   163   82   83 2    
   164   82   84 am   BACKBONE|DICT|INTERRES
   165   84   85 1    
   166   84  205 1    
   167   85   86 1    
   168   85   87 1    
   169   85  206 1    
   170   86  207 1    
   171   86  208 1    
   172   86  209 1    
   173   87   88 2    
   174   87   89 am   BACKBONE|DICT|INTERRES
   175   89   90 1    
   176   89  210 1    
   177   90   91 1    
   178   90   92 1    
   179   90  211 1    
   180   91  212 1    
   181   91  213 1    
   182   91  214 1    
   183   92   93 2    
   184   92   94 am   BACKBONE|DICT|INTERRES
   185   94   95 1    
   186   94  215 1    
   187   95   96 1    
   188   95   97 1    
   189   95  216 1    
   190   96  217 1    
   191   96  218 1    
   192   96  219 1    
   193   97   98 2    
   194   97   99 am   BACKBONE|DICT|INTERRES
   195   99  100 1    
   196   99  220 1    
   197  100  101 1    
   198  100  102 1    
   199  100  221 1    
   200  101  222 1    
   201  101  223 1    
   202  101  224 1    
   203  102  103 2    
   204  102  104 am   BACKBONE|DICT|INTERRES
   205  104  105 1    
   206  104  225 1    
   207  105  106 1    
   208  105  107 1    
   209  105  226 1    
   210  106  227 1    
   211  106  228 1    
   212  106  229 1    
   213  107  108 2    
   214  107  109 am   BACKBONE|DICT|INTERRES
   215  109  110 1    
   216  109  230 1    
   217  110  111 1    
   218  110  112 1    
   219  110  231 1    
   220  111  232 1    
   221  111  233 1    
   222  111  234 1    
   223  112  113 2    
   224  112  114 am   BACKBONE|DICT|INTERRES
   225  114  115 1    
   226  114  235 1    
   227  115  116 1    
   228  115  117 1    
   229  115  236 1    
   230  116  237 1    
   231  116  238 1    
   232  116  239 1    
   233  117  118 2    
   234  117  119 am   BACKBONE|DICT|INTERRES
   235  119  120 1    
   236  119  240 1    
   237  120  121 1    
   238  120  124 1    
   239  120  241 1    
   240  121  122 am   BACKBONE|DICT|INTERRES
   241  121  123 2    
   242  122  242 1    
   243  122  243 1    
   244  124  125 1    
   245  124  244 1    
   246  124  245 1    
   247  125  126 1    
   248  126  246 1    
   249  126  247 1    
@<TRIPOS>SUBSTRUCTURE
     1 UNK         1 GROUP             0       ****    0 ROOT    
