@<TRIPOS>MOLECULE
3R540
247   249    1
SMALL
USER_CHARGES


@<TRIPOS>ATOM
      1 CA         -1.2354  -17.0178  -48.0006 C.3       0 UNK        -0.1800 
      2 C          -0.1719  -16.1980  -48.7156 C.2       0 UNK         0.5000 
      3 O          -0.4338  -15.6685  -49.7948 O.2       0 UNK        -0.5000 
      4 N           1.0197  -16.0695  -48.1138 N.am      1 UNK        -0.5000 
      5 CA          2.1111  -15.2182  -48.6112 C.3       1 UNK         0.1400 
      6 C6          3.5097  -15.6774  -48.1210 C.3       23 UNK        -0.0398 
      7 S7          3.8370  -17.4641  -48.3275 S.3       23 UNK        -0.2404 
      8 C8          4.1732  -17.5942  -50.1092 C.3       23 UNK        -0.0205 
      9 C9          3.2094  -18.5681  -50.7674 C.ar      23 UNK        -0.0193 
     10 C10         1.9677  -18.1237  -51.2277 C.ar      23 UNK        -0.1150 
     11 C11         1.0800  -19.0083  -51.8433 C.ar      23 UNK        -0.0193 
     12 C12         1.4355  -20.3538  -51.9824 C.ar      23 UNK        -0.1150 
     13 C13         2.6735  -20.8146  -51.5238 C.ar      23 UNK        -0.0193 
     14 C14         3.5587  -19.9132  -50.9226 C.ar      23 UNK        -0.1150 
     15 C15         3.0619  -22.2774  -51.7146 C.3       23 UNK        -0.0205 
     16 S16         3.5398  -23.1100  -50.1641 S.3       23 UNK        -0.2404 
     17 C17         1.9997  -22.9781  -49.1957 C.3       23 UNK        -0.0398 
     18 CA          2.0418  -23.7849  -47.8688 C.3       11 UNK         0.1400 
     19 N           3.2007  -23.4167  -47.0393 N.am      11 UNK        -0.5000 
     20 C           3.7756  -24.1775  -46.1004 C.2       10 UNK         0.5000 
     21 O           3.3766  -25.3080  -45.8206 O.2       10 UNK        -0.5000 
     22 CA          4.9473  -23.5796  -45.2933 C.3       10 UNK         0.1400 
     23 CB          6.2487  -24.3276  -45.6220 C.3       10 UNK        -0.1800 
     24 N           5.1770  -22.1448  -45.5004 N.am      10 UNK        -0.5000 
     25 C           4.4972  -21.1034  -44.9953 C.2       9 UNK         0.5000 
     26 O           4.8826  -19.9491  -45.1805 O.2       9 UNK        -0.5000 
     27 CA          3.2260  -21.3344  -44.1397 C.3       9 UNK         0.1400 
     28 CB          3.5622  -21.2678  -42.6426 C.3       9 UNK        -0.1800 
     29 N           2.1606  -20.3704  -44.4264 N.am      9 UNK        -0.5000 
     30 C           1.6252  -20.1423  -45.6358 C.2       8 UNK         0.5000 
     31 O           1.9911  -20.7055  -46.6642 O.2       8 UNK        -0.5000 
     32 CA          0.4660  -19.1377  -45.7215 C.3       8 UNK         0.1400 
     33 CB         -0.8752  -19.8788  -45.7447 C.3       8 UNK        -0.1800 
     34 N           0.4534  -18.1669  -44.6285 N.am      8 UNK        -0.5000 
     35 C           1.2918  -17.1261  -44.5414 C.2       7 UNK         0.5000 
     36 O           2.0758  -16.8297  -45.4395 O.2       7 UNK        -0.5000 
     37 CA          1.2490  -16.2569  -43.2691 C.3       7 UNK         0.1400 
     38 CB          1.1964  -14.7605  -43.6189 C.3       7 UNK        -0.1800 
     39 N           0.1275  -16.5870  -42.3891 N.am      7 UNK        -0.5000 
     40 C           0.1280  -17.5758  -41.4831 C.2       6 UNK         0.5000 
     41 O           1.0906  -18.3193  -41.2925 O.2       6 UNK        -0.5000 
     42 CA         -1.1676  -17.7945  -40.6756 C.3       6 UNK         0.1400 
     43 CB         -1.0487  -17.1451  -39.2886 C.3       6 UNK        -0.1800 
     44 N          -2.3630  -17.2726  -41.3408 N.am      6 UNK        -0.5000 
     45 C          -2.8973  -17.7687  -42.4659 C.2       5 UNK         0.5000 
     46 O          -2.4623  -18.7625  -43.0470 O.2       5 UNK        -0.5000 
     47 CA         -4.0873  -16.9912  -43.0629 C.3       5 UNK         0.1400 
     48 CB         -5.4165  -17.5565  -42.5409 C.3       5 UNK        -0.1800 
     49 N          -4.0353  -15.5490  -42.7923 N.am      5 UNK        -0.5000 
     50 C          -3.0831  -14.7288  -43.2558 C.2       4 UNK         0.5000 
     51 O          -2.1356  -15.1099  -43.9441 O.2       4 UNK        -0.5000 
     52 CA         -3.1576  -13.2558  -42.8202 C.3       4 UNK         0.1400 
     53 CB         -2.1477  -12.9841  -41.6940 C.3       4 UNK        -0.1800 
     54 N          -2.8724  -12.3625  -43.9414 N.am      4 UNK        -0.5000 
     55 C          -3.7359  -12.0893  -44.9284 C.2       3 UNK         0.5000 
     56 O          -4.8954  -12.5050  -44.9522 O.2       3 UNK        -0.5000 
     57 CA         -3.2330  -11.1928  -46.0795 C.3       3 UNK         0.1400 
     58 CB         -3.6438   -9.7318  -45.8380 C.3       3 UNK        -0.1800 
     59 N          -1.7846  -11.2476  -46.3072 N.am      3 UNK        -0.5000 
     60 C          -1.1243  -12.3287  -46.7417 C.2       2 UNK         0.5000 
     61 O          -1.6688  -13.4146  -46.9589 O.2       2 UNK        -0.5000 
     62 CA          0.3881  -12.1671  -46.9845 C.3       2 UNK         0.1400 
     63 CB          1.1312  -11.6366  -45.7444 C.3       2 UNK        -0.1800 
     64 N           0.9214  -13.4705  -47.3568 N.am      2 UNK        -0.5000 
     65 C           1.8738  -13.7300  -48.2594 C.2       1 UNK         0.5000 
     66 O           2.5429  -12.8575  -48.8147 O.2       1 UNK        -0.5000 
     67 C           0.7144  -23.6500  -47.0793 C.2       11 UNK         0.5000 
     68 O          -0.2575  -23.0981  -47.5906 O.2       11 UNK        -0.5000 
     69 N           0.6923  -24.1280  -45.8281 N.am      12 UNK        -0.5000 
     70 CA         -0.3776  -23.9040  -44.8525 C.3       12 UNK         0.1400 
     71 CB          0.1234  -24.3371  -43.4666 C.3       12 UNK        -0.1800 
     72 C          -1.7205  -24.5848  -45.1851 C.2       12 UNK         0.5000 
     73 O          -2.7378  -24.2013  -44.6058 O.2       12 UNK        -0.5000 
     74 N          -1.7021  -25.5674  -46.0983 N.am      13 UNK        -0.5000 
     75 CA         -2.8418  -26.3535  -46.5782 C.3       13 UNK         0.1400 
     76 CB         -2.3568  -27.2991  -47.6890 C.3       13 UNK        -0.1800 
     77 C          -4.0089  -25.4743  -47.0682 C.2       13 UNK         0.5000 
     78 O          -3.9249  -24.8847  -48.1486 O.2       13 UNK        -0.5000 
     79 N          -5.0466  -25.3617  -46.2258 N.am      14 UNK        -0.5000 
     80 CA         -6.2350  -24.5167  -46.3929 C.3       14 UNK         0.1400 
     81 CB         -7.1412  -25.0845  -47.5051 C.3       14 UNK        -0.1800 
     82 C          -5.8957  -23.0224  -46.5930 C.2       14 UNK         0.5000 
     83 O          -6.5770  -22.3368  -47.3555 O.2       14 UNK        -0.5000 
     84 N          -4.8216  -22.5574  -45.9348 N.am      15 UNK        -0.5000 
     85 CA         -4.2169  -21.2273  -46.0678 C.3       15 UNK         0.1400 
     86 CB         -5.1439  -20.1385  -45.4901 C.3       15 UNK        -0.1800 
     87 C          -3.7751  -20.9400  -47.5189 C.2       15 UNK         0.5000 
     88 O          -4.1394  -19.9112  -48.0901 O.2       15 UNK        -0.5000 
     89 N          -3.0355  -21.8961  -48.0994 N.am      16 UNK        -0.5000 
     90 CA         -2.5857  -21.9483  -49.4941 C.3       16 UNK         0.1400 
     91 CB         -1.5574  -20.8357  -49.7833 C.3       16 UNK        -0.1800 
     92 C          -3.7724  -21.9537  -50.4771 C.2       16 UNK         0.5000 
     93 O          -3.7600  -21.2222  -51.4692 O.2       16 UNK        -0.5000 
     94 N          -4.7962  -22.7562  -50.1463 N.am      17 UNK        -0.5000 
     95 CA         -6.1048  -22.8364  -50.8051 C.3       17 UNK         0.1400 
     96 CB         -5.9656  -23.4935  -52.1945 C.3       17 UNK        -0.1800 
     97 C          -6.8136  -21.4655  -50.8547 C.2       17 UNK         0.5000 
     98 O          -7.2469  -21.0332  -51.9213 O.2       17 UNK        -0.5000 
     99 N          -6.8615  -20.7779  -49.7045 N.am      18 UNK        -0.5000 
    100 CA        -7.3057  -19.3897  -49.5226 C.3       18 UNK         0.1400 
    101 CB        -8.8346  -19.2824  -49.6954 C.3       18 UNK        -0.1800 
    102 C         -6.5203  -18.4031  -50.4175 C.2       18 UNK         0.5000 
    103 O         -7.1111  -17.5415  -51.0709 O.2       18 UNK        -0.5000 
    104 N         -5.1947  -18.5949  -50.4509 N.am      19 UNK        -0.5000 
    105 CA        -4.1896  -17.9148  -51.2735 C.3       19 UNK         0.1400 
    106 CB        -4.1164  -16.4152  -50.9217 C.3       19 UNK        -0.1800 
    107 C         -4.3148  -18.1513  -52.7969 C.2       19 UNK         0.5000 
    108 O         -3.6164  -17.4837  -53.5602 O.2       19 UNK        -0.5000 
    109 N         -5.1661  -19.0899  -53.2378 N.am      20 UNK        -0.5000 
    110 CA        -5.3656  -19.4029  -54.6546 C.3       20 UNK         0.1400 
    111 CB        -6.7321  -20.0724  -54.8581 C.3       20 UNK        -0.1800 
    112 C         -4.2517  -20.2835  -55.2480 C.2       20 UNK         0.5000 
    113 O         -4.0725  -20.2648  -56.4669 O.2       20 UNK        -0.5000 
    114 N         -3.5126  -21.0259  -54.4067 N.am      21 UNK        -0.5000 
    115 CA        -2.4653  -21.9685  -54.8272 C.3       21 UNK         0.1400 
    116 CB        -1.9668  -22.7607  -53.6091 C.3       21 UNK        -0.1800 
    117 C         -1.2762  -21.3195  -55.5652 C.2       21 UNK         0.5000 
    118 O         -0.5794  -22.0095  -56.3104 O.2       21 UNK        -0.5000 
    119 N         -1.0810  -20.0141  -55.3561 N.am      22 UNK        -0.5000 
    120 CA        -0.0943  -19.1677  -56.0395 C.3       22 UNK         0.1400 
    121 C         -0.7224  -18.2225  -57.1073 C.2       22 UNK         0.5000 
    122 N         -1.9982  -18.3558  -57.4544 N.am      22 UNK        -0.7600 
    123 O         -0.0342  -17.3680  -57.6594 O.2       22 UNK        -0.5000 
    124 C124        0.8167  -18.4312  -55.0230 C.3       23 UNK        -0.0398 
    125 S125       -0.0702  -17.3904  -53.8049 S.3       23 UNK        -0.2404 
    126 C126       -0.2559  -18.5040  -52.3704 C.3       23 UNK        -0.0205 
    127 H127       -2.2313  -16.6654  -48.2677 H         1 UNK         0.0600 
    128 H128       -1.1599  -18.0676  -48.2818 H         1 UNK         0.0600 
    129 H129       -1.1374  -16.9300  -46.9184 H         1 UNK         0.0600 
    130 H130        1.2176  -16.5305  -47.2309 H         1 UNK         0.3000 
    131 H131        2.1180  -15.2770  -49.7008 H         1 UNK         0.0600 
    132 H132        4.2946  -15.1191  -48.6342 H         1 UNK         0.0800 
    133 H133        3.6317  -15.4498  -47.0608 H         1 UNK         0.0800 
    134 H134        4.0998  -16.6180  -50.5902 H         1 UNK         0.0800 
    135 H135        5.2024  -17.9265  -50.2523 H         1 UNK         0.0800 
    136 H136        1.6912  -17.0849  -51.1202 H         1 UNK         0.1150 
    137 H137        0.7532  -21.0396  -52.4643 H         1 UNK         0.1150 
    138 H138        4.5191  -20.2619  -50.5699 H         1 UNK         0.1150 
    139 H139        2.2482  -22.8384  -52.1769 H         1 UNK         0.0800 
    140 H140        3.9004  -22.3264  -52.4103 H         1 UNK         0.0800 
    141 H141        1.1752  -23.3221  -49.8228 H         1 UNK         0.0800 
    142 H142        1.8117  -21.9215  -48.9971 H         1 UNK         0.0800 
    143 H143        2.1361  -24.8399  -48.1336 H         1 UNK         0.0600 
    144 H144        3.5319  -22.4697  -47.1672 H         1 UNK         0.3000 
    145 H145        4.7304  -23.7459  -44.2365 H         1 UNK         0.0600 
    146 H146        6.5333  -24.1992  -46.6672 H         1 UNK         0.0600 
    147 H147        7.0743  -23.9754  -45.0031 H         1 UNK         0.0600 
    148 H148        6.1448  -25.3983  -45.4399 H         1 UNK         0.0600 
    149 H149        5.9842  -21.9303  -46.0670 H         1 UNK         0.3000 
    150 H150        2.8013  -22.3145  -44.3454 H         1 UNK         0.0600 
    151 H151        4.3335  -21.9929  -42.3804 H         1 UNK         0.0600 
    152 H152        2.6876  -21.4888  -42.0303 H         1 UNK         0.0600 
    153 H153        3.9292  -20.2806  -42.3582 H         1 UNK         0.0600 
    154 H154        1.8188  -19.8314  -43.6444 H         1 UNK         0.3000 
    155 H155        0.5855  -18.6102  -46.6678 H         1 UNK         0.0600 
    156 H156       -0.9028  -20.6024  -46.5597 H         1 UNK         0.0600 
    157 H157       -1.7064  -19.1887  -45.8894 H         1 UNK         0.0600 
    158 H158       -1.0483  -20.4208  -44.8146 H         1 UNK         0.0600 
    159 H159       -0.2086  -18.3275  -43.8813 H         1 UNK         0.3000 
    160 H160        2.1825  -16.4361  -42.7319 H         1 UNK         0.0600 
    161 H161        0.3423  -14.5242  -44.2527 H         1 UNK         0.0600 
    162 H162        2.0930  -14.4543  -44.1594 H         1 UNK         0.0600 
    163 H163        1.1348  -14.1441  -42.7222 H         1 UNK         0.0600 
    164 H164       -0.7259  -16.0670  -42.5507 H         1 UNK         0.3000 
    165 H165       -1.2945  -18.8709  -40.5424 H         1 UNK         0.0600 
    166 H166       -1.9278  -17.3533  -38.6783 H         1 UNK         0.0600 
    167 H167       -0.1823  -17.5305  -38.7493 H         1 UNK         0.0600 
    168 H168       -0.9364  -16.0623  -39.3593 H         1 UNK         0.0600 
    169 H169       -2.7894  -16.4553  -40.9303 H         1 UNK         0.3000 
    170 H170       -4.0565  -17.1301  -44.1456 H         1 UNK         0.0600 
    171 H171       -5.5278  -17.3986  -41.4675 H         1 UNK         0.0600 
    172 H172       -6.2662  -17.0905  -43.0400 H         1 UNK         0.0600 
    173 H173       -5.4841  -18.6298  -42.7215 H         1 UNK         0.0600 
    174 H174       -4.7803  -15.1694  -42.2255 H         1 UNK         0.3000 
    175 H175       -4.1604  -13.0417  -42.4441 H         1 UNK         0.0600 
    176 H176       -2.3396  -13.6244  -40.8321 H         1 UNK         0.0600 
    177 H177       -1.1225  -13.1682  -42.0177 H         1 UNK         0.0600 
    178 H178       -2.2096  -11.9514  -41.3503 H         1 UNK         0.0600 
    179 H179       -1.9285  -12.0163  -44.0199 H         1 UNK         0.3000 
    180 H180       -3.7254  -11.5356  -46.9921 H         1 UNK         0.0600 
    181 H181       -3.3819   -9.1016  -46.6882 H         1 UNK         0.0600 
    182 H182       -3.1606   -9.3196  -44.9512 H         1 UNK         0.0600 
    183 H183       -4.7218   -9.6471  -45.6935 H         1 UNK         0.0600 
    184 H184       -1.2746  -10.3898  -46.1531 H         1 UNK         0.3000 
    185 H185        0.5182  -11.4691  -47.8140 H         1 UNK         0.0600 
    186 H186        0.8519  -10.6053  -45.5278 H         1 UNK         0.0600 
    187 H187        0.9111  -12.2281  -44.8565 H         1 UNK         0.0600 
    188 H188        2.2108  -11.6498  -45.8953 H         1 UNK         0.0600 
    189 H189        0.3602  -14.2469  -47.0301 H         1 UNK         0.3000 
    190 H190        1.5165  -24.6221  -45.5039 H         1 UNK         0.3000 
    191 H191       -0.5701  -22.8302  -44.8188 H         1 UNK         0.0600 
    192 H192        0.3717  -25.3989  -43.4438 H         1 UNK         0.0600 
    193 H193       -0.6340  -24.1598  -42.7018 H         1 UNK         0.0600 
    194 H194        1.0122  -23.7773  -43.1749 H         1 UNK         0.0600 
    195 H195       -0.8120  -25.7778  -46.5238 H         1 UNK         0.3000 
    196 H196       -3.1925  -26.9666  -45.7458 H         1 UNK         0.0600 
    197 H197       -3.1800  -27.9007  -48.0766 H         1 UNK         0.0600 
    198 H198       -1.5982  -27.9885  -47.3182 H         1 UNK         0.0600 
    199 H199       -1.9290  -26.7490  -48.5283 H         1 UNK         0.0600 
    200 H200       -4.9879  -25.8467  -45.3410 H         1 UNK         0.3000 
    201 H201       -6.7900  -24.5721  -45.4555 H         1 UNK         0.0600 
    202 H202       -7.4305  -26.1123  -47.2861 H         1 UNK         0.0600 
    203 H203       -6.6436  -25.0807  -48.4742 H         1 UNK         0.0600 
    204 H204       -8.0606  -24.5060  -47.6026 H         1 UNK         0.0600 
    205 H205       -4.2996  -23.2128  -45.3596 H         1 UNK         0.3000 
    206 H206       -3.3126  -21.2449  -45.4598 H         1 UNK         0.0600 
    207 H207       -6.0605  -20.0305  -46.0705 H         1 UNK         0.0600 
    208 H208       -5.4224  -20.3670  -44.4619 H         1 UNK         0.0600 
    209 H209       -4.6445  -19.1692  -45.4850 H         1 UNK         0.0600 
    210 H210       -2.8023  -22.7179  -47.5593 H         1 UNK         0.3000 
    211 H211       -2.0812  -22.9069  -49.6220 H         1 UNK         0.0600 
    212 H212       -1.9978  -19.8432  -49.7077 H         1 UNK         0.0600 
    213 H213       -1.1510  -20.9398  -50.7874 H         1 UNK         0.0600 
    214 H214       -0.7170  -20.8805  -49.0909 H         1 UNK         0.0600 
    215 H215       -4.6792  -23.3401  -49.3244 H         1 UNK         0.3000 
    216 H216       -6.7304  -23.4834  -50.1907 H         1 UNK         0.0600 
    217 H217       -6.9435  -23.6539  -52.6495 H         1 UNK         0.0600 
    218 H218       -5.4769  -24.4650  -52.1232 H         1 UNK         0.0600 
    219 H219       -5.3847  -22.8764  -52.8806 H         1 UNK         0.0600 
    220 H220       -6.5258  -21.2416  -48.8627 H         1 UNK         0.3000 
    221 H221       -7.0680  -19.1252  -48.4912 H         1 UNK         0.0600 
    222 H222       -9.1436  -19.4974  -50.7187 H         1 UNK         0.0600 
    223 H223       -9.3542  -19.9767  -49.0351 H         1 UNK         0.0600 
    224 H224       -9.1852  -18.2789  -49.4517 H         1 UNK         0.0600 
    225 H225       -4.8201  -19.3079  -49.8304 H         1 UNK         0.3000 
    226 H226       -3.2364  -18.3586  -50.9889 H         1 UNK         0.0600 
    227 H227       -4.9927  -15.8728  -51.2771 H         1 UNK         0.0600 
    228 H228       -4.0418  -16.2640  -49.8452 H         1 UNK         0.0600 
    229 H229       -3.2385  -15.9511  -51.3732 H         1 UNK         0.0600 
    230 H230       -5.7001  -19.6325  -52.5688 H         1 UNK         0.3000 
    231 H231       -5.3751  -18.4648  -55.2137 H         1 UNK         0.0600 
    232 H232       -6.9704  -20.1493  -55.9196 H         1 UNK         0.0600 
    233 H233       -7.5311  -19.5011  -54.3850 H         1 UNK         0.0600 
    234 H234       -6.7499  -21.0835  -54.4508 H         1 UNK         0.0600 
    235 H235       -3.7080  -20.9812  -53.4093 H         1 UNK         0.3000 
    236 H236       -2.9244  -22.6744  -55.5222 H         1 UNK         0.0600 
    237 H237       -1.5195  -22.1051  -52.8625 H         1 UNK         0.0600 
    238 H238       -2.7806  -23.3092  -53.1349 H         1 UNK         0.0600 
    239 H239       -1.2106  -23.4916  -53.8982 H         1 UNK         0.0600 
    240 H240       -1.7227  -19.5232  -54.7501 H         1 UNK         0.3000 
    241 H241        0.5682  -19.8087  -56.6233 H         1 UNK         0.0600 
    242 H242       -2.3815  -17.7410  -58.1547 H         1 UNK         0.3800 
    243 H243       -2.5844  -19.0805  -57.0545 H         1 UNK         0.3800 
    244 H244        1.5331  -17.7963  -55.5465 H         1 UNK         0.0800 
    245 H245        1.4300  -19.1643  -54.5015 H         1 UNK         0.0800 
    246 H246       -0.7685  -17.9624  -51.5741 H         1 UNK         0.0800 
    247 H247       -0.9082  -19.3353  -52.6392 H         1 UNK         0.0800 
@<TRIPOS>BOND
     1    1    2 1    
     2    1  127 1    
     3    1  128 1    
     4    1  129 1    
     5    2    3 2    
     6    2    4 am   BACKBONE|DICT|INTERRES
     7    4    5 1    
     8    4  130 1    
     9    5    6 1    
    10    5   65 1    
    11    5  131 1    
    12    6    7 1    
    13    6  132 1    
    14    6  133 1    
    15    7    8 1    
    16    8    9 1    
    17    8  134 1    
    18    8  135 1    
    19    9   10 ar   
    20    9   14 ar   
    21   10   11 ar   
    22   10  136 1    
    23   11   12 ar   
    24   11  126 1    
    25   12   13 ar   
    26   12  137 1    
    27   13   14 ar   
    28   13   15 1    
    29   14  138 1    
    30   15   16 1    
    31   15  139 1    
    32   15  140 1    
    33   16   17 1    
    34   17   18 1    
    35   17  141 1    
    36   17  142 1    
    37   18   19 1    
    38   18   67 1    
    39   18  143 1    
    40   19   20 am   BACKBONE|DICT|INTERRES
    41   19  144 1    
    42   20   21 2    
    43   20   22 1    
    44   22   23 1    
    45   22   24 1    
    46   22  145 1    
    47   23  146 1    
    48   23  147 1    
    49   23  148 1    
    50   24   25 am   BACKBONE|DICT|INTERRES
    51   24  149 1    
    52   25   26 2    
    53   25   27 1    
    54   27   28 1    
    55   27   29 1    
    56   27  150 1    
    57   28  151 1    
    58   28  152 1    
    59   28  153 1    
    60   29   30 am   BACKBONE|DICT|INTERRES
    61   29  154 1    
    62   30   31 2    
    63   30   32 1    
    64   32   33 1    
    65   32   34 1    
    66   32  155 1    
    67   33  156 1    
    68   33  157 1    
    69   33  158 1    
    70   34   35 am   BACKBONE|DICT|INTERRES
    71   34  159 1    
    72   35   36 2    
    73   35   37 1    
    74   37   38 1    
    75   37   39 1    
    76   37  160 1    
    77   38  161 1    
    78   38  162 1    
    79   38  163 1    
    80   39   40 am   BACKBONE|DICT|INTERRES
    81   39  164 1    
    82   40   41 2    
    83   40   42 1    
    84   42   43 1    
    85   42   44 1    
    86   42  165 1    
    87   43  166 1    
    88   43  167 1    
    89   43  168 1    
    90   44   45 am   BACKBONE|DICT|INTERRES
    91   44  169 1    
    92   45   46 2    
    93   45   47 1    
    94   47   48 1    
    95   47   49 1    
    96   47  170 1    
    97   48  171 1    
    98   48  172 1    
    99   48  173 1    
   100   49   50 am   BACKBONE|DICT|INTERRES
   101   49  174 1    
   102   50   51 2    
   103   50   52 1    
   104   52   53 1    
   105   52   54 1    
   106   52  175 1    
   107   53  176 1    
   108   53  177 1    
   109   53  178 1    
   110   54   55 am   BACKBONE|DICT|INTERRES
   111   54  179 1    
   112   55   56 2    
   113   55   57 1    
   114   57   58 1    
   115   57   59 1    
   116   57  180 1    
   117   58  181 1    
   118   58  182 1    
   119   58  183 1    
   120   59   60 am   BACKBONE|DICT|INTERRES
   121   59  184 1    
   122   60   61 2    
   123   60   62 1    
   124   62   63 1    
   125   62   64 1    
   126   62  185 1    
   127   63  186 1    
   128   63  187 1    
   129   63  188 1    
   130   64   65 am   BACKBONE|DICT|INTERRES
   131   64  189 1    
   132   65   66 2    
   133   67   68 2    
   134   67   69 am   BACKBONE|DICT|INTERRES
   135   69   70 1    
   136   69  190 1    
   137   70   71 1    
   138   70   72 1    
   139   70  191 1    
   140   71  192 1    
   141   71  193 1    
   142   71  194 1    
   143   72   73 2    
   144   72   74 am   BACKBONE|DICT|INTERRES
   145   74   75 1    
   146   74  195 1    
   147   75   76 1    
   148   75   77 1    
   149   75  196 1    
   150   76  197 1    
   151   76  198 1    
   152   76  199 1    
   153   77   78 2    
   154   77   79 am   BACKBONE|DICT|INTERRES
   155   79   80 1    
   156   79  200 1    
   157   80   81 1    
   158   80   82 1    
   159   80  201 1    
   160   81  202 1    
   161   81  203 1    
   162   81  204 1    
   163   82   83 2    
   164   82   84 am   BACKBONE|DICT|INTERRES
   165   84   85 1    
   166   84  205 1    
   167   85   86 1    
   168   85   87 1    
   169   85  206 1    
   170   86  207 1    
   171   86  208 1    
   172   86  209 1    
   173   87   88 2    
   174   87   89 am   BACKBONE|DICT|INTERRES
   175   89   90 1    
   176   89  210 1    
   177   90   91 1    
   178   90   92 1    
   179   90  211 1    
   180   91  212 1    
   181   91  213 1    
   182   91  214 1    
   183   92   93 2    
   184   92   94 am   BACKBONE|DICT|INTERRES
   185   94   95 1    
   186   94  215 1    
   187   95   96 1    
   188   95   97 1    
   189   95  216 1    
   190   96  217 1    
   191   96  218 1    
   192   96  219 1    
   193   97   98 2    
   194   97   99 am   BACKBONE|DICT|INTERRES
   195   99  100 1    
   196   99  220 1    
   197  100  101 1    
   198  100  102 1    
   199  100  221 1    
   200  101  222 1    
   201  101  223 1    
   202  101  224 1    
   203  102  103 2    
   204  102  104 am   BACKBONE|DICT|INTERRES
   205  104  105 1    
   206  104  225 1    
   207  105  106 1    
   208  105  107 1    
   209  105  226 1    
   210  106  227 1    
   211  106  228 1    
   212  106  229 1    
   213  107  108 2    
   214  107  109 am   BACKBONE|DICT|INTERRES
   215  109  110 1    
   216  109  230 1    
   217  110  111 1    
   218  110  112 1    
   219  110  231 1    
   220  111  232 1    
   221  111  233 1    
   222  111  234 1    
   223  112  113 2    
   224  112  114 am   BACKBONE|DICT|INTERRES
   225  114  115 1    
   226  114  235 1    
   227  115  116 1    
   228  115  117 1    
   229  115  236 1    
   230  116  237 1    
   231  116  238 1    
   232  116  239 1    
   233  117  118 2    
   234  117  119 am   BACKBONE|DICT|INTERRES
   235  119  120 1    
   236  119  240 1    
   237  120  121 1    
   238  120  124 1    
   239  120  241 1    
   240  121  122 am   BACKBONE|DICT|INTERRES
   241  121  123 2    
   242  122  242 1    
   243  122  243 1    
   244  124  125 1    
   245  124  244 1    
   246  124  245 1    
   247  125  126 1    
   248  126  246 1    
   249  126  247 1    
@<TRIPOS>SUBSTRUCTURE
     1 UNK         1 GROUP             0       ****    0 ROOT    
