@<TRIPOS>MOLECULE
3R540
247   249    1
SMALL
USER_CHARGES


@<TRIPOS>ATOM
      1 CA          1.8098  -12.3588  -51.4329 C.3       0 UNK        -0.1800 
      2 C           1.6622  -12.4306  -49.9194 C.2       0 UNK         0.5000 
      3 O           1.6517  -11.3951  -49.2530 O.2       0 UNK        -0.5000 
      4 N           1.5575  -13.6482  -49.3765 N.am      1 UNK        -0.5000 
      5 CA          1.3190  -13.9243  -47.9580 C.3       1 UNK         0.1400 
      6 C6          1.6900  -15.3826  -47.5801 C.3       23 UNK        -0.0398 
      7 S7          1.0074  -16.6613  -48.6983 S.3       23 UNK        -0.2404 
      8 C8          2.5293  -17.2596  -49.4971 C.3       23 UNK        -0.0205 
      9 C9          2.2418  -18.3098  -50.5605 C.ar      23 UNK        -0.0193 
     10 C10         2.3180  -17.9906  -51.9197 C.ar      23 UNK        -0.1150 
     11 C11         2.1035  -18.9659  -52.9006 C.ar      23 UNK        -0.0193 
     12 C12         1.7965  -20.2735  -52.4982 C.ar      23 UNK        -0.1150 
     13 C13         1.7042  -20.6066  -51.1435 C.ar      23 UNK        -0.0193 
     14 C14         1.9347  -19.6175  -50.1820 C.ar      23 UNK        -0.1150 
     15 C15         1.3262  -22.0256  -50.7309 C.3       23 UNK        -0.0205 
     16 S16         2.3978  -22.6938  -49.4159 S.3       23 UNK        -0.2404 
     17 C17         1.4527  -24.1682  -48.8793 C.3       23 UNK        -0.0398 
     18 CA          0.7488  -24.0242  -47.4952 C.3       11 UNK         0.1400 
     19 N           1.6105  -23.4873  -46.4341 N.am      11 UNK        -0.5000 
     20 C           2.6884  -24.1353  -45.9649 C.2       10 UNK         0.5000 
     21 O           2.9923  -25.2783  -46.3105 O.2       10 UNK        -0.5000 
     22 CA          3.6083  -23.4057  -44.9640 C.3       10 UNK         0.1400 
     23 CB          4.7798  -22.7468  -45.7089 C.3       10 UNK        -0.1800 
     24 N           2.9360  -22.3874  -44.1632 N.am      10 UNK        -0.5000 
     25 C           2.0401  -22.6267  -43.1978 C.2       9 UNK         0.5000 
     26 O           1.7218  -23.7571  -42.8276 O.2       9 UNK        -0.5000 
     27 CA          1.3732  -21.3977  -42.5425 C.3       9 UNK         0.1400 
     28 CB          1.9930  -21.1171  -41.1654 C.3       9 UNK        -0.1800 
     29 N           1.4146  -20.1620  -43.3341 N.am      9 UNK        -0.5000 
     30 C           0.9649  -20.0061  -44.5862 C.2       8 UNK         0.5000 
     31 O           0.5070  -20.9290  -45.2587 O.2       8 UNK        -0.5000 
     32 CA          1.0386  -18.6011  -45.2023 C.3       8 UNK         0.1400 
     33 CB         -0.3500  -17.9443  -45.1775 C.3       8 UNK        -0.1800 
     34 N           1.9989  -17.7332  -44.5219 N.am      8 UNK        -0.5000 
     35 C           3.2872  -17.6025  -44.8683 C.2       7 UNK         0.5000 
     36 O           3.8035  -18.2000  -45.8124 O.2       7 UNK        -0.5000 
     37 CA          4.1459  -16.6326  -44.0313 C.3       7 UNK         0.1400 
     38 CB          4.1879  -15.2495  -44.6999 C.3       7 UNK        -0.1800 
     39 N           3.6662  -16.4784  -42.6570 N.am      7 UNK        -0.5000 
     40 C           3.7910  -17.4058  -41.6972 C.2       6 UNK         0.5000 
     41 O           4.3950  -18.4673  -41.8485 O.2       6 UNK        -0.5000 
     42 CA          3.0826  -17.1173  -40.3560 C.3       6 UNK         0.1400 
     43 CB          4.0485  -16.4387  -39.3733 C.3       6 UNK        -0.1800 
     44 N           1.8686  -16.2989  -40.4817 N.am      6 UNK        -0.5000 
     45 C           0.7982  -16.6302  -41.2163 C.2       5 UNK         0.5000 
     46 O           0.7398  -17.6625  -41.8876 O.2       5 UNK        -0.5000 
     47 CA         -0.3589  -15.6134  -41.2568 C.3       5 UNK         0.1400 
     48 CB          0.0661  -14.3389  -42.0016 C.3       5 UNK        -0.1800 
     49 N          -1.5358  -16.1709  -41.9244 N.am      5 UNK        -0.5000 
     50 C          -2.3672  -17.0645  -41.3703 C.2       4 UNK         0.5000 
     51 O          -2.2983  -17.4049  -40.1875 O.2       4 UNK        -0.5000 
     52 CA         -3.4286  -17.7130  -42.2883 C.3       4 UNK         0.1400 
     53 CB         -4.7198  -18.0942  -41.5349 C.3       4 UNK        -0.1800 
     54 N          -3.7409  -16.9507  -43.5032 N.am      4 UNK        -0.5000 
     55 C          -4.2855  -15.7283  -43.5818 C.2       3 UNK         0.5000 
     56 O          -4.5965  -15.0362  -42.6105 O.2       3 UNK        -0.5000 
     57 CA         -4.5023  -15.1857  -45.0080 C.3       3 UNK         0.1400 
     58 CB         -5.9675  -14.7717  -45.2218 C.3       3 UNK        -0.1800 
     59 N          -3.6338  -14.0520  -45.3307 N.am      3 UNK        -0.5000 
     60 C          -2.2966  -14.0401  -45.2537 C.2       2 UNK         0.5000 
     61 O          -1.6206  -14.9761  -44.8205 O.2       2 UNK        -0.5000 
     62 CA         -1.5990  -12.7552  -45.7350 C.3       2 UNK         0.1400 
     63 CB         -1.4030  -11.7664  -44.5762 C.3       2 UNK        -0.1800 
     64 N          -0.2974  -13.0553  -46.3312 N.am      2 UNK        -0.5000 
     65 C          -0.1304  -13.5715  -47.5555 C.2       1 UNK         0.5000 
     66 O          -1.0581  -13.7698  -48.3446 O.2       1 UNK        -0.5000 
     67 C          -0.5694  -23.2411  -47.6086 C.2       11 UNK         0.5000 
     68 O          -1.6435  -23.8374  -47.5245 O.2       11 UNK        -0.5000 
     69 N          -0.4735  -21.9204  -47.8048 N.am      12 UNK        -0.5000 
     70 CA         -1.5863  -21.0055  -48.0766 C.3       12 UNK         0.1400 
     71 CB         -1.0311  -19.6104  -48.3679 C.3       12 UNK        -0.1800 
     72 C          -2.6755  -20.9478  -46.9956 C.2       12 UNK         0.5000 
     73 O          -3.8302  -20.6858  -47.3285 O.2       12 UNK        -0.5000 
     74 N          -2.3095  -21.2309  -45.7401 N.am      13 UNK        -0.5000 
     75 CA         -3.2365  -21.3667  -44.6151 C.3       13 UNK         0.1400 
     76 CB         -2.4317  -21.5548  -43.3219 C.3       13 UNK        -0.1800 
     77 C          -4.2561  -22.5110  -44.7991 C.2       13 UNK         0.5000 
     78 O          -5.3693  -22.4121  -44.2824 O.2       13 UNK        -0.5000 
     79 N          -3.8708  -23.5518  -45.5509 N.am      14 UNK        -0.5000 
     80 CA         -4.7572  -24.6198  -46.0052 C.3       14 UNK         0.1400 
     81 CB         -4.0069  -25.9604  -45.9624 C.3       14 UNK        -0.1800 
     82 C          -5.2707  -24.3270  -47.4255 C.2       14 UNK         0.5000 
     83 O          -6.4688  -24.4567  -47.6776 O.2       14 UNK        -0.5000 
     84 N          -4.3665  -23.9172  -48.3273 N.am      15 UNK        -0.5000 
     85 CA         -4.6137  -23.6810  -49.7530 C.3       15 UNK         0.1400 
     86 CB         -3.2937  -23.8587  -50.5263 C.3       15 UNK        -0.1800 
     87 C          -5.3190  -22.3405  -50.0664 C.2       15 UNK         0.5000 
     88 O          -4.9242  -21.6414  -51.0035 O.2       15 UNK        -0.5000 
     89 N          -6.3764  -22.0330  -49.3037 N.am      16 UNK        -0.5000 
     90 CA         -7.3612  -20.9661  -49.5167 C.3       16 UNK         0.1400 
     91 CB         -8.2490  -21.3198  -50.7290 C.3       16 UNK        -0.1800 
     92 C          -6.7588  -19.5487  -49.6202 C.2       16 UNK         0.5000 
     93 O          -7.1200  -18.7929  -50.5219 O.2       16 UNK        -0.5000 
     94 N          -5.8290  -19.2164  -48.7134 N.am      17 UNK        -0.5000 
     95 CA         -5.0699  -17.9579  -48.6659 C.3       17 UNK         0.1400 
     96 CB         -5.9877  -16.7587  -48.3501 C.3       17 UNK        -0.1800 
     97 C          -4.2076  -17.7558  -49.9299 C.2       17 UNK         0.5000 
     98 O          -4.1281  -16.6504  -50.4658 O.2       17 UNK        -0.5000 
     99 N          -3.6071  -18.8659  -50.3804 N.am      18 UNK        -0.5000 
    100 CA        -2.7690  -19.0511  -51.5681 C.3       18 UNK         0.1400 
    101 CB        -1.6450  -17.9974  -51.6736 C.3       18 UNK        -0.1800 
    102 C         -3.5611  -19.1500  -52.8827 C.2       18 UNK         0.5000 
    103 O         -2.9446  -19.4269  -53.9101 O.2       18 UNK        -0.5000 
    104 N         -4.8900  -18.9678  -52.8600 N.am      19 UNK        -0.5000 
    105 CA        -5.7366  -18.9893  -54.0555 C.3       19 UNK         0.1400 
    106 CB        -7.1481  -18.4955  -53.7095 C.3       19 UNK        -0.1800 
    107 C         -5.8030  -20.3655  -54.7413 C.2       19 UNK         0.5000 
    108 O         -5.9198  -20.4165  -55.9659 O.2       19 UNK        -0.5000 
    109 N         -5.7012  -21.4521  -53.9628 N.am      20 UNK        -0.5000 
    110 CA        -5.6792  -22.8159  -54.4967 C.3       20 UNK         0.1400 
    111 CB        -6.2445  -23.7861  -53.4489 C.3       20 UNK        -0.1800 
    112 C         -4.2696  -23.2497  -54.9437 C.2       20 UNK         0.5000 
    113 O         -4.1558  -24.1535  -55.7724 O.2       20 UNK        -0.5000 
    114 N         -3.2275  -22.6148  -54.3896 N.am      21 UNK        -0.5000 
    115 CA        -1.8264  -22.9185  -54.6797 C.3       21 UNK         0.1400 
    116 CB        -0.9788  -22.6553  -53.4250 C.3       21 UNK        -0.1800 
    117 C         -1.2883  -22.1055  -55.8689 C.2       21 UNK         0.5000 
    118 O         -0.6503  -22.6749  -56.7554 O.2       21 UNK        -0.5000 
    119 N         -1.5425  -20.7935  -55.8504 N.am      22 UNK        -0.5000 
    120 CA        -0.9959  -19.7902  -56.7764 C.3       22 UNK         0.1400 
    121 C         -2.0946  -18.9781  -57.5219 C.2       22 UNK         0.5000 
    122 N         -3.3769  -19.2853  -57.3745 N.am      22 UNK        -0.7600 
    123 O         -1.7794  -18.0624  -58.2773 O.2       22 UNK        -0.5000 
    124 C124        0.0094  -18.8566  -56.0460 C.3       23 UNK        -0.0398 
    125 S125        1.5540  -19.7176  -55.5979 S.3       23 UNK        -0.2404 
    126 C126        2.2827  -18.5748  -54.3703 C.3       23 UNK        -0.0205 
    127 H127        1.8153  -13.3501  -51.8872 H         1 UNK         0.0600 
    128 H128        2.7420  -11.8591  -51.6961 H         1 UNK         0.0600 
    129 H129        0.9842  -11.7922  -51.8637 H         1 UNK         0.0600 
    130 H130        1.5171  -14.4596  -49.9763 H         1 UNK         0.3000 
    131 H131        1.9807  -13.2690  -47.3868 H         1 UNK         0.0600 
    132 H132        2.7763  -15.4766  -47.5644 H         1 UNK         0.0800 
    133 H133        1.3733  -15.6080  -46.5609 H         1 UNK         0.0800 
    134 H134        3.1878  -17.6856  -48.7380 H         1 UNK         0.0800 
    135 H135        3.0664  -16.4162  -49.9335 H         1 UNK         0.0800 
    136 H136        2.5695  -16.9820  -52.2162 H         1 UNK         0.1150 
    137 H137        1.6377  -21.0448  -53.2363 H         1 UNK         0.1150 
    138 H138        1.8742  -19.8615  -49.1313 H         1 UNK         0.1150 
    139 H139        0.2851  -22.0241  -50.4098 H         1 UNK         0.0800 
    140 H140        1.3853  -22.7013  -51.5847 H         1 UNK         0.0800 
    141 H141        2.1600  -24.9969  -48.8358 H         1 UNK         0.0800 
    142 H142        0.7379  -24.4542  -49.6533 H         1 UNK         0.0800 
    143 H143        0.4573  -25.0286  -47.1799 H         1 UNK         0.0600 
    144 H144        1.3650  -22.5766  -46.0587 H         1 UNK         0.3000 
    145 H145        4.0157  -24.1567  -44.2838 H         1 UNK         0.0600 
    146 H146        5.4861  -22.2929  -45.0135 H         1 UNK         0.0600 
    147 H147        5.3313  -23.4807  -46.2981 H         1 UNK         0.0600 
    148 H148        4.4345  -21.9703  -46.3933 H         1 UNK         0.0600 
    149 H149        3.1287  -21.4251  -44.3982 H         1 UNK         0.3000 
    150 H150        0.3238  -21.6513  -42.3918 H         1 UNK         0.0600 
    151 H151        1.9373  -21.9967  -40.5228 H         1 UNK         0.0600 
    152 H152        1.4692  -20.3086  -40.6547 H         1 UNK         0.0600 
    153 H153        3.0436  -20.8371  -41.2494 H         1 UNK         0.0600 
    154 H154        1.6976  -19.3270  -42.8370 H         1 UNK         0.3000 
    155 H155        1.3425  -18.7215  -46.2430 H         1 UNK         0.0600 
    156 H156       -1.1168  -18.6065  -45.5777 H         1 UNK         0.0600 
    157 H157       -0.3625  -17.0411  -45.7850 H         1 UNK         0.0600 
    158 H158       -0.6538  -17.6762  -44.1669 H         1 UNK         0.0600 
    159 H159        1.6620  -17.2721  -43.6859 H         1 UNK         0.3000 
    160 H160        5.1627  -17.0302  -44.0020 H         1 UNK         0.0600 
    161 H161        4.8436  -14.5691  -44.1563 H         1 UNK         0.0600 
    162 H162        4.5700  -15.3198  -45.7191 H         1 UNK         0.0600 
    163 H163        3.1980  -14.7942  -44.7490 H         1 UNK         0.0600 
    164 H164        3.1675  -15.6285  -42.4397 H         1 UNK         0.3000 
    165 H165        2.7869  -18.0798  -39.9335 H         1 UNK         0.0600 
    166 H166        3.5922  -16.3181  -38.3906 H         1 UNK         0.0600 
    167 H167        4.9521  -17.0349  -39.2387 H         1 UNK         0.0600 
    168 H168        4.3549  -15.4531  -39.7258 H         1 UNK         0.0600 
    169 H169        1.8574  -15.4325  -39.9628 H         1 UNK         0.3000 
    170 H170       -0.6222  -15.3500  -40.2304 H         1 UNK         0.0600 
    171 H171        0.8993  -13.8426  -41.5032 H         1 UNK         0.0600 
    172 H172        0.3743  -14.5524  -43.0260 H         1 UNK         0.0600 
    173 H173       -0.7563  -13.6249  -42.0382 H         1 UNK         0.0600 
    174 H174       -1.6458  -15.9426  -42.9061 H         1 UNK         0.3000 
    175 H175       -2.9745  -18.6410  -42.6357 H         1 UNK         0.0600 
    176 H176       -5.4353  -18.5788  -42.1993 H         1 UNK         0.0600 
    177 H177       -4.5104  -18.7932  -40.7243 H         1 UNK         0.0600 
    178 H178       -5.2050  -17.2219  -41.0964 H         1 UNK         0.0600 
    179 H179       -3.4815  -17.4025  -44.3680 H         1 UNK         0.3000 
    180 H180       -4.2737  -15.9790  -45.7227 H         1 UNK         0.0600 
    181 H181       -6.2550  -13.9519  -44.5622 H         1 UNK         0.0600 
    182 H182       -6.6414  -15.6057  -45.0213 H         1 UNK         0.0600 
    183 H183       -6.1451  -14.4511  -46.2483 H         1 UNK         0.0600 
    184 H184       -4.1031  -13.2223  -45.6625 H         1 UNK         0.3000 
    185 H185       -2.2293  -12.2779  -46.4888 H         1 UNK         0.0600 
    186 H186       -2.3454  -11.5645  -44.0654 H         1 UNK         0.0600 
    187 H187       -0.7004  -12.1459  -43.8354 H         1 UNK         0.0600 
    188 H188       -1.0196  -10.8121  -44.9377 H         1 UNK         0.0600 
    189 H189        0.5027  -12.9438  -45.7266 H         1 UNK         0.3000 
    190 H190        0.4494  -21.5121  -47.8216 H         1 UNK         0.3000 
    191 H191       -2.0835  -21.3498  -48.9827 H         1 UNK         0.0600 
    192 H192       -0.2308  -19.3436  -47.6849 H         1 UNK         0.0600 
    193 H193       -1.7930  -18.8343  -48.2943 H         1 UNK         0.0600 
    194 H194       -0.6278  -19.5724  -49.3763 H         1 UNK         0.0600 
    195 H195       -1.3221  -21.3824  -45.5532 H         1 UNK         0.3000 
    196 H196       -3.8009  -20.4354  -44.5348 H         1 UNK         0.0600 
    197 H197       -3.0918  -21.6344  -42.4572 H         1 UNK         0.0600 
    198 H198       -1.7679  -20.7086  -43.1466 H         1 UNK         0.0600 
    199 H199       -1.8235  -22.4594  -43.3581 H         1 UNK         0.0600 
    200 H200       -2.9462  -23.5338  -45.9654 H         1 UNK         0.3000 
    201 H201       -5.6223  -24.7005  -45.3436 H         1 UNK         0.0600 
    202 H202       -3.6785  -26.1933  -44.9494 H         1 UNK         0.0600 
    203 H203       -3.1263  -25.9566  -46.6056 H         1 UNK         0.0600 
    204 H204       -4.6502  -26.7774  -46.2916 H         1 UNK         0.0600 
    205 H205       -3.3967  -23.8431  -48.0305 H         1 UNK         0.3000 
    206 H206       -5.2908  -24.4626  -50.1034 H         1 UNK         0.0600 
    207 H207       -2.8470  -24.8321  -50.3234 H         1 UNK         0.0600 
    208 H208       -3.4560  -23.8003  -51.6024 H         1 UNK         0.0600 
    209 H209       -2.5605  -23.0979  -50.2672 H         1 UNK         0.0600 
    210 H210       -6.5987  -22.6922  -48.5644 H         1 UNK         0.3000 
    211 H211       -7.9996  -20.9575  -48.6323 H         1 UNK         0.0600 
    212 H212       -7.6795  -21.3239  -51.6587 H         1 UNK         0.0600 
    213 H213       -9.0614  -20.6015  -50.8454 H         1 UNK         0.0600 
    214 H214       -8.7031  -22.3037  -50.6116 H         1 UNK         0.0600 
    215 H215       -5.5131  -19.9277  -48.0601 H         1 UNK         0.3000 
    216 H216       -4.3686  -18.0533  -47.8360 H         1 UNK         0.0600 
    217 H217       -5.4012  -15.8523  -48.1964 H         1 UNK         0.0600 
    218 H218       -6.5638  -16.9323  -47.4415 H         1 UNK         0.0600 
    219 H219       -6.6895  -16.5564  -49.1594 H         1 UNK         0.0600 
    220 H220       -3.8424  -19.7244  -49.9001 H         1 UNK         0.3000 
    221 H221       -2.2918  -20.0224  -51.4310 H         1 UNK         0.0600 
    222 H222       -2.0234  -17.0356  -52.0205 H         1 UNK         0.0600 
    223 H223       -1.1471  -17.8285  -50.7205 H         1 UNK         0.0600 
    224 H224       -0.8825  -18.3174  -52.3848 H         1 UNK         0.0600 
    225 H225       -5.3497  -18.7829  -51.9775 H         1 UNK         0.3000 
    226 H226       -5.3039  -18.2880  -54.7723 H         1 UNK         0.0600 
    227 H227       -7.7499  -18.3787  -54.6115 H         1 UNK         0.0600 
    228 H228       -7.6717  -19.1966  -53.0596 H         1 UNK         0.0600 
    229 H229       -7.1197  -17.5275  -53.2088 H         1 UNK         0.0600 
    230 H230       -5.5728  -21.3412  -52.9619 H         1 UNK         0.3000 
    231 H231       -6.3308  -22.8688  -55.3718 H         1 UNK         0.0600 
    232 H232       -7.2374  -23.4800  -53.1189 H         1 UNK         0.0600 
    233 H233       -5.6037  -23.8522  -52.5728 H         1 UNK         0.0600 
    234 H234       -6.3343  -24.7920  -53.8608 H         1 UNK         0.0600 
    235 H235       -3.4111  -21.8554  -53.7509 H         1 UNK         0.3000 
    236 H236       -1.7273  -23.9779  -54.9269 H         1 UNK         0.0600 
    237 H237        0.0724  -22.8644  -53.6249 H         1 UNK         0.0600 
    238 H238       -1.0511  -21.6191  -53.0922 H         1 UNK         0.0600 
    239 H239       -1.2820  -23.2974  -52.5993 H         1 UNK         0.0600 
    240 H240       -2.0883  -20.4003  -55.0847 H         1 UNK         0.3000 
    241 H241       -0.4547  -20.2972  -57.5769 H         1 UNK         0.0600 
    242 H242       -3.6686  -20.0392  -56.7724 H         1 UNK         0.3800 
    243 H243       -4.0718  -18.7565  -57.8767 H         1 UNK         0.3800 
    244 H244        0.2905  -18.0095  -56.6740 H         1 UNK         0.0800 
    245 H245       -0.4474  -18.4367  -55.1479 H         1 UNK         0.0800 
    246 H246        3.3537  -18.5154  -54.5673 H         1 UNK         0.0800 
    247 H247        1.8890  -17.5709  -54.5364 H         1 UNK         0.0800 
@<TRIPOS>BOND
     1    1    2 1    
     2    1  127 1    
     3    1  128 1    
     4    1  129 1    
     5    2    3 2    
     6    2    4 am   BACKBONE|DICT|INTERRES
     7    4    5 1    
     8    4  130 1    
     9    5    6 1    
    10    5   65 1    
    11    5  131 1    
    12    6    7 1    
    13    6  132 1    
    14    6  133 1    
    15    7    8 1    
    16    8    9 1    
    17    8  134 1    
    18    8  135 1    
    19    9   10 ar   
    20    9   14 ar   
    21   10   11 ar   
    22   10  136 1    
    23   11   12 ar   
    24   11  126 1    
    25   12   13 ar   
    26   12  137 1    
    27   13   14 ar   
    28   13   15 1    
    29   14  138 1    
    30   15   16 1    
    31   15  139 1    
    32   15  140 1    
    33   16   17 1    
    34   17   18 1    
    35   17  141 1    
    36   17  142 1    
    37   18   19 1    
    38   18   67 1    
    39   18  143 1    
    40   19   20 am   BACKBONE|DICT|INTERRES
    41   19  144 1    
    42   20   21 2    
    43   20   22 1    
    44   22   23 1    
    45   22   24 1    
    46   22  145 1    
    47   23  146 1    
    48   23  147 1    
    49   23  148 1    
    50   24   25 am   BACKBONE|DICT|INTERRES
    51   24  149 1    
    52   25   26 2    
    53   25   27 1    
    54   27   28 1    
    55   27   29 1    
    56   27  150 1    
    57   28  151 1    
    58   28  152 1    
    59   28  153 1    
    60   29   30 am   BACKBONE|DICT|INTERRES
    61   29  154 1    
    62   30   31 2    
    63   30   32 1    
    64   32   33 1    
    65   32   34 1    
    66   32  155 1    
    67   33  156 1    
    68   33  157 1    
    69   33  158 1    
    70   34   35 am   BACKBONE|DICT|INTERRES
    71   34  159 1    
    72   35   36 2    
    73   35   37 1    
    74   37   38 1    
    75   37   39 1    
    76   37  160 1    
    77   38  161 1    
    78   38  162 1    
    79   38  163 1    
    80   39   40 am   BACKBONE|DICT|INTERRES
    81   39  164 1    
    82   40   41 2    
    83   40   42 1    
    84   42   43 1    
    85   42   44 1    
    86   42  165 1    
    87   43  166 1    
    88   43  167 1    
    89   43  168 1    
    90   44   45 am   BACKBONE|DICT|INTERRES
    91   44  169 1    
    92   45   46 2    
    93   45   47 1    
    94   47   48 1    
    95   47   49 1    
    96   47  170 1    
    97   48  171 1    
    98   48  172 1    
    99   48  173 1    
   100   49   50 am   BACKBONE|DICT|INTERRES
   101   49  174 1    
   102   50   51 2    
   103   50   52 1    
   104   52   53 1    
   105   52   54 1    
   106   52  175 1    
   107   53  176 1    
   108   53  177 1    
   109   53  178 1    
   110   54   55 am   BACKBONE|DICT|INTERRES
   111   54  179 1    
   112   55   56 2    
   113   55   57 1    
   114   57   58 1    
   115   57   59 1    
   116   57  180 1    
   117   58  181 1    
   118   58  182 1    
   119   58  183 1    
   120   59   60 am   BACKBONE|DICT|INTERRES
   121   59  184 1    
   122   60   61 2    
   123   60   62 1    
   124   62   63 1    
   125   62   64 1    
   126   62  185 1    
   127   63  186 1    
   128   63  187 1    
   129   63  188 1    
   130   64   65 am   BACKBONE|DICT|INTERRES
   131   64  189 1    
   132   65   66 2    
   133   67   68 2    
   134   67   69 am   BACKBONE|DICT|INTERRES
   135   69   70 1    
   136   69  190 1    
   137   70   71 1    
   138   70   72 1    
   139   70  191 1    
   140   71  192 1    
   141   71  193 1    
   142   71  194 1    
   143   72   73 2    
   144   72   74 am   BACKBONE|DICT|INTERRES
   145   74   75 1    
   146   74  195 1    
   147   75   76 1    
   148   75   77 1    
   149   75  196 1    
   150   76  197 1    
   151   76  198 1    
   152   76  199 1    
   153   77   78 2    
   154   77   79 am   BACKBONE|DICT|INTERRES
   155   79   80 1    
   156   79  200 1    
   157   80   81 1    
   158   80   82 1    
   159   80  201 1    
   160   81  202 1    
   161   81  203 1    
   162   81  204 1    
   163   82   83 2    
   164   82   84 am   BACKBONE|DICT|INTERRES
   165   84   85 1    
   166   84  205 1    
   167   85   86 1    
   168   85   87 1    
   169   85  206 1    
   170   86  207 1    
   171   86  208 1    
   172   86  209 1    
   173   87   88 2    
   174   87   89 am   BACKBONE|DICT|INTERRES
   175   89   90 1    
   176   89  210 1    
   177   90   91 1    
   178   90   92 1    
   179   90  211 1    
   180   91  212 1    
   181   91  213 1    
   182   91  214 1    
   183   92   93 2    
   184   92   94 am   BACKBONE|DICT|INTERRES
   185   94   95 1    
   186   94  215 1    
   187   95   96 1    
   188   95   97 1    
   189   95  216 1    
   190   96  217 1    
   191   96  218 1    
   192   96  219 1    
   193   97   98 2    
   194   97   99 am   BACKBONE|DICT|INTERRES
   195   99  100 1    
   196   99  220 1    
   197  100  101 1    
   198  100  102 1    
   199  100  221 1    
   200  101  222 1    
   201  101  223 1    
   202  101  224 1    
   203  102  103 2    
   204  102  104 am   BACKBONE|DICT|INTERRES
   205  104  105 1    
   206  104  225 1    
   207  105  106 1    
   208  105  107 1    
   209  105  226 1    
   210  106  227 1    
   211  106  228 1    
   212  106  229 1    
   213  107  108 2    
   214  107  109 am   BACKBONE|DICT|INTERRES
   215  109  110 1    
   216  109  230 1    
   217  110  111 1    
   218  110  112 1    
   219  110  231 1    
   220  111  232 1    
   221  111  233 1    
   222  111  234 1    
   223  112  113 2    
   224  112  114 am   BACKBONE|DICT|INTERRES
   225  114  115 1    
   226  114  235 1    
   227  115  116 1    
   228  115  117 1    
   229  115  236 1    
   230  116  237 1    
   231  116  238 1    
   232  116  239 1    
   233  117  118 2    
   234  117  119 am   BACKBONE|DICT|INTERRES
   235  119  120 1    
   236  119  240 1    
   237  120  121 1    
   238  120  124 1    
   239  120  241 1    
   240  121  122 am   BACKBONE|DICT|INTERRES
   241  121  123 2    
   242  122  242 1    
   243  122  243 1    
   244  124  125 1    
   245  124  244 1    
   246  124  245 1    
   247  125  126 1    
   248  126  246 1    
   249  126  247 1    
@<TRIPOS>SUBSTRUCTURE
     1 UNK         1 GROUP             0       ****    0 ROOT    
