@<TRIPOS>MOLECULE
3R540
247   249    1
SMALL
USER_CHARGES


@<TRIPOS>ATOM
      1 CA          2.0845  -16.1854  -49.2859 C.3       0 UNK        -0.1800 
      2 C           1.3876  -14.9915  -48.6511 C.2       0 UNK         0.5000 
      3 O           1.3594  -13.9118  -49.2418 O.2       0 UNK        -0.5000 
      4 N           0.8496  -15.1853  -47.4395 N.am      1 UNK        -0.5000 
      5 CA          0.1319  -14.2257  -46.5855 C.3       1 UNK         0.1400 
      6 C6         -1.1980  -13.7104  -47.1936 C.3       23 UNK        -0.0398 
      7 S7         -2.4650  -15.0198  -47.2494 S.3       23 UNK        -0.2404 
      8 C8         -3.0143  -14.9709  -48.9828 C.3       23 UNK        -0.0205 
      9 C9         -2.0604  -15.6728  -49.9397 C.ar      23 UNK        -0.0193 
     10 C10        -1.5989  -15.0089  -51.0791 C.ar      23 UNK        -0.1150 
     11 C11        -0.8047  -15.6751  -52.0165 C.ar      23 UNK        -0.0193 
     12 C12        -0.4542  -17.0092  -51.7942 C.ar      23 UNK        -0.1150 
     13 C13        -0.8885  -17.6841  -50.6502 C.ar      23 UNK        -0.0193 
     14 C14        -1.6919  -17.0053  -49.7260 C.ar      23 UNK        -0.1150 
     15 C15        -0.4654  -19.1358  -50.4394 C.3       23 UNK        -0.0205 
     16 S16        -1.7948  -20.1972  -49.7861 S.3       23 UNK        -0.2404 
     17 C17        -1.4867  -20.1730  -47.9881 C.3       23 UNK        -0.0398 
     18 CA         -1.1954  -21.5863  -47.4192 C.3       11 UNK         0.1400 
     19 N          -0.3960  -21.5304  -46.1898 N.am      11 UNK        -0.5000 
     20 C           0.1006  -22.5964  -45.5423 C.2       10 UNK         0.5000 
     21 O          -0.0321  -23.7561  -45.9306 O.2       10 UNK        -0.5000 
     22 CA          0.8189  -22.3299  -44.2059 C.3       10 UNK         0.1400 
     23 CB          2.2516  -21.8324  -44.4434 C.3       10 UNK        -0.1800 
     24 N           0.0926  -21.3797  -43.3617 N.am      10 UNK        -0.5000 
     25 C          -1.1352  -21.5976  -42.8672 C.2       9 UNK         0.5000 
     26 O          -1.7573  -22.6477  -43.0172 O.2       9 UNK        -0.5000 
     27 CA         -1.8103  -20.4247  -42.1386 C.3       9 UNK         0.1400 
     28 CB         -1.3774  -20.3621  -40.6664 C.3       9 UNK        -0.1800 
     29 N          -1.5356  -19.1472  -42.7931 N.am      9 UNK        -0.5000 
     30 C          -1.9780  -18.8098  -44.0132 C.2       8 UNK         0.5000 
     31 O          -2.6974  -19.5284  -44.7084 O.2       8 UNK        -0.5000 
     32 CA         -1.4825  -17.4610  -44.5600 C.3       8 UNK         0.1400 
     33 CB         -2.2819  -16.3091  -43.9296 C.3       8 UNK        -0.1800 
     34 N          -0.0491  -17.2731  -44.3141 N.am      8 UNK        -0.5000 
     35 C           0.9091  -17.9994  -44.9123 C.2       7 UNK         0.5000 
     36 O           0.6736  -18.8319  -45.7850 O.2       7 UNK        -0.5000 
     37 CA          2.3694  -17.8026  -44.4597 C.3       7 UNK         0.1400 
     38 CB          3.1156  -16.8638  -45.4129 C.3       7 UNK        -0.1800 
     39 N           2.5065  -17.3050  -43.0948 N.am      7 UNK        -0.5000 
     40 C           2.0842  -17.9508  -42.0001 C.2       6 UNK         0.5000 
     41 O           1.5990  -19.0828  -42.0241 O.2       6 UNK        -0.5000 
     42 CA          2.1592  -17.1780  -40.6695 C.3       6 UNK         0.1400 
     43 CB          3.4399  -17.5469  -39.9075 C.3       6 UNK        -0.1800 
     44 N           2.1005  -15.7202  -40.8236 N.am      6 UNK        -0.5000 
     45 C           1.1160  -15.0183  -41.4000 C.2       5 UNK         0.5000 
     46 O           0.1216  -15.5424  -41.9009 O.2       5 UNK        -0.5000 
     47 CA          1.2735  -13.4860  -41.4722 C.3       5 UNK         0.1400 
     48 CB          0.7122  -12.8136  -40.2051 C.3       5 UNK        -0.1800 
     49 N           2.6333  -13.0126  -41.7791 N.am      5 UNK        -0.5000 
     50 C           3.7433  -13.0971  -41.0300 C.2       4 UNK         0.5000 
     51 O           3.7767  -13.6431  -39.9257 O.2       4 UNK        -0.5000 
     52 CA          5.0301  -12.4710  -41.6091 C.3       4 UNK         0.1400 
     53 CB          6.3100  -13.0807  -40.9984 C.3       4 UNK        -0.1800 
     54 N           5.1140  -12.4816  -43.0745 N.am      4 UNK        -0.5000 
     55 C           5.1421  -13.5458  -43.8887 C.2       3 UNK         0.5000 
     56 O           4.9376  -14.7043  -43.5217 O.2       3 UNK        -0.5000 
     57 CA          5.4399  -13.2343  -45.3698 C.3       3 UNK         0.1400 
     58 CB          5.9740  -14.4474  -46.1499 C.3       3 UNK        -0.1800 
     59 N           4.2599  -12.7133  -46.0535 N.am      3 UNK        -0.5000 
     60 C           3.7747  -11.4717  -45.9281 C.2       2 UNK         0.5000 
     61 O           4.3034  -10.6006  -45.2354 O.2       2 UNK        -0.5000 
     62 CA          2.4793  -11.1496  -46.6969 C.3       2 UNK         0.1400 
     63 CB          2.8026  -10.4378  -48.0189 C.3       2 UNK        -0.1800 
     64 N           1.6546  -12.3263  -46.9828 N.am      2 UNK        -0.5000 
     65 C           1.0036  -13.0587  -46.0721 C.2       1 UNK         0.5000 
     66 O           1.0742  -12.8468  -44.8616 O.2       1 UNK        -0.5000 
     67 C          -2.4979  -22.3938  -47.2268 C.2       11 UNK         0.5000 
     68 O          -2.8465  -23.2098  -48.0830 O.2       11 UNK        -0.5000 
     69 N          -3.1748  -22.1740  -46.0909 N.am      12 UNK        -0.5000 
     70 CA         -4.3701  -22.9107  -45.6865 C.3       12 UNK         0.1400 
     71 CB         -5.0220  -22.2166  -44.4815 C.3       12 UNK        -0.1800 
     72 C          -4.0772  -24.3925  -45.3890 C.2       12 UNK         0.5000 
     73 O          -4.7806  -25.2602  -45.9063 O.2       12 UNK        -0.5000 
     74 N          -3.0302  -24.6586  -44.5945 N.am      13 UNK        -0.5000 
     75 CA         -2.5966  -26.0010  -44.1951 C.3       13 UNK         0.1400 
     76 CB         -1.4835  -25.8887  -43.1426 C.3       13 UNK        -0.1800 
     77 C          -2.1350  -26.8759  -45.3748 C.2       13 UNK         0.5000 
     78 O          -2.4228  -28.0732  -45.3927 O.2       13 UNK        -0.5000 
     79 N          -1.4553  -26.2601  -46.3507 N.am      14 UNK        -0.5000 
     80 CA         -1.0152  -26.8987  -47.5925 C.3       14 UNK         0.1400 
     81 CB          0.0793  -26.0265  -48.2294 C.3       14 UNK        -0.1800 
     82 C          -2.1553  -27.1334  -48.6046 C.2       14 UNK         0.5000 
     83 O          -1.9368  -27.8324  -49.5944 O.2       14 UNK        -0.5000 
     84 N          -3.3225  -26.5114  -48.3709 N.am      15 UNK        -0.5000 
     85 CA         -4.4893  -26.4215  -49.2589 C.3       15 UNK         0.1400 
     86 CB         -5.0908  -27.8101  -49.5544 C.3       15 UNK        -0.1800 
     87 C          -4.2188  -25.6058  -50.5419 C.2       15 UNK         0.5000 
     88 O          -5.0153  -25.6459  -51.4803 O.2       15 UNK        -0.5000 
     89 N          -3.1282  -24.8297  -50.5437 N.am      16 UNK        -0.5000 
     90 CA         -2.7417  -23.9101  -51.6092 C.3       16 UNK         0.1400 
     91 CB         -1.2916  -23.4659  -51.3728 C.3       16 UNK        -0.1800 
     92 C          -3.7005  -22.7093  -51.7082 C.2       16 UNK         0.5000 
     93 O          -3.9191  -22.1921  -52.8037 O.2       16 UNK        -0.5000 
     94 N          -4.3006  -22.3251  -50.5722 N.am      17 UNK        -0.5000 
     95 CA         -5.3447  -21.3050  -50.4901 C.3       17 UNK         0.1400 
     96 CB         -5.5889  -20.9390  -49.0185 C.3       17 UNK        -0.1800 
     97 C          -6.6526  -21.7640  -51.1607 C.2       17 UNK         0.5000 
     98 O          -7.3002  -20.9659  -51.8374 O.2       17 UNK        -0.5000 
     99 N          -6.9928  -23.0514  -50.9962 N.am      18 UNK        -0.5000 
    100 CA        -8.1452  -23.6959  -51.6308 C.3       18 UNK         0.1400 
    101 CB        -8.4523  -25.0213  -50.9168 C.3       18 UNK        -0.1800 
    102 C         -7.9269  -23.9176  -53.1389 C.2       18 UNK         0.5000 
    103 O         -8.8686  -23.7710  -53.9183 O.2       18 UNK        -0.5000 
    104 N         -6.6795  -24.2217  -53.5256 N.am      19 UNK        -0.5000 
    105 CA        -6.2289  -24.3170  -54.9172 C.3       19 UNK         0.1400 
    106 CB        -4.8777  -25.0474  -54.9519 C.3       19 UNK        -0.1800 
    107 C         -6.1161  -22.9482  -55.6243 C.2       19 UNK         0.5000 
    108 O         -5.9954  -22.9172  -56.8495 O.2       19 UNK        -0.5000 
    109 N         -6.1543  -21.8565  -54.8454 N.am      20 UNK        -0.5000 
    110 CA        -6.0400  -20.4536  -55.2470 C.3       20 UNK         0.1400 
    111 CB        -7.2276  -20.0325  -56.1375 C.3       20 UNK        -0.1800 
    112 C         -4.6657  -20.1309  -55.8652 C.2       20 UNK         0.5000 
    113 O         -4.5884  -19.5144  -56.9314 O.2       20 UNK        -0.5000 
    114 N         -3.5945  -20.5369  -55.1686 N.am      21 UNK        -0.5000 
    115 CA        -2.1834  -20.3505  -55.5326 C.3       21 UNK         0.1400 
    116 CB        -1.3335  -21.3044  -54.6758 C.3       21 UNK        -0.1800 
    117 C         -1.6857  -18.8854  -55.4393 C.2       21 UNK         0.5000 
    118 O         -0.6006  -18.6279  -54.9155 O.2       21 UNK        -0.5000 
    119 N         -2.4862  -17.9510  -55.9547 N.am      22 UNK        -0.5000 
    120 CA        -2.2332  -16.5059  -56.0094 C.3       22 UNK         0.1400 
    121 C         -2.8422  -15.8351  -57.2790 C.2       22 UNK         0.5000 
    122 N         -3.4797  -16.5663  -58.1885 N.am      22 UNK        -0.7600 
    123 O         -2.7200  -14.6279  -57.4652 O.2       22 UNK        -0.5000 
    124 C124       -2.6594  -15.8144  -54.6848 C.3       23 UNK        -0.0398 
    125 S125       -1.6985  -14.3102  -54.2917 S.3       23 UNK        -0.2404 
    126 C126       -0.3300  -14.9653  -53.2778 C.3       23 UNK        -0.0205 
    127 H127        1.7354  -17.1265  -48.8602 H         1 UNK         0.0600 
    128 H128        3.1613  -16.1153  -49.1333 H         1 UNK         0.0600 
    129 H129        1.8938  -16.2078  -50.3584 H         1 UNK         0.0600 
    130 H130        0.9056  -16.1146  -47.0513 H         1 UNK         0.3000 
    131 H131       -0.1226  -14.7929  -45.6902 H         1 UNK         0.0600 
    132 H132       -1.6130  -12.9007  -46.5905 H         1 UNK         0.0800 
    133 H133       -1.0384  -13.2942  -48.1891 H         1 UNK         0.0800 
    134 H134       -3.1807  -13.9340  -49.2788 H         1 UNK         0.0800 
    135 H135       -3.9846  -15.4646  -49.0491 H         1 UNK         0.0800 
    136 H136       -1.8807  -13.9806  -51.2563 H         1 UNK         0.1150 
    137 H137        0.1603  -17.5262  -52.5182 H         1 UNK         0.1150 
    138 H138       -2.0480  -17.5136  -48.8424 H         1 UNK         0.1150 
    139 H139        0.4119  -19.1711  -49.7931 H         1 UNK         0.0800 
    140 H140       -0.1537  -19.5671  -51.3921 H         1 UNK         0.0800 
    141 H141       -2.3322  -19.7019  -47.4837 H         1 UNK         0.0800 
    142 H142       -0.6392  -19.5152  -47.8060 H         1 UNK         0.0800 
    143 H143       -0.5847  -22.1279  -48.1444 H         1 UNK         0.0600 
    144 H144       -0.1963  -20.6038  -45.8267 H         1 UNK         0.3000 
    145 H145        0.8761  -23.2747  -43.6616 H         1 UNK         0.0600 
    146 H146        2.8456  -22.5956  -44.9475 H         1 UNK         0.0600 
    147 H147        2.7524  -21.5958  -43.5043 H         1 UNK         0.0600 
    148 H148        2.2705  -20.9425  -45.0709 H         1 UNK         0.0600 
    149 H149        0.5542  -20.5042  -43.1418 H         1 UNK         0.3000 
    150 H150       -2.8891  -20.5917  -42.1673 H         1 UNK         0.0600 
    151 H151       -0.3040  -20.2032  -40.5630 H         1 UNK         0.0600 
    152 H152       -1.6203  -21.2925  -40.1515 H         1 UNK         0.0600 
    153 H153       -1.8883  -19.5564  -40.1389 H         1 UNK         0.0600 
    154 H154       -0.9116  -18.5152  -42.3127 H         1 UNK         0.3000 
    155 H155       -1.6492  -17.4493  -45.6391 H         1 UNK         0.0600 
    156 H156       -1.9091  -15.3368  -44.2487 H         1 UNK         0.0600 
    157 H157       -2.2441  -16.3350  -42.8402 H         1 UNK         0.0600 
    158 H158       -3.3317  -16.3653  -44.2198 H         1 UNK         0.0600 
    159 H159        0.1993  -16.6305  -43.5679 H         1 UNK         0.3000 
    160 H160        2.8570  -18.7773  -44.5024 H         1 UNK         0.0600 
    161 H161        2.7535  -15.8377  -45.3398 H         1 UNK         0.0600 
    162 H162        3.0151  -17.1864  -46.4498 H         1 UNK         0.0600 
    163 H163        4.1796  -16.8626  -45.1783 H         1 UNK         0.0600 
    164 H164        2.9155  -16.3872  -42.9828 H         1 UNK         0.3000 
    165 H165        1.2994  -17.4810  -40.0690 H         1 UNK         0.0600 
    166 H166        3.5084  -18.6249  -39.7545 H         1 UNK         0.0600 
    167 H167        4.3330  -17.2329  -40.4495 H         1 UNK         0.0600 
    168 H168        3.4626  -17.0773  -38.9239 H         1 UNK         0.0600 
    169 H169        2.8674  -15.1846  -40.4249 H         1 UNK         0.3000 
    170 H170        0.6531  -13.1555  -42.3055 H         1 UNK         0.0600 
    171 H171        0.7621  -11.7274  -40.2803 H         1 UNK         0.0600 
    172 H172        1.2521  -13.1138  -39.3068 H         1 UNK         0.0600 
    173 H173       -0.3349  -13.0808  -40.0571 H         1 UNK         0.0600 
    174 H174        2.7301  -12.5891  -42.6921 H         1 UNK         0.3000 
    175 H175        5.0005  -11.4198  -41.3191 H         1 UNK         0.0600 
    176 H176        6.3799  -14.1513  -41.1943 H         1 UNK         0.0600 
    177 H177        6.3347  -12.9438  -39.9167 H         1 UNK         0.0600 
    178 H178        7.2046  -12.6066  -41.4021 H         1 UNK         0.0600 
    179 H179        5.1908  -11.5703  -43.5128 H         1 UNK         0.3000 
    180 H180        6.2232  -12.4732  -45.3894 H         1 UNK         0.0600 
    181 H181        5.2000  -15.1914  -46.3263 H         1 UNK         0.0600 
    182 H182        6.7893  -14.9347  -45.6136 H         1 UNK         0.0600 
    183 H183        6.3627  -14.1432  -47.1219 H         1 UNK         0.0600 
    184 H184        3.7451  -13.3641  -46.6269 H         1 UNK         0.3000 
    185 H185        1.8924  -10.4696  -46.0760 H         1 UNK         0.0600 
    186 H186        3.3984   -9.5405  -47.8460 H         1 UNK         0.0600 
    187 H187        3.3663  -11.0826  -48.6945 H         1 UNK         0.0600 
    188 H188        1.8923  -10.1283  -48.5328 H         1 UNK         0.0600 
    189 H189        1.5771  -12.6168  -47.9557 H         1 UNK         0.3000 
    190 H190       -2.8454  -21.4534  -45.4572 H         1 UNK         0.3000 
    191 H191       -5.0798  -22.8773  -46.5146 H         1 UNK         0.0600 
    192 H192       -5.2887  -21.1865  -44.7189 H         1 UNK         0.0600 
    193 H193       -5.9368  -22.7302  -44.1835 H         1 UNK         0.0600 
    194 H194       -4.3595  -22.1975  -43.6163 H         1 UNK         0.0600 
    195 H195       -2.5172  -23.8816  -44.1833 H         1 UNK         0.3000 
    196 H196       -3.4513  -26.4987  -43.7325 H         1 UNK         0.0600 
    197 H197       -1.1488  -26.8748  -42.8182 H         1 UNK         0.0600 
    198 H198       -1.8308  -25.3562  -42.2571 H         1 UNK         0.0600 
    199 H199       -0.6148  -25.3576  -43.5334 H         1 UNK         0.0600 
    200 H200       -1.1955  -25.2848  -46.2267 H         1 UNK         0.3000 
    201 H201       -0.5827  -27.8718  -47.3517 H         1 UNK         0.0600 
    202 H202        0.4606  -26.4774  -49.1465 H         1 UNK         0.0600 
    203 H203        0.9260  -25.9019  -47.5542 H         1 UNK         0.0600 
    204 H204       -0.2954  -25.0335  -48.4821 H         1 UNK         0.0600 
    205 H205       -3.4009  -25.9745  -47.5155 H         1 UNK         0.3000 
    206 H206       -5.2377  -25.8556  -48.7025 H         1 UNK         0.0600 
    207 H207       -5.2658  -28.3677  -48.6343 H         1 UNK         0.0600 
    208 H208       -6.0503  -27.7181  -50.0645 H         1 UNK         0.0600 
    209 H209       -4.4416  -28.4087  -50.1935 H         1 UNK         0.0600 
    210 H210       -2.5892  -24.7787  -49.6897 H         1 UNK         0.3000 
    211 H211       -2.7813  -24.4478  -52.5574 H         1 UNK         0.0600 
    212 H212       -0.6090  -24.3138  -51.4318 H         1 UNK         0.0600 
    213 H213       -0.9710  -22.7398  -52.1184 H         1 UNK         0.0600 
    214 H214       -1.1656  -23.0091  -50.3920 H         1 UNK         0.0600 
    215 H215       -4.0036  -22.7597  -49.7053 H         1 UNK         0.3000 
    216 H216       -4.9906  -20.4129  -51.0115 H         1 UNK         0.0600 
    217 H217       -5.9421  -21.7958  -48.4448 H         1 UNK         0.0600 
    218 H218       -6.3408  -20.1538  -48.9323 H         1 UNK         0.0600 
    219 H219       -4.6795  -20.5685  -48.5460 H         1 UNK         0.0600 
    220 H220       -6.3830  -23.6455  -50.4556 H         1 UNK         0.3000 
    221 H221       -9.0110  -23.0407  -51.5127 H         1 UNK         0.0600 
    222 H222       -7.6306  -25.7320  -51.0052 H         1 UNK         0.0600 
    223 H223       -8.6465  -24.8626  -49.8560 H         1 UNK         0.0600 
    224 H224       -9.3386  -25.4941  -51.3417 H         1 UNK         0.0600 
    225 H225       -5.9853  -24.4113  -52.8108 H         1 UNK         0.3000 
    226 H226       -6.9554  -24.9154  -55.4705 H         1 UNK         0.0600 
    227 H227       -4.9298  -26.0072  -54.4373 H         1 UNK         0.0600 
    228 H228       -4.5679  -25.2445  -55.9789 H         1 UNK         0.0600 
    229 H229       -4.0922  -24.4550  -54.4840 H         1 UNK         0.0600 
    230 H230       -6.2129  -22.0117  -53.8486 H         1 UNK         0.3000 
    231 H231       -6.1018  -19.8710  -54.3267 H         1 UNK         0.0600 
    232 H232       -7.2122  -20.5362  -57.1043 H         1 UNK         0.0600 
    233 H233       -7.2083  -18.9592  -56.3294 H         1 UNK         0.0600 
    234 H234       -8.1791  -20.2588  -55.6562 H         1 UNK         0.0600 
    235 H235       -3.7566  -21.0508  -54.3051 H         1 UNK         0.3000 
    236 H236       -2.0688  -20.6528  -56.5752 H         1 UNK         0.0600 
    237 H237       -1.3675  -21.0182  -53.6241 H         1 UNK         0.0600 
    238 H238       -1.6848  -22.3333  -54.7574 H         1 UNK         0.0600 
    239 H239       -0.2886  -21.2926  -54.9880 H         1 UNK         0.0600 
    240 H240       -3.3594  -18.2691  -56.3648 H         1 UNK         0.3000 
    241 H241       -1.1550  -16.3821  -56.1260 H         1 UNK         0.0600 
    242 H242       -3.5926  -17.5638  -58.0919 H         1 UNK         0.3800 
    243 H243       -3.8554  -16.1063  -59.0032 H         1 UNK         0.3800 
    244 H244       -3.7183  -15.5531  -54.7126 H         1 UNK         0.0800 
    245 H245       -2.5645  -16.5072  -53.8487 H         1 UNK         0.0800 
    246 H246        0.2714  -15.6341  -53.8959 H         1 UNK         0.0800 
    247 H247        0.3234  -14.1406  -52.9904 H         1 UNK         0.0800 
@<TRIPOS>BOND
     1    1    2 1    
     2    1  127 1    
     3    1  128 1    
     4    1  129 1    
     5    2    3 2    
     6    2    4 am   BACKBONE|DICT|INTERRES
     7    4    5 1    
     8    4  130 1    
     9    5    6 1    
    10    5   65 1    
    11    5  131 1    
    12    6    7 1    
    13    6  132 1    
    14    6  133 1    
    15    7    8 1    
    16    8    9 1    
    17    8  134 1    
    18    8  135 1    
    19    9   10 ar   
    20    9   14 ar   
    21   10   11 ar   
    22   10  136 1    
    23   11   12 ar   
    24   11  126 1    
    25   12   13 ar   
    26   12  137 1    
    27   13   14 ar   
    28   13   15 1    
    29   14  138 1    
    30   15   16 1    
    31   15  139 1    
    32   15  140 1    
    33   16   17 1    
    34   17   18 1    
    35   17  141 1    
    36   17  142 1    
    37   18   19 1    
    38   18   67 1    
    39   18  143 1    
    40   19   20 am   BACKBONE|DICT|INTERRES
    41   19  144 1    
    42   20   21 2    
    43   20   22 1    
    44   22   23 1    
    45   22   24 1    
    46   22  145 1    
    47   23  146 1    
    48   23  147 1    
    49   23  148 1    
    50   24   25 am   BACKBONE|DICT|INTERRES
    51   24  149 1    
    52   25   26 2    
    53   25   27 1    
    54   27   28 1    
    55   27   29 1    
    56   27  150 1    
    57   28  151 1    
    58   28  152 1    
    59   28  153 1    
    60   29   30 am   BACKBONE|DICT|INTERRES
    61   29  154 1    
    62   30   31 2    
    63   30   32 1    
    64   32   33 1    
    65   32   34 1    
    66   32  155 1    
    67   33  156 1    
    68   33  157 1    
    69   33  158 1    
    70   34   35 am   BACKBONE|DICT|INTERRES
    71   34  159 1    
    72   35   36 2    
    73   35   37 1    
    74   37   38 1    
    75   37   39 1    
    76   37  160 1    
    77   38  161 1    
    78   38  162 1    
    79   38  163 1    
    80   39   40 am   BACKBONE|DICT|INTERRES
    81   39  164 1    
    82   40   41 2    
    83   40   42 1    
    84   42   43 1    
    85   42   44 1    
    86   42  165 1    
    87   43  166 1    
    88   43  167 1    
    89   43  168 1    
    90   44   45 am   BACKBONE|DICT|INTERRES
    91   44  169 1    
    92   45   46 2    
    93   45   47 1    
    94   47   48 1    
    95   47   49 1    
    96   47  170 1    
    97   48  171 1    
    98   48  172 1    
    99   48  173 1    
   100   49   50 am   BACKBONE|DICT|INTERRES
   101   49  174 1    
   102   50   51 2    
   103   50   52 1    
   104   52   53 1    
   105   52   54 1    
   106   52  175 1    
   107   53  176 1    
   108   53  177 1    
   109   53  178 1    
   110   54   55 am   BACKBONE|DICT|INTERRES
   111   54  179 1    
   112   55   56 2    
   113   55   57 1    
   114   57   58 1    
   115   57   59 1    
   116   57  180 1    
   117   58  181 1    
   118   58  182 1    
   119   58  183 1    
   120   59   60 am   BACKBONE|DICT|INTERRES
   121   59  184 1    
   122   60   61 2    
   123   60   62 1    
   124   62   63 1    
   125   62   64 1    
   126   62  185 1    
   127   63  186 1    
   128   63  187 1    
   129   63  188 1    
   130   64   65 am   BACKBONE|DICT|INTERRES
   131   64  189 1    
   132   65   66 2    
   133   67   68 2    
   134   67   69 am   BACKBONE|DICT|INTERRES
   135   69   70 1    
   136   69  190 1    
   137   70   71 1    
   138   70   72 1    
   139   70  191 1    
   140   71  192 1    
   141   71  193 1    
   142   71  194 1    
   143   72   73 2    
   144   72   74 am   BACKBONE|DICT|INTERRES
   145   74   75 1    
   146   74  195 1    
   147   75   76 1    
   148   75   77 1    
   149   75  196 1    
   150   76  197 1    
   151   76  198 1    
   152   76  199 1    
   153   77   78 2    
   154   77   79 am   BACKBONE|DICT|INTERRES
   155   79   80 1    
   156   79  200 1    
   157   80   81 1    
   158   80   82 1    
   159   80  201 1    
   160   81  202 1    
   161   81  203 1    
   162   81  204 1    
   163   82   83 2    
   164   82   84 am   BACKBONE|DICT|INTERRES
   165   84   85 1    
   166   84  205 1    
   167   85   86 1    
   168   85   87 1    
   169   85  206 1    
   170   86  207 1    
   171   86  208 1    
   172   86  209 1    
   173   87   88 2    
   174   87   89 am   BACKBONE|DICT|INTERRES
   175   89   90 1    
   176   89  210 1    
   177   90   91 1    
   178   90   92 1    
   179   90  211 1    
   180   91  212 1    
   181   91  213 1    
   182   91  214 1    
   183   92   93 2    
   184   92   94 am   BACKBONE|DICT|INTERRES
   185   94   95 1    
   186   94  215 1    
   187   95   96 1    
   188   95   97 1    
   189   95  216 1    
   190   96  217 1    
   191   96  218 1    
   192   96  219 1    
   193   97   98 2    
   194   97   99 am   BACKBONE|DICT|INTERRES
   195   99  100 1    
   196   99  220 1    
   197  100  101 1    
   198  100  102 1    
   199  100  221 1    
   200  101  222 1    
   201  101  223 1    
   202  101  224 1    
   203  102  103 2    
   204  102  104 am   BACKBONE|DICT|INTERRES
   205  104  105 1    
   206  104  225 1    
   207  105  106 1    
   208  105  107 1    
   209  105  226 1    
   210  106  227 1    
   211  106  228 1    
   212  106  229 1    
   213  107  108 2    
   214  107  109 am   BACKBONE|DICT|INTERRES
   215  109  110 1    
   216  109  230 1    
   217  110  111 1    
   218  110  112 1    
   219  110  231 1    
   220  111  232 1    
   221  111  233 1    
   222  111  234 1    
   223  112  113 2    
   224  112  114 am   BACKBONE|DICT|INTERRES
   225  114  115 1    
   226  114  235 1    
   227  115  116 1    
   228  115  117 1    
   229  115  236 1    
   230  116  237 1    
   231  116  238 1    
   232  116  239 1    
   233  117  118 2    
   234  117  119 am   BACKBONE|DICT|INTERRES
   235  119  120 1    
   236  119  240 1    
   237  120  121 1    
   238  120  124 1    
   239  120  241 1    
   240  121  122 am   BACKBONE|DICT|INTERRES
   241  121  123 2    
   242  122  242 1    
   243  122  243 1    
   244  124  125 1    
   245  124  244 1    
   246  124  245 1    
   247  125  126 1    
   248  126  246 1    
   249  126  247 1    
@<TRIPOS>SUBSTRUCTURE
     1 UNK         1 GROUP             0       ****    0 ROOT    
