@<TRIPOS>MOLECULE
3R540
247   249    1
SMALL
USER_CHARGES


@<TRIPOS>ATOM
      1 CA          2.9628  -15.1953  -48.3693 C.3       0 UNK        -0.1800 
      2 C           1.5223  -14.7114  -48.4461 C.2       0 UNK         0.5000 
      3 O           1.2016  -13.6384  -47.9346 O.2       0 UNK        -0.5000 
      4 N           0.6449  -15.5061  -49.0659 N.am      1 UNK        -0.5000 
      5 CA         -0.7851  -15.2207  -49.2017 C.3       1 UNK         0.1400 
      6 C6         -1.5677  -16.4362  -49.7506 C.3       23 UNK        -0.0398 
      7 S7         -1.3326  -17.9430  -48.7498 S.3       23 UNK        -0.2404 
      8 C8         -0.6322  -19.0681  -49.9924 C.3       23 UNK        -0.0205 
      9 C9          0.8584  -18.8617  -50.1967 C.ar      23 UNK        -0.0193 
     10 C10         1.3275  -18.0134  -51.2001 C.ar      23 UNK        -0.1150 
     11 C11         2.6929  -17.9237  -51.4752 C.ar      23 UNK        -0.0193 
     12 C12         3.5962  -18.6691  -50.7112 C.ar      23 UNK        -0.1150 
     13 C13         3.1437  -19.5073  -49.6866 C.ar      23 UNK        -0.0193 
     14 C14         1.7722  -19.5820  -49.4257 C.ar      23 UNK        -0.1150 
     15 C15         4.1415  -20.3350  -48.8835 C.3       23 UNK        -0.0205 
     16 S16         3.6922  -22.1051  -48.7872 S.3       23 UNK        -0.2404 
     17 C17         3.0147  -22.2121  -47.0973 C.3       23 UNK        -0.0398 
     18 CA          1.8257  -23.1904  -46.9387 C.3       11 UNK         0.1400 
     19 N           1.7103  -23.6288  -45.5477 N.am      11 UNK        -0.5000 
     20 C           1.0092  -24.6907  -45.1312 C.2       10 UNK         0.5000 
     21 O           0.4209  -25.4575  -45.8921 O.2       10 UNK        -0.5000 
     22 CA          0.9026  -24.8955  -43.6065 C.3       10 UNK         0.1400 
     23 CB          2.0409  -25.7945  -43.1034 C.3       10 UNK        -0.1800 
     24 N           0.9124  -23.6373  -42.8543 N.am      10 UNK        -0.5000 
     25 C          -0.0030  -22.6662  -42.9781 C.2       9 UNK         0.5000 
     26 O          -0.9892  -22.7633  -43.7069 O.2       9 UNK        -0.5000 
     27 CA          0.2336  -21.3559  -42.2026 C.3       9 UNK         0.1400 
     28 CB          1.0991  -21.5406  -40.9377 C.3       9 UNK        -0.1800 
     29 N           0.7944  -20.2873  -43.0371 N.am      9 UNK        -0.5000 
     30 C           1.9216  -20.3152  -43.7668 C.2       8 UNK         0.5000 
     31 O           2.5719  -21.3350  -43.9980 O.2       8 UNK        -0.5000 
     32 CA          2.4481  -18.9573  -44.2750 C.3       8 UNK         0.1400 
     33 CB          1.7638  -18.5365  -45.5861 C.3       8 UNK        -0.1800 
     34 N           2.2803  -17.8936  -43.2837 N.am      8 UNK        -0.5000 
     35 C           2.8531  -17.8595  -42.0704 C.2       7 UNK         0.5000 
     36 O           3.6633  -18.6948  -41.6678 O.2       7 UNK        -0.5000 
     37 CA          2.4325  -16.7073  -41.1416 C.3       7 UNK         0.1400 
     38 CB          3.3067  -15.4669  -41.3808 C.3       7 UNK        -0.1800 
     39 N           1.0238  -16.3580  -41.3294 N.am      7 UNK        -0.5000 
     40 C           0.0023  -16.9998  -40.7443 C.2       6 UNK         0.5000 
     41 O           0.1449  -17.9028  -39.9198 O.2       6 UNK        -0.5000 
     42 CA         -1.4216  -16.5730  -41.1552 C.3       6 UNK         0.1400 
     43 CB         -1.9431  -15.4707  -40.2212 C.3       6 UNK        -0.1800 
     44 N          -1.5121  -16.1080  -42.5409 N.am      6 UNK        -0.5000 
     45 C          -1.3339  -16.8861  -43.6177 C.2       5 UNK         0.5000 
     46 O          -1.1049  -18.0937  -43.5522 O.2       5 UNK        -0.5000 
     47 CA         -1.3554  -16.1822  -44.9916 C.3       5 UNK         0.1400 
     48 CB         -2.7823  -16.1536  -45.5579 C.3       5 UNK        -0.1800 
     49 N          -0.8009  -14.8213  -44.9665 N.am      5 UNK        -0.5000 
     50 C           0.4498  -14.5184  -44.5806 C.2       4 UNK         0.5000 
     51 O           1.2557  -15.3681  -44.2013 O.2       4 UNK        -0.5000 
     52 CA          0.8589  -13.0355  -44.5826 C.3       4 UNK         0.1400 
     53 CB          2.3765  -12.8397  -44.7531 C.3       4 UNK        -0.1800 
     54 N           0.1624  -12.3065  -45.6377 N.am      4 UNK        -0.5000 
     55 C          -0.5750  -11.2062  -45.4568 C.2       3 UNK         0.5000 
     56 O          -0.7608  -10.6750  -44.3611 O.2       3 UNK        -0.5000 
     57 CA         -1.2279  -10.5938  -46.7092 C.3       3 UNK         0.1400 
     58 CB         -0.2679   -9.5977  -47.3777 C.3       3 UNK        -0.1800 
     59 N          -1.6785  -11.5646  -47.7109 N.am      3 UNK        -0.5000 
     60 C          -2.5841  -12.5339  -47.5145 C.2       2 UNK         0.5000 
     61 O          -3.0421  -12.8329  -46.4123 O.2       2 UNK        -0.5000 
     62 CA         -3.0690  -13.2982  -48.7621 C.3       2 UNK         0.1400 
     63 CB         -4.4209  -12.7373  -49.2270 C.3       2 UNK        -0.1800 
     64 N          -2.1202  -13.2120  -49.8779 N.am      2 UNK        -0.5000 
     65 C          -1.0469  -13.9850  -50.1004 C.2       1 UNK         0.5000 
     66 O          -0.2885  -13.7560  -51.0430 O.2       1 UNK        -0.5000 
     67 C           0.4910  -22.5994  -47.4511 C.2       11 UNK         0.5000 
     68 O           0.1460  -22.8022  -48.6143 O.2       11 UNK        -0.5000 
     69 N          -0.2653  -21.9223  -46.5703 N.am      12 UNK        -0.5000 
     70 CA         -1.6179  -21.4401  -46.8601 C.3       12 UNK         0.1400 
     71 CB         -2.0415  -20.3567  -45.8588 C.3       12 UNK        -0.1800 
     72 C          -2.6376  -22.5874  -46.9138 C.2       12 UNK         0.5000 
     73 O          -3.4977  -22.5862  -47.7939 O.2       12 UNK        -0.5000 
     74 N          -2.5002  -23.5728  -46.0163 N.am      13 UNK        -0.5000 
     75 CA         -3.2895  -24.8066  -46.0121 C.3       13 UNK         0.1400 
     76 CB         -2.9684  -25.6300  -44.7569 C.3       13 UNK        -0.1800 
     77 C          -3.0821  -25.6384  -47.2926 C.2       13 UNK         0.5000 
     78 O          -4.0616  -26.1011  -47.8775 O.2       13 UNK        -0.5000 
     79 N          -1.8241  -25.7464  -47.7467 N.am      14 UNK        -0.5000 
     80 CA         -1.4351  -26.3703  -49.0163 C.3       14 UNK         0.1400 
     81 CB          0.0961  -26.4659  -49.0873 C.3       14 UNK        -0.1800 
     82 C          -1.9904  -25.6416  -50.2583 C.2       14 UNK         0.5000 
     83 O          -2.2292  -26.2835  -51.2810 O.2       14 UNK        -0.5000 
     84 N          -2.2358  -24.3309  -50.1319 N.am      15 UNK        -0.5000 
     85 CA         -2.9018  -23.4785  -51.1193 C.3       15 UNK         0.1400 
     86 CB         -2.3475  -22.0506  -50.9857 C.3       15 UNK        -0.1800 
     87 C          -4.4425  -23.5069  -50.9941 C.2       15 UNK         0.5000 
     88 O          -5.1062  -22.6038  -51.5075 O.2       15 UNK        -0.5000 
     89 N          -4.9829  -24.5270  -50.3090 N.am      16 UNK        -0.5000 
     90 CA         -6.4008  -24.7889  -50.0505 C.3       16 UNK         0.1400 
     91 CB         -7.1524  -25.1036  -51.3605 C.3       16 UNK        -0.1800 
     92 C          -7.0533  -23.6787  -49.2055 C.2       16 UNK         0.5000 
     93 O          -8.1181  -23.1712  -49.5575 O.2       16 UNK        -0.5000 
     94 N          -6.3725  -23.3213  -48.1072 N.am      17 UNK        -0.5000 
     95 CA         -6.6982  -22.2442  -47.1662 C.3       17 UNK         0.1400 
     96 CB         -8.0428  -22.5019  -46.4540 C.3       17 UNK        -0.1800 
     97 C          -6.6068  -20.8600  -47.8382 C.2       17 UNK         0.5000 
     98 O          -7.5245  -20.0459  -47.7221 O.2       17 UNK        -0.5000 
     99 N          -5.4848  -20.6425  -48.5410 N.am      18 UNK        -0.5000 
    100 CA        -5.1204  -19.4370  -49.2943 C.3       18 UNK         0.1400 
    101 CB        -4.9122  -18.2445  -48.3360 C.3       18 UNK        -0.1800 
    102 C         -6.0890  -19.1085  -50.4527 C.2       18 UNK         0.5000 
    103 O         -6.2446  -17.9386  -50.8081 O.2       18 UNK        -0.5000 
    104 N         -6.7251  -20.1397  -51.0265 N.am      19 UNK        -0.5000 
    105 CA        -7.5971  -20.0195  -52.1942 C.3       19 UNK         0.1400 
    106 CB        -8.5221  -21.2405  -52.2820 C.3       19 UNK        -0.1800 
    107 C         -6.7799  -19.8551  -53.4856 C.2       19 UNK         0.5000 
    108 O         -7.1471  -19.0443  -54.3374 O.2       19 UNK        -0.5000 
    109 N         -5.6701  -20.5988  -53.5927 N.am      20 UNK        -0.5000 
    110 CA        -4.6469  -20.3890  -54.6129 C.3       20 UNK         0.1400 
    111 CB        -3.8242  -21.6743  -54.7887 C.3       20 UNK        -0.1800 
    112 C         -3.7540  -19.2035  -54.2066 C.2       20 UNK         0.5000 
    113 O         -3.4141  -19.0714  -53.0283 O.2       20 UNK        -0.5000 
    114 N         -3.3930  -18.3646  -55.1859 N.am      21 UNK        -0.5000 
    115 CA        -2.6371  -17.1271  -54.9744 C.3       21 UNK         0.1400 
    116 CB        -2.6484  -16.2978  -56.2679 C.3       21 UNK        -0.1800 
    117 C         -1.1935  -17.3574  -54.4931 C.2       21 UNK         0.5000 
    118 O         -0.7063  -16.5848  -53.6699 O.2       21 UNK        -0.5000 
    119 N         -0.5507  -18.4102  -55.0115 N.am      22 UNK        -0.5000 
    120 CA         0.8075  -18.8605  -54.6747 C.3       22 UNK         0.1400 
    121 C          1.0462  -20.2970  -55.2204 C.2       22 UNK         0.5000 
    122 N          0.1060  -21.2131  -55.0179 N.am      22 UNK        -0.7600 
    123 O          2.0569  -20.5908  -55.8527 O.2       22 UNK        -0.5000 
    124 C124        1.9079  -17.8229  -55.0513 C.3       23 UNK        -0.0398 
    125 S125        3.4746  -18.0250  -54.1288 S.3       23 UNK        -0.2404 
    126 C126        3.1931  -17.0478  -52.6140 C.3       23 UNK        -0.0205 
    127 H127        3.0916  -16.1616  -48.8580 H         1 UNK         0.0600 
    128 H128        3.6264  -14.4775  -48.8511 H         1 UNK         0.0600 
    129 H129        3.2662  -15.2991  -47.3275 H         1 UNK         0.0600 
    130 H130        0.9561  -16.3768  -49.4731 H         1 UNK         0.3000 
    131 H131       -1.1325  -15.0156  -48.1894 H         1 UNK         0.0600 
    132 H132       -1.2915  -16.6295  -50.7881 H         1 UNK         0.0800 
    133 H133       -2.6371  -16.2249  -49.7727 H         1 UNK         0.0800 
    134 H134       -0.7944  -20.0935  -49.6700 H         1 UNK         0.0800 
    135 H135       -1.1700  -18.9704  -50.9375 H         1 UNK         0.0800 
    136 H136        0.6272  -17.4520  -51.7973 H         1 UNK         0.1150 
    137 H137        4.6531  -18.6078  -50.9304 H         1 UNK         0.1150 
    138 H138        1.4075  -20.2328  -48.6472 H         1 UNK         0.1150 
    139 H139        5.1297  -20.2735  -49.3417 H         1 UNK         0.0800 
    140 H140        4.2490  -19.9050  -47.8871 H         1 UNK         0.0800 
    141 H141        2.7445  -21.2245  -46.7339 H         1 UNK         0.0800 
    142 H142        3.8427  -22.5349  -46.4640 H         1 UNK         0.0800 
    143 H143        2.0389  -24.0789  -47.5371 H         1 UNK         0.0600 
    144 H144        2.1297  -23.0184  -44.8511 H         1 UNK         0.3000 
    145 H145       -0.0449  -25.3975  -43.4037 H         1 UNK         0.0600 
    146 H146        1.9320  -26.0118  -42.0406 H         1 UNK         0.0600 
    147 H147        2.0457  -26.7496  -43.6304 H         1 UNK         0.0600 
    148 H148        3.0167  -25.3310  -43.2541 H         1 UNK         0.0600 
    149 H149        1.7129  -23.4679  -42.2628 H         1 UNK         0.3000 
    150 H150       -0.7498  -21.0097  -41.8809 H         1 UNK         0.0600 
    151 H151        0.6988  -22.3267  -40.2962 H         1 UNK         0.0600 
    152 H152        1.1185  -20.6238  -40.3479 H         1 UNK         0.0600 
    153 H153        2.1325  -21.7950  -41.1754 H         1 UNK         0.0600 
    154 H154        0.2804  -19.4112  -43.0120 H         1 UNK         0.3000 
    155 H155        3.5180  -19.0608  -44.4661 H         1 UNK         0.0600 
    156 H156        2.0522  -17.5272  -45.8812 H         1 UNK         0.0600 
    157 H157        0.6802  -18.5620  -45.4987 H         1 UNK         0.0600 
    158 H158        2.0339  -19.1931  -46.4089 H         1 UNK         0.0600 
    159 H159        1.6971  -17.1087  -43.5580 H         1 UNK         0.3000 
    160 H160        2.5869  -17.0319  -40.1103 H         1 UNK         0.0600 
    161 H161        3.0153  -14.6452  -40.7265 H         1 UNK         0.0600 
    162 H162        3.2403  -15.1175  -42.4106 H         1 UNK         0.0600 
    163 H163        4.3556  -15.6876  -41.1791 H         1 UNK         0.0600 
    164 H164        0.8238  -15.6687  -42.0408 H         1 UNK         0.3000 
    165 H165       -2.0699  -17.4456  -41.0494 H         1 UNK         0.0600 
    166 H166       -2.9780  -15.2159  -40.4505 H         1 UNK         0.0600 
    167 H167       -1.9128  -15.7946  -39.1800 H         1 UNK         0.0600 
    168 H168       -1.3469  -14.5607  -40.2994 H         1 UNK         0.0600 
    169 H169       -1.6963  -15.1259  -42.6822 H         1 UNK         0.3000 
    170 H170       -0.7402  -16.7701  -45.6739 H         1 UNK         0.0600 
    171 H171       -3.2198  -17.1529  -45.5642 H         1 UNK         0.0600 
    172 H172       -3.4373  -15.5096  -44.9700 H         1 UNK         0.0600 
    173 H173       -2.7928  -15.7951  -46.5857 H         1 UNK         0.0600 
    174 H174       -1.4161  -14.0701  -45.2525 H         1 UNK         0.3000 
    175 H175        0.5803  -12.6482  -43.6009 H         1 UNK         0.0600 
    176 H176        2.6373  -11.7814  -44.7653 H         1 UNK         0.0600 
    177 H177        2.9291  -13.2969  -43.9325 H         1 UNK         0.0600 
    178 H178        2.7379  -13.2835  -45.6810 H         1 UNK         0.0600 
    179 H179        0.2982  -12.6727  -46.5780 H         1 UNK         0.3000 
    180 H180       -2.1093  -10.0424  -46.3755 H         1 UNK         0.0600 
    181 H181        0.6162  -10.0984  -47.7748 H         1 UNK         0.0600 
    182 H182        0.0730   -8.8442  -46.6663 H         1 UNK         0.0600 
    183 H183       -0.7536   -9.0702  -48.1989 H         1 UNK         0.0600 
    184 H184       -1.3304  -11.4272  -48.6482 H         1 UNK         0.3000 
    185 H185       -3.2387  -14.3372  -48.4804 H         1 UNK         0.0600 
    186 H186       -4.8087  -13.2983  -50.0777 H         1 UNK         0.0600 
    187 H187       -5.1654  -12.8014  -48.4320 H         1 UNK         0.0600 
    188 H188       -4.3453  -11.6898  -49.5218 H         1 UNK         0.0600 
    189 H189       -2.2854  -12.4503  -50.5197 H         1 UNK         0.3000 
    190 H190        0.0362  -21.8615  -45.6084 H         1 UNK         0.3000 
    191 H191       -1.6153  -20.9779  -47.8450 H         1 UNK         0.0600 
    192 H192       -1.4096  -19.4749  -45.9502 H         1 UNK         0.0600 
    193 H193       -3.0663  -20.0342  -46.0444 H         1 UNK         0.0600 
    194 H194       -1.9919  -20.6983  -44.8262 H         1 UNK         0.0600 
    195 H195       -1.8180  -23.4558  -45.2722 H         1 UNK         0.3000 
    196 H196       -4.3426  -24.5221  -45.9658 H         1 UNK         0.0600 
    197 H197       -3.6240  -26.4987  -44.6858 H         1 UNK         0.0600 
    198 H198       -3.1079  -25.0408  -43.8503 H         1 UNK         0.0600 
    199 H199       -1.9431  -25.9973  -44.7642 H         1 UNK         0.0600 
    200 H200       -1.0674  -25.3937  -47.1680 H         1 UNK         0.3000 
    201 H201       -1.8401  -27.3842  -49.0238 H         1 UNK         0.0600 
    202 H202        0.4952  -27.0409  -48.2516 H         1 UNK         0.0600 
    203 H203        0.5613  -25.4803  -49.0688 H         1 UNK         0.0600 
    204 H204        0.4149  -26.9620  -50.0048 H         1 UNK         0.0600 
    205 H205       -1.9960  -23.8844  -49.2568 H         1 UNK         0.3000 
    206 H206       -2.6599  -23.8376  -52.1213 H         1 UNK         0.0600 
    207 H207       -1.2651  -22.0373  -51.1153 H         1 UNK         0.0600 
    208 H208       -2.7703  -21.3794  -51.7317 H         1 UNK         0.0600 
    209 H209       -2.5746  -21.6241  -50.0109 H         1 UNK         0.0600 
    210 H210       -4.3474  -25.1821  -49.8719 H         1 UNK         0.3000 
    211 H211       -6.4371  -25.6895  -49.4359 H         1 UNK         0.0600 
    212 H212       -7.1359  -24.2652  -52.0547 H         1 UNK         0.0600 
    213 H213       -8.1971  -25.3478  -51.1649 H         1 UNK         0.0600 
    214 H214       -6.7097  -25.9609  -51.8674 H         1 UNK         0.0600 
    215 H215       -5.4661  -23.7487  -47.9686 H         1 UNK         0.3000 
    216 H216       -5.9207  -22.2618  -46.4011 H         1 UNK         0.0600 
    217 H217       -8.0602  -23.4880  -45.9901 H         1 UNK         0.0600 
    218 H218       -8.8887  -22.4376  -47.1387 H         1 UNK         0.0600 
    219 H219       -8.2092  -21.7686  -45.6642 H         1 UNK         0.0600 
    220 H220       -4.7915  -21.3857  -48.5376 H         1 UNK         0.3000 
    221 H221       -4.1591  -19.6511  -49.7639 H         1 UNK         0.0600 
    222 H222       -5.8425  -17.9408  -47.8559 H         1 UNK         0.0600 
    223 H223       -4.1946  -18.4882  -47.5537 H         1 UNK         0.0600 
    224 H224       -4.5248  -17.3759  -48.8677 H         1 UNK         0.0600 
    225 H225       -6.5079  -21.0786  -50.7161 H         1 UNK         0.3000 
    226 H226       -8.2233  -19.1328  -52.0750 H         1 UNK         0.0600 
    227 H227       -9.1400  -21.3314  -51.3886 H         1 UNK         0.0600 
    228 H228       -9.1942  -21.1612  -53.1372 H         1 UNK         0.0600 
    229 H229       -7.9553  -22.1637  -52.3935 H         1 UNK         0.0600 
    230 H230       -5.4308  -21.2266  -52.8299 H         1 UNK         0.3000 
    231 H231       -5.1328  -20.1641  -55.5648 H         1 UNK         0.0600 
    232 H232       -4.4613  -22.5111  -55.0756 H         1 UNK         0.0600 
    233 H233       -3.3029  -21.9540  -53.8749 H         1 UNK         0.0600 
    234 H234       -3.0747  -21.5535  -55.5716 H         1 UNK         0.0600 
    235 H235       -3.7100  -18.5426  -56.1282 H         1 UNK         0.3000 
    236 H236       -3.1505  -16.5521  -54.2005 H         1 UNK         0.0600 
    237 H237       -3.6661  -16.0458  -56.5664 H         1 UNK         0.0600 
    238 H238       -2.1090  -15.3590  -56.1341 H         1 UNK         0.0600 
    239 H239       -2.1775  -16.8317  -57.0942 H         1 UNK         0.0600 
    240 H240       -1.0345  -18.9861  -55.6861 H         1 UNK         0.3000 
    241 H241        0.8243  -18.9824  -53.5942 H         1 UNK         0.0600 
    242 H242       -0.7099  -21.0098  -54.4644 H         1 UNK         0.3800 
    243 H243        0.2469  -22.1444  -55.3773 H         1 UNK         0.3800 
    244 H244        1.5629  -16.8032  -54.8849 H         1 UNK         0.0800 
    245 H245        2.1244  -17.8754  -56.1193 H         1 UNK         0.0800 
    246 H246        2.4965  -16.2304  -52.8075 H         1 UNK         0.0800 
    247 H247        4.1335  -16.5791  -52.3204 H         1 UNK         0.0800 
@<TRIPOS>BOND
     1    1    2 1    
     2    1  127 1    
     3    1  128 1    
     4    1  129 1    
     5    2    3 2    
     6    2    4 am   BACKBONE|DICT|INTERRES
     7    4    5 1    
     8    4  130 1    
     9    5    6 1    
    10    5   65 1    
    11    5  131 1    
    12    6    7 1    
    13    6  132 1    
    14    6  133 1    
    15    7    8 1    
    16    8    9 1    
    17    8  134 1    
    18    8  135 1    
    19    9   10 ar   
    20    9   14 ar   
    21   10   11 ar   
    22   10  136 1    
    23   11   12 ar   
    24   11  126 1    
    25   12   13 ar   
    26   12  137 1    
    27   13   14 ar   
    28   13   15 1    
    29   14  138 1    
    30   15   16 1    
    31   15  139 1    
    32   15  140 1    
    33   16   17 1    
    34   17   18 1    
    35   17  141 1    
    36   17  142 1    
    37   18   19 1    
    38   18   67 1    
    39   18  143 1    
    40   19   20 am   BACKBONE|DICT|INTERRES
    41   19  144 1    
    42   20   21 2    
    43   20   22 1    
    44   22   23 1    
    45   22   24 1    
    46   22  145 1    
    47   23  146 1    
    48   23  147 1    
    49   23  148 1    
    50   24   25 am   BACKBONE|DICT|INTERRES
    51   24  149 1    
    52   25   26 2    
    53   25   27 1    
    54   27   28 1    
    55   27   29 1    
    56   27  150 1    
    57   28  151 1    
    58   28  152 1    
    59   28  153 1    
    60   29   30 am   BACKBONE|DICT|INTERRES
    61   29  154 1    
    62   30   31 2    
    63   30   32 1    
    64   32   33 1    
    65   32   34 1    
    66   32  155 1    
    67   33  156 1    
    68   33  157 1    
    69   33  158 1    
    70   34   35 am   BACKBONE|DICT|INTERRES
    71   34  159 1    
    72   35   36 2    
    73   35   37 1    
    74   37   38 1    
    75   37   39 1    
    76   37  160 1    
    77   38  161 1    
    78   38  162 1    
    79   38  163 1    
    80   39   40 am   BACKBONE|DICT|INTERRES
    81   39  164 1    
    82   40   41 2    
    83   40   42 1    
    84   42   43 1    
    85   42   44 1    
    86   42  165 1    
    87   43  166 1    
    88   43  167 1    
    89   43  168 1    
    90   44   45 am   BACKBONE|DICT|INTERRES
    91   44  169 1    
    92   45   46 2    
    93   45   47 1    
    94   47   48 1    
    95   47   49 1    
    96   47  170 1    
    97   48  171 1    
    98   48  172 1    
    99   48  173 1    
   100   49   50 am   BACKBONE|DICT|INTERRES
   101   49  174 1    
   102   50   51 2    
   103   50   52 1    
   104   52   53 1    
   105   52   54 1    
   106   52  175 1    
   107   53  176 1    
   108   53  177 1    
   109   53  178 1    
   110   54   55 am   BACKBONE|DICT|INTERRES
   111   54  179 1    
   112   55   56 2    
   113   55   57 1    
   114   57   58 1    
   115   57   59 1    
   116   57  180 1    
   117   58  181 1    
   118   58  182 1    
   119   58  183 1    
   120   59   60 am   BACKBONE|DICT|INTERRES
   121   59  184 1    
   122   60   61 2    
   123   60   62 1    
   124   62   63 1    
   125   62   64 1    
   126   62  185 1    
   127   63  186 1    
   128   63  187 1    
   129   63  188 1    
   130   64   65 am   BACKBONE|DICT|INTERRES
   131   64  189 1    
   132   65   66 2    
   133   67   68 2    
   134   67   69 am   BACKBONE|DICT|INTERRES
   135   69   70 1    
   136   69  190 1    
   137   70   71 1    
   138   70   72 1    
   139   70  191 1    
   140   71  192 1    
   141   71  193 1    
   142   71  194 1    
   143   72   73 2    
   144   72   74 am   BACKBONE|DICT|INTERRES
   145   74   75 1    
   146   74  195 1    
   147   75   76 1    
   148   75   77 1    
   149   75  196 1    
   150   76  197 1    
   151   76  198 1    
   152   76  199 1    
   153   77   78 2    
   154   77   79 am   BACKBONE|DICT|INTERRES
   155   79   80 1    
   156   79  200 1    
   157   80   81 1    
   158   80   82 1    
   159   80  201 1    
   160   81  202 1    
   161   81  203 1    
   162   81  204 1    
   163   82   83 2    
   164   82   84 am   BACKBONE|DICT|INTERRES
   165   84   85 1    
   166   84  205 1    
   167   85   86 1    
   168   85   87 1    
   169   85  206 1    
   170   86  207 1    
   171   86  208 1    
   172   86  209 1    
   173   87   88 2    
   174   87   89 am   BACKBONE|DICT|INTERRES
   175   89   90 1    
   176   89  210 1    
   177   90   91 1    
   178   90   92 1    
   179   90  211 1    
   180   91  212 1    
   181   91  213 1    
   182   91  214 1    
   183   92   93 2    
   184   92   94 am   BACKBONE|DICT|INTERRES
   185   94   95 1    
   186   94  215 1    
   187   95   96 1    
   188   95   97 1    
   189   95  216 1    
   190   96  217 1    
   191   96  218 1    
   192   96  219 1    
   193   97   98 2    
   194   97   99 am   BACKBONE|DICT|INTERRES
   195   99  100 1    
   196   99  220 1    
   197  100  101 1    
   198  100  102 1    
   199  100  221 1    
   200  101  222 1    
   201  101  223 1    
   202  101  224 1    
   203  102  103 2    
   204  102  104 am   BACKBONE|DICT|INTERRES
   205  104  105 1    
   206  104  225 1    
   207  105  106 1    
   208  105  107 1    
   209  105  226 1    
   210  106  227 1    
   211  106  228 1    
   212  106  229 1    
   213  107  108 2    
   214  107  109 am   BACKBONE|DICT|INTERRES
   215  109  110 1    
   216  109  230 1    
   217  110  111 1    
   218  110  112 1    
   219  110  231 1    
   220  111  232 1    
   221  111  233 1    
   222  111  234 1    
   223  112  113 2    
   224  112  114 am   BACKBONE|DICT|INTERRES
   225  114  115 1    
   226  114  235 1    
   227  115  116 1    
   228  115  117 1    
   229  115  236 1    
   230  116  237 1    
   231  116  238 1    
   232  116  239 1    
   233  117  118 2    
   234  117  119 am   BACKBONE|DICT|INTERRES
   235  119  120 1    
   236  119  240 1    
   237  120  121 1    
   238  120  124 1    
   239  120  241 1    
   240  121  122 am   BACKBONE|DICT|INTERRES
   241  121  123 2    
   242  122  242 1    
   243  122  243 1    
   244  124  125 1    
   245  124  244 1    
   246  124  245 1    
   247  125  126 1    
   248  126  246 1    
   249  126  247 1    
@<TRIPOS>SUBSTRUCTURE
     1 UNK         1 GROUP             0       ****    0 ROOT    
