@<TRIPOS>MOLECULE
3R540
247   249    1
SMALL
USER_CHARGES


@<TRIPOS>ATOM
      1 CA         -1.0419  -18.2418  -45.5869 C.3       0 UNK        -0.1800 
      2 C          -1.2520  -17.2295  -46.7025 C.2       0 UNK         0.5000 
      3 O          -2.3923  -16.8922  -47.0197 O.2       0 UNK        -0.5000 
      4 N          -0.1543  -16.7472  -47.2941 N.am      1 UNK        -0.5000 
      5 CA         -0.1394  -15.7266  -48.3444 C.3       1 UNK         0.1400 
      6 C6          1.2478  -15.6466  -49.0264 C.3       23 UNK        -0.0398 
      7 S7          2.6357  -15.3382  -47.8699 S.3       23 UNK        -0.2404 
      8 C8          4.0862  -15.5109  -48.9589 C.3       23 UNK        -0.0205 
      9 C9          4.0799  -16.8339  -49.7094 C.ar      23 UNK        -0.0193 
     10 C10         3.8386  -16.8578  -51.0850 C.ar      23 UNK        -0.1150 
     11 C11         3.7657  -18.0723  -51.7714 C.ar      23 UNK        -0.0193 
     12 C12         3.9384  -19.2698  -51.0706 C.ar      23 UNK        -0.1150 
     13 C13         4.1823  -19.2606  -49.6934 C.ar      23 UNK        -0.0193 
     14 C14         4.2709  -18.0356  -49.0230 C.ar      23 UNK        -0.1150 
     15 C15         4.3544  -20.5763  -48.9417 C.3       23 UNK        -0.0205 
     16 S16         3.3646  -20.6692  -47.4119 S.3       23 UNK        -0.2404 
     17 C17         1.6523  -20.6268  -48.0474 C.3       23 UNK        -0.0398 
     18 CA          0.8982  -21.9535  -47.7909 C.3       11 UNK         0.1400 
     19 N           0.9027  -22.3357  -46.3753 N.am      11 UNK        -0.5000 
     20 C           0.4437  -23.4945  -45.8850 C.2       10 UNK         0.5000 
     21 O          -0.0359  -24.3892  -46.5802 O.2       10 UNK        -0.5000 
     22 CA          0.4923  -23.6736  -44.3580 C.3       10 UNK         0.1400 
     23 CB          1.7469  -24.4597  -43.9517 C.3       10 UNK        -0.1800 
     24 N           0.4519  -22.4190  -43.6045 N.am      10 UNK        -0.5000 
     25 C          -0.5428  -21.5242  -43.6019 C.2       9 UNK         0.5000 
     26 O          -1.5306  -21.6047  -44.3346 O.2       9 UNK        -0.5000 
     27 CA         -0.4076  -20.3421  -42.6195 C.3       9 UNK         0.1400 
     28 CB         -0.4664  -20.8245  -41.1582 C.3       9 UNK        -0.1800 
     29 N           0.7584  -19.4751  -42.8400 N.am      9 UNK        -0.5000 
     30 C           2.0666  -19.7764  -42.8135 C.2       8 UNK         0.5000 
     31 O           2.5201  -20.8960  -42.5750 O.2       8 UNK        -0.5000 
     32 CA          3.0338  -18.6113  -43.0715 C.3       8 UNK         0.1400 
     33 CB          2.8618  -18.0294  -44.4848 C.3       8 UNK        -0.1800 
     34 N           2.8232  -17.5643  -42.0763 N.am      8 UNK        -0.5000 
     35 C           3.5194  -17.4470  -40.9368 C.2       7 UNK         0.5000 
     36 O           4.5038  -18.1338  -40.6610 O.2       7 UNK        -0.5000 
     37 CA          3.0288  -16.3972  -39.9192 C.3       7 UNK         0.1400 
     38 CB          3.8521  -15.1049  -40.0286 C.3       7 UNK        -0.1800 
     39 N           1.6024  -16.0944  -40.0689 N.am      7 UNK        -0.5000 
     40 C           0.6254  -16.9352  -39.6928 C.2       6 UNK         0.5000 
     41 O           0.8382  -17.9906  -39.0953 O.2       6 UNK        -0.5000 
     42 CA         -0.8303  -16.5653  -40.0458 C.3       6 UNK         0.1400 
     43 CB         -1.5720  -16.0563  -38.8004 C.3       6 UNK        -0.1800 
     44 N          -0.9717  -15.5747  -41.1143 N.am      6 UNK        -0.5000 
     45 C          -0.5780  -15.7294  -42.3846 C.2       5 UNK         0.5000 
     46 O          -0.0106  -16.7410  -42.8031 O.2       5 UNK        -0.5000 
     47 CA         -0.8065  -14.5433  -43.3442 C.3       5 UNK         0.1400 
     48 CB         -1.6085  -13.3715  -42.7360 C.3       5 UNK        -0.1800 
     49 N           0.4552  -14.0514  -43.9001 N.am      5 UNK        -0.5000 
     50 C           1.5453  -13.6677  -43.2176 C.2       4 UNK         0.5000 
     51 O           1.6130  -13.6532  -41.9877 O.2       4 UNK        -0.5000 
     52 CA          2.7705  -13.2372  -44.0423 C.3       4 UNK         0.1400 
     53 CB          3.6567  -14.4519  -44.3494 C.3       4 UNK        -0.1800 
     54 N           2.4046  -12.5841  -45.3004 N.am      4 UNK        -0.5000 
     55 C           2.0998  -11.2831  -45.4091 C.2       3 UNK         0.5000 
     56 O           2.0839  -10.4982  -44.4605 O.2       3 UNK        -0.5000 
     57 CA          1.7205  -10.7869  -46.8097 C.3       3 UNK         0.1400 
     58 CB          2.8776  -10.9498  -47.8140 C.3       3 UNK        -0.1800 
     59 N           0.5440  -11.5196  -47.2536 N.am      3 UNK        -0.5000 
     60 C          -0.3342  -11.1453  -48.1854 C.2       2 UNK         0.5000 
     61 O          -0.2329  -10.1049  -48.8382 O.2       2 UNK        -0.5000 
     62 CA         -1.5181  -12.1139  -48.4219 C.3       2 UNK         0.1400 
     63 CB         -2.4455  -11.6504  -49.5599 C.3       2 UNK        -0.1800 
     64 N          -1.0891  -13.4902  -48.6988 N.am      2 UNK        -0.5000 
     65 C          -0.5764  -14.3488  -47.8071 C.2       1 UNK         0.5000 
     66 O          -0.3899  -14.0636  -46.6204 O.2       1 UNK        -0.5000 
     67 C          -0.5297  -21.8840  -48.3700 C.2       11 UNK         0.5000 
     68 O          -0.7273  -22.2606  -49.5253 O.2       11 UNK        -0.5000 
     69 N          -1.5040  -21.4459  -47.5570 N.am      12 UNK        -0.5000 
     70 CA         -2.9167  -21.4372  -47.9320 C.3       12 UNK         0.1400 
     71 CB         -3.7142  -20.4834  -47.0318 C.3       12 UNK        -0.1800 
     72 C          -3.5148  -22.8478  -47.8782 C.2       12 UNK         0.5000 
     73 O          -4.2359  -23.2260  -48.7994 O.2       12 UNK        -0.5000 
     74 N          -3.1923  -23.6090  -46.8225 N.am      13 UNK        -0.5000 
     75 CA         -3.6643  -24.9803  -46.6073 C.3       13 UNK         0.1400 
     76 CB         -3.1924  -25.4796  -45.2338 C.3       13 UNK        -0.1800 
     77 C          -3.2263  -25.9451  -47.7247 C.2       13 UNK         0.5000 
     78 O          -4.0468  -26.7197  -48.2183 O.2       13 UNK        -0.5000 
     79 N          -1.9623  -25.8236  -48.1532 N.am      14 UNK        -0.5000 
     80 CA         -1.3777  -26.5458  -49.2865 C.3       14 UNK         0.1400 
     81 CB          0.1319  -26.2633  -49.3255 C.3       14 UNK        -0.1800 
     82 C          -2.0212  -26.1939  -50.6440 C.2       14 UNK         0.5000 
     83 O          -1.9636  -27.0029  -51.5702 O.2       14 UNK        -0.5000 
     84 N          -2.6350  -25.0080  -50.7278 N.am      15 UNK        -0.5000 
     85 CA         -3.3514  -24.4870  -51.8886 C.3       15 UNK         0.1400 
     86 CB         -2.9199  -23.0281  -52.1042 C.3       15 UNK        -0.1800 
     87 C          -4.8801  -24.6184  -51.7346 C.2       15 UNK         0.5000 
     88 O          -5.6128  -23.8797  -52.3919 O.2       15 UNK        -0.5000 
     89 N          -5.3399  -25.5382  -50.8709 N.am      16 UNK        -0.5000 
     90 CA         -6.7439  -25.8748  -50.6034 C.3       16 UNK         0.1400 
     91 CB         -7.3859  -26.5406  -51.8390 C.3       16 UNK        -0.1800 
     92 C          -7.5579  -24.6767  -50.0703 C.2       16 UNK         0.5000 
     93 O          -8.6493  -24.3938  -50.5667 O.2       16 UNK        -0.5000 
     94 N          -6.9850  -23.9945  -49.0696 N.am      17 UNK        -0.5000 
     95 CA         -7.4539  -22.7519  -48.4482 C.3       17 UNK         0.1400 
     96 CB         -8.8522  -22.9139  -47.8143 C.3       17 UNK        -0.1800 
     97 C          -7.3396  -21.5544  -49.4130 C.2       17 UNK         0.5000 
     98 O          -8.2660  -20.7484  -49.5154 O.2       17 UNK        -0.5000 
     99 N          -6.1823  -21.4700  -50.0882 N.am      18 UNK        -0.5000 
    100 CA        -5.7784  -20.4376  -51.0492 C.3       18 UNK         0.1400 
    101 CB        -5.5418  -19.0952  -50.3261 C.3       18 UNK        -0.1800 
    102 C         -6.7502  -20.3230  -52.2423 C.2       18 UNK         0.5000 
    103 O         -7.2326  -19.2318  -52.5560 O.2       18 UNK        -0.5000 
    104 N         -7.0384  -21.4648  -52.8806 N.am      19 UNK        -0.5000 
    105 CA        -7.9446  -21.5977  -54.0204 C.3       19 UNK         0.1400 
    106 CB        -8.3637  -23.0727  -54.1526 C.3       19 UNK        -0.1800 
    107 C         -7.3097  -21.0455  -55.3128 C.2       19 UNK         0.5000 
    108 O         -6.8499  -21.8165  -56.1571 O.2       19 UNK        -0.5000 
    109 N         -7.2810  -19.7095  -55.4194 N.am      20 UNK        -0.5000 
    110 CA        -6.7089  -18.9095  -56.5095 C.3       20 UNK         0.1400 
    111 CB        -7.4772  -19.1402  -57.8281 C.3       20 UNK        -0.1800 
    112 C         -5.1825  -19.0945  -56.6530 C.2       20 UNK         0.5000 
    113 O         -4.6570  -19.1050  -57.7680 O.2       20 UNK        -0.5000 
    114 N         -4.4977  -19.2280  -55.5126 N.am      21 UNK        -0.5000 
    115 CA        -3.0540  -19.3882  -55.3918 C.3       21 UNK         0.1400 
    116 CB        -2.6694  -20.8591  -55.6315 C.3       21 UNK        -0.1800 
    117 C         -2.6187  -18.9087  -53.9998 C.2       21 UNK         0.5000 
    118 O         -3.4569  -18.7904  -53.1026 O.2       21 UNK        -0.5000 
    119 N         -1.3171  -18.6410  -53.8521 N.am      22 UNK        -0.5000 
    120 CA        -0.6774  -18.1475  -52.6192 C.3       22 UNK         0.1400 
    121 C         -0.6300  -19.1524  -51.4296 C.2       22 UNK         0.5000 
    122 N         -0.8543  -20.4397  -51.6527 N.am      22 UNK        -0.7600 
    123 O         -0.3915  -18.7517  -50.2943 O.2       22 UNK        -0.5000 
    124 C124        0.7255  -17.5586  -52.9209 C.3       23 UNK        -0.0398 
    125 S125        1.8660  -18.7688  -53.6881 S.3       23 UNK        -0.2404 
    126 C126        3.5013  -18.0856  -53.2703 C.3       23 UNK        -0.0205 
    127 H127        0.0137  -18.3775  -45.3597 H         1 UNK         0.0600 
    128 H128       -1.5501  -17.9122  -44.6814 H         1 UNK         0.0600 
    129 H129       -1.4490  -19.2093  -45.8689 H         1 UNK         0.0600 
    130 H130        0.7582  -17.0290  -46.9688 H         1 UNK         0.3000 
    131 H131       -0.8665  -16.0301  -49.1009 H         1 UNK         0.0600 
    132 H132        1.2604  -14.8848  -49.8077 H         1 UNK         0.0800 
    133 H133        1.4227  -16.5953  -49.5344 H         1 UNK         0.0800 
    134 H134        4.9931  -15.4402  -48.3570 H         1 UNK         0.0800 
    135 H135        4.1110  -14.6698  -49.6533 H         1 UNK         0.0800 
    136 H136        3.6893  -15.9300  -51.6192 H         1 UNK         0.1150 
    137 H137        3.8730  -20.2091  -51.6018 H         1 UNK         0.1150 
    138 H138        4.4540  -18.0160  -47.9577 H         1 UNK         0.1150 
    139 H139        4.0953  -21.4246  -49.5773 H         1 UNK         0.0800 
    140 H140        5.4077  -20.6932  -48.6845 H         1 UNK         0.0800 
    141 H141        1.6657  -20.3996  -49.1152 H         1 UNK         0.0800 
    142 H142        1.1369  -19.7909  -47.5713 H         1 UNK         0.0800 
    143 H143        1.4205  -22.7434  -48.3351 H         1 UNK         0.0600 
    144 H144        1.3051  -21.6716  -45.7311 H         1 UNK         0.3000 
    145 H145       -0.3845  -24.2558  -44.0699 H         1 UNK         0.0600 
    146 H146        1.7470  -24.6775  -42.8835 H         1 UNK         0.0600 
    147 H147        1.7989  -25.4142  -44.4773 H         1 UNK         0.0600 
    148 H148        2.6585  -23.9064  -44.1815 H         1 UNK         0.0600 
    149 H149        1.2663  -22.1985  -43.0364 H         1 UNK         0.3000 
    150 H150       -1.2793  -19.7063  -42.7824 H         1 UNK         0.0600 
    151 H151       -1.3524  -21.4362  -40.9838 H         1 UNK         0.0600 
    152 H152       -0.5153  -19.9816  -40.4697 H         1 UNK         0.0600 
    153 H153        0.4032  -21.4237  -40.8875 H         1 UNK         0.0600 
    154 H154        0.5164  -18.4997  -43.0012 H         1 UNK         0.3000 
    155 H155        4.0493  -19.0070  -43.0015 H         1 UNK         0.0600 
    156 H156        3.7349  -17.4415  -44.7661 H         1 UNK         0.0600 
    157 H157        1.9872  -17.3840  -44.5617 H         1 UNK         0.0600 
    158 H158        2.7573  -18.8182  -45.2288 H         1 UNK         0.0600 
    159 H159        1.9918  -16.9977  -42.1924 H         1 UNK         0.3000 
    160 H160        3.1886  -16.8074  -38.9197 H         1 UNK         0.0600 
    161 H161        3.4975  -14.3479  -39.3290 H         1 UNK         0.0600 
    162 H162        3.8130  -14.6815  -41.0312 H         1 UNK         0.0600 
    163 H163        4.9012  -15.2945  -39.7989 H         1 UNK         0.0600 
    164 H164        1.3660  -15.2422  -40.5658 H         1 UNK         0.3000 
    165 H165       -1.3188  -17.4817  -40.3831 H         1 UNK         0.0600 
    166 H166       -2.6271  -15.8820  -39.0122 H         1 UNK         0.0600 
    167 H167       -1.5219  -16.7840  -37.9892 H         1 UNK         0.0600 
    168 H168       -1.1435  -15.1236  -38.4314 H         1 UNK         0.0600 
    169 H169       -1.3912  -14.6945  -40.8527 H         1 UNK         0.3000 
    170 H170       -1.3818  -14.9405  -44.1816 H         1 UNK         0.0600 
    171 H171       -2.5861  -13.7012  -42.3819 H         1 UNK         0.0600 
    172 H172       -1.0865  -12.9027  -41.9010 H         1 UNK         0.0600 
    173 H173       -1.7864  -12.5990  -43.4843 H         1 UNK         0.0600 
    174 H174        0.4823  -14.0447  -44.9148 H         1 UNK         0.3000 
    175 H175        3.3536  -12.5432  -43.4330 H         1 UNK         0.0600 
    176 H176        3.1297  -15.1762  -44.9681 H         1 UNK         0.0600 
    177 H177        4.5637  -14.1573  -44.8773 H         1 UNK         0.0600 
    178 H178        3.9621  -14.9622  -43.4355 H         1 UNK         0.0600 
    179 H179        2.4039  -13.1637  -46.1279 H         1 UNK         0.3000 
    180 H180        1.4691   -9.7269  -46.7315 H         1 UNK         0.0600 
    181 H181        3.1151  -11.9987  -47.9958 H         1 UNK         0.0600 
    182 H182        3.7830  -10.4641  -47.4484 H         1 UNK         0.0600 
    183 H183        2.6321  -10.4954  -48.7739 H         1 UNK         0.0600 
    184 H184        0.3473  -12.3914  -46.7675 H         1 UNK         0.3000 
    185 H185       -2.1063  -12.1206  -47.5018 H         1 UNK         0.0600 
    186 H186       -2.8356  -10.6504  -49.3658 H         1 UNK         0.0600 
    187 H187       -1.9241  -11.6207  -50.5174 H         1 UNK         0.0600 
    188 H188       -3.3036  -12.3146  -49.6650 H         1 UNK         0.0600 
    189 H189       -1.1771  -13.7849  -49.6604 H         1 UNK         0.3000 
    190 H190       -1.2826  -21.2224  -46.5957 H         1 UNK         0.3000 
    191 H191       -3.0063  -21.0764  -48.9594 H         1 UNK         0.0600 
    192 H192       -3.5861  -20.7156  -45.9742 H         1 UNK         0.0600 
    193 H193       -4.7811  -20.5370  -47.2529 H         1 UNK         0.0600 
    194 H194       -3.4107  -19.4500  -47.1929 H         1 UNK         0.0600 
    195 H195       -2.5837  -23.2210  -46.1156 H         1 UNK         0.3000 
    196 H196       -4.7559  -24.9542  -46.6013 H         1 UNK         0.0600 
    197 H197       -3.6004  -26.4681  -45.0195 H         1 UNK         0.0600 
    198 H198       -3.5194  -24.8127  -44.4357 H         1 UNK         0.0600 
    199 H199       -2.1066  -25.5581  -45.1833 H         1 UNK         0.0600 
    200 H200       -1.3420  -25.1847  -47.6600 H         1 UNK         0.3000 
    201 H201       -1.5261  -27.6142  -49.1179 H         1 UNK         0.0600 
    202 H202        0.6160  -26.5788  -48.4010 H         1 UNK         0.0600 
    203 H203        0.3359  -25.2003  -49.4633 H         1 UNK         0.0600 
    204 H204        0.6120  -26.8008  -50.1442 H         1 UNK         0.0600 
    205 H205       -2.6619  -24.4232  -49.9029 H         1 UNK         0.3000 
    206 H206       -3.0801  -25.0505  -52.7831 H         1 UNK         0.0600 
    207 H207       -1.8547  -22.9746  -52.3271 H         1 UNK         0.0600 
    208 H208       -3.4490  -22.5708  -52.9392 H         1 UNK         0.0600 
    209 H209       -3.1073  -22.4187  -51.2203 H         1 UNK         0.0600 
    210 H210       -4.6600  -26.0539  -50.3267 H         1 UNK         0.3000 
    211 H211       -6.7324  -26.6149  -49.8018 H         1 UNK         0.0600 
    212 H212       -7.4693  -25.8478  -52.6769 H         1 UNK         0.0600 
    213 H213       -8.3904  -26.8992  -51.6113 H         1 UNK         0.0600 
    214 H214       -6.8031  -27.3996  -52.1711 H         1 UNK         0.0600 
    215 H215       -6.0404  -24.2588  -48.8152 H         1 UNK         0.3000 
    216 H216       -6.7588  -22.5455  -47.6332 H         1 UNK         0.0600 
    217 H217       -9.1105  -22.0372  -47.2195 H         1 UNK         0.0600 
    218 H218       -8.8868  -23.7777  -47.1505 H         1 UNK         0.0600 
    219 H219       -9.6327  -23.0348  -48.5655 H         1 UNK         0.0600 
    220 H220       -5.4992  -22.2002  -49.9149 H         1 UNK         0.3000 
    221 H221       -4.8224  -20.7540  -51.4670 H         1 UNK         0.0600 
    222 H222       -6.4559  -18.7088  -49.8748 H         1 UNK         0.0600 
    223 H223       -4.7948  -19.1972  -49.5397 H         1 UNK         0.0600 
    224 H224       -5.1753  -18.3375  -51.0193 H         1 UNK         0.0600 
    225 H225       -6.5705  -22.3220  -52.5902 H         1 UNK         0.3000 
    226 H226       -8.8472  -21.0178  -53.8164 H         1 UNK         0.0600 
    227 H227       -8.8519  -23.4260  -53.2441 H         1 UNK         0.0600 
    228 H228       -9.0678  -23.2064  -54.9745 H         1 UNK         0.0600 
    229 H229       -7.5082  -23.7214  -54.3435 H         1 UNK         0.0600 
    230 H230       -7.6050  -19.1841  -54.6139 H         1 UNK         0.3000 
    231 H231       -6.8568  -17.8664  -56.2265 H         1 UNK         0.0600 
    232 H232       -8.5483  -18.9912  -57.6918 H         1 UNK         0.0600 
    233 H233       -7.3249  -20.1473  -58.2171 H         1 UNK         0.0600 
    234 H234       -7.1495  -18.4410  -58.5983 H         1 UNK         0.0600 
    235 H235       -4.9812  -19.1573  -54.6259 H         1 UNK         0.3000 
    236 H236       -2.5589  -18.7567  -56.1327 H         1 UNK         0.0600 
    237 H237       -1.6037  -21.0254  -55.4701 H         1 UNK         0.0600 
    238 H238       -3.2153  -21.5275  -54.9670 H         1 UNK         0.0600 
    239 H239       -2.8911  -21.1607  -56.6553 H         1 UNK         0.0600 
    240 H240       -0.6910  -18.7916  -54.6300 H         1 UNK         0.3000 
    241 H241       -1.2951  -17.3205  -52.2637 H         1 UNK         0.0600 
    242 H242       -0.8199  -21.0992  -50.8788 H         1 UNK         0.3800 
    243 H243       -1.0321  -20.7680  -52.5856 H         1 UNK         0.3800 
    244 H244        0.6294  -16.7097  -53.5988 H         1 UNK         0.0800 
    245 H245        1.1660  -17.1566  -52.0083 H         1 UNK         0.0800 
    246 H246        4.2686  -18.6869  -53.7599 H         1 UNK         0.0800 
    247 H247        3.5863  -17.0824  -53.6908 H         1 UNK         0.0800 
@<TRIPOS>BOND
     1    1    2 1    
     2    1  127 1    
     3    1  128 1    
     4    1  129 1    
     5    2    3 2    
     6    2    4 am   BACKBONE|DICT|INTERRES
     7    4    5 1    
     8    4  130 1    
     9    5    6 1    
    10    5   65 1    
    11    5  131 1    
    12    6    7 1    
    13    6  132 1    
    14    6  133 1    
    15    7    8 1    
    16    8    9 1    
    17    8  134 1    
    18    8  135 1    
    19    9   10 ar   
    20    9   14 ar   
    21   10   11 ar   
    22   10  136 1    
    23   11   12 ar   
    24   11  126 1    
    25   12   13 ar   
    26   12  137 1    
    27   13   14 ar   
    28   13   15 1    
    29   14  138 1    
    30   15   16 1    
    31   15  139 1    
    32   15  140 1    
    33   16   17 1    
    34   17   18 1    
    35   17  141 1    
    36   17  142 1    
    37   18   19 1    
    38   18   67 1    
    39   18  143 1    
    40   19   20 am   BACKBONE|DICT|INTERRES
    41   19  144 1    
    42   20   21 2    
    43   20   22 1    
    44   22   23 1    
    45   22   24 1    
    46   22  145 1    
    47   23  146 1    
    48   23  147 1    
    49   23  148 1    
    50   24   25 am   BACKBONE|DICT|INTERRES
    51   24  149 1    
    52   25   26 2    
    53   25   27 1    
    54   27   28 1    
    55   27   29 1    
    56   27  150 1    
    57   28  151 1    
    58   28  152 1    
    59   28  153 1    
    60   29   30 am   BACKBONE|DICT|INTERRES
    61   29  154 1    
    62   30   31 2    
    63   30   32 1    
    64   32   33 1    
    65   32   34 1    
    66   32  155 1    
    67   33  156 1    
    68   33  157 1    
    69   33  158 1    
    70   34   35 am   BACKBONE|DICT|INTERRES
    71   34  159 1    
    72   35   36 2    
    73   35   37 1    
    74   37   38 1    
    75   37   39 1    
    76   37  160 1    
    77   38  161 1    
    78   38  162 1    
    79   38  163 1    
    80   39   40 am   BACKBONE|DICT|INTERRES
    81   39  164 1    
    82   40   41 2    
    83   40   42 1    
    84   42   43 1    
    85   42   44 1    
    86   42  165 1    
    87   43  166 1    
    88   43  167 1    
    89   43  168 1    
    90   44   45 am   BACKBONE|DICT|INTERRES
    91   44  169 1    
    92   45   46 2    
    93   45   47 1    
    94   47   48 1    
    95   47   49 1    
    96   47  170 1    
    97   48  171 1    
    98   48  172 1    
    99   48  173 1    
   100   49   50 am   BACKBONE|DICT|INTERRES
   101   49  174 1    
   102   50   51 2    
   103   50   52 1    
   104   52   53 1    
   105   52   54 1    
   106   52  175 1    
   107   53  176 1    
   108   53  177 1    
   109   53  178 1    
   110   54   55 am   BACKBONE|DICT|INTERRES
   111   54  179 1    
   112   55   56 2    
   113   55   57 1    
   114   57   58 1    
   115   57   59 1    
   116   57  180 1    
   117   58  181 1    
   118   58  182 1    
   119   58  183 1    
   120   59   60 am   BACKBONE|DICT|INTERRES
   121   59  184 1    
   122   60   61 2    
   123   60   62 1    
   124   62   63 1    
   125   62   64 1    
   126   62  185 1    
   127   63  186 1    
   128   63  187 1    
   129   63  188 1    
   130   64   65 am   BACKBONE|DICT|INTERRES
   131   64  189 1    
   132   65   66 2    
   133   67   68 2    
   134   67   69 am   BACKBONE|DICT|INTERRES
   135   69   70 1    
   136   69  190 1    
   137   70   71 1    
   138   70   72 1    
   139   70  191 1    
   140   71  192 1    
   141   71  193 1    
   142   71  194 1    
   143   72   73 2    
   144   72   74 am   BACKBONE|DICT|INTERRES
   145   74   75 1    
   146   74  195 1    
   147   75   76 1    
   148   75   77 1    
   149   75  196 1    
   150   76  197 1    
   151   76  198 1    
   152   76  199 1    
   153   77   78 2    
   154   77   79 am   BACKBONE|DICT|INTERRES
   155   79   80 1    
   156   79  200 1    
   157   80   81 1    
   158   80   82 1    
   159   80  201 1    
   160   81  202 1    
   161   81  203 1    
   162   81  204 1    
   163   82   83 2    
   164   82   84 am   BACKBONE|DICT|INTERRES
   165   84   85 1    
   166   84  205 1    
   167   85   86 1    
   168   85   87 1    
   169   85  206 1    
   170   86  207 1    
   171   86  208 1    
   172   86  209 1    
   173   87   88 2    
   174   87   89 am   BACKBONE|DICT|INTERRES
   175   89   90 1    
   176   89  210 1    
   177   90   91 1    
   178   90   92 1    
   179   90  211 1    
   180   91  212 1    
   181   91  213 1    
   182   91  214 1    
   183   92   93 2    
   184   92   94 am   BACKBONE|DICT|INTERRES
   185   94   95 1    
   186   94  215 1    
   187   95   96 1    
   188   95   97 1    
   189   95  216 1    
   190   96  217 1    
   191   96  218 1    
   192   96  219 1    
   193   97   98 2    
   194   97   99 am   BACKBONE|DICT|INTERRES
   195   99  100 1    
   196   99  220 1    
   197  100  101 1    
   198  100  102 1    
   199  100  221 1    
   200  101  222 1    
   201  101  223 1    
   202  101  224 1    
   203  102  103 2    
   204  102  104 am   BACKBONE|DICT|INTERRES
   205  104  105 1    
   206  104  225 1    
   207  105  106 1    
   208  105  107 1    
   209  105  226 1    
   210  106  227 1    
   211  106  228 1    
   212  106  229 1    
   213  107  108 2    
   214  107  109 am   BACKBONE|DICT|INTERRES
   215  109  110 1    
   216  109  230 1    
   217  110  111 1    
   218  110  112 1    
   219  110  231 1    
   220  111  232 1    
   221  111  233 1    
   222  111  234 1    
   223  112  113 2    
   224  112  114 am   BACKBONE|DICT|INTERRES
   225  114  115 1    
   226  114  235 1    
   227  115  116 1    
   228  115  117 1    
   229  115  236 1    
   230  116  237 1    
   231  116  238 1    
   232  116  239 1    
   233  117  118 2    
   234  117  119 am   BACKBONE|DICT|INTERRES
   235  119  120 1    
   236  119  240 1    
   237  120  121 1    
   238  120  124 1    
   239  120  241 1    
   240  121  122 am   BACKBONE|DICT|INTERRES
   241  121  123 2    
   242  122  242 1    
   243  122  243 1    
   244  124  125 1    
   245  124  244 1    
   246  124  245 1    
   247  125  126 1    
   248  126  246 1    
   249  126  247 1    
@<TRIPOS>SUBSTRUCTURE
     1 UNK         1 GROUP             0       ****    0 ROOT    
